MODEL 1
REMARK VINA RESULT:      -6.5      0.000      0.000
REMARK  Name = 
REMARK  6 active torsions:
REMARK  status: ('A' for Active; 'I' for Inactive)
REMARK    1  A    between atoms: C_1  and  C_2
REMARK    2  A    between atoms: C_2  and  C_3
REMARK    3  A    between atoms: C_6  and  C_7
REMARK    4  A    between atoms: C_12  and  C_14
REMARK    5  A    between atoms: C_17  and  O_18
REMARK    6  A    between atoms: O_18  and  C_19
REMARK                            x       y       z     vdW  Elec       q    Type
REMARK                         _______ _______ _______ _____ _____    ______ ____
ROOT
ATOM      1  C   UNL     1       3.971   2.834  18.154  0.00  0.00    +0.000 C 
ATOM      2  C   UNL     1       2.691   2.506  17.363  0.00  0.00    +0.000 C 
ATOM      3  C   UNL     1       1.777   3.718  17.186  0.00  0.00    +0.000 C 
ATOM      4  C   UNL     1       1.518   4.439  18.508  0.00  0.00    +0.000 C 
ATOM      5  N   UNL     1       2.760   4.722  19.237  0.00  0.00    +0.000 N 
ATOM      6  C   UNL     1       3.288   5.988  19.543  0.00  0.00    +0.000 C 
ATOM      7  O   UNL     1       4.408   6.132  20.041  0.00  0.00    +0.000 OA
ATOM      8  C   UNL     1       3.614   3.557  19.463  0.00  0.00    +0.000 C 
ENDROOT
BRANCH   6   9
ATOM      9  C   UNL     1       2.515   7.229  19.267  0.00  0.00    +0.000 A 
ATOM     10  C   UNL     1       2.561   7.817  18.009  0.00  0.00    +0.000 A 
ATOM     11  C   UNL     1       1.815   8.973  17.795  0.00  0.00    +0.000 A 
ATOM     12  C   UNL     1       1.072   9.473  18.847  0.00  0.00    +0.000 A 
ATOM     13  N   UNL     1       1.076   8.899  20.069  0.00  0.00    +0.000 NA
ATOM     14  N   UNL     1       1.827   7.785  20.286  0.00  0.00    +0.000 NA
BRANCH  12  15
ATOM     15  O   UNL     1       0.314  10.602  18.617  0.00  0.00    +0.000 OA
ATOM     16  C   UNL     1      -0.918  10.577  19.338  0.00  0.00    +0.000 C 
ENDBRANCH  12  15
ENDBRANCH   6   9
BRANCH   1  20
ATOM     17  C   UNL     1       5.863   4.571  15.523  0.00  0.00    +0.000 A 
ATOM     18  C   UNL     1       6.777   4.970  16.477  0.00  0.00    +0.000 A 
ATOM     19  S   UNL     1       6.307   4.394  18.021  0.00  0.00    +0.000 S 
ATOM     20  C   UNL     1       4.934   3.644  17.314  0.00  0.00    +0.000 A 
ATOM     21  N   UNL     1       4.822   3.808  16.011  0.00  0.00    +0.000 NA
BRANCH  17  23
ATOM     22  C   UNL     1       5.942   3.591  13.225  0.00  0.00    +0.000 C 
ATOM     23  C   UNL     1       5.890   4.861  14.059  0.00  0.00    +0.000 C 
ENDBRANCH  17  23
ENDBRANCH   1  20
TORSDOF 4
ENDMDL
MODEL 2
REMARK VINA RESULT:      -6.4      3.060      6.281
REMARK  Name = 
REMARK  6 active torsions:
REMARK  status: ('A' for Active; 'I' for Inactive)
REMARK    1  A    between atoms: C_1  and  C_2
REMARK    2  A    between atoms: C_2  and  C_3
REMARK    3  A    between atoms: C_6  and  C_7
REMARK    4  A    between atoms: C_12  and  C_14
REMARK    5  A    between atoms: C_17  and  O_18
REMARK    6  A    between atoms: O_18  and  C_19
REMARK                            x       y       z     vdW  Elec       q    Type
REMARK                         _______ _______ _______ _____ _____    ______ ____
ROOT
ATOM      1  C   UNL     1       2.943   6.242  19.797  0.00  0.00    +0.000 C 
ATOM      2  C   UNL     1       2.288   7.298  18.888  0.00  0.00    +0.000 C 
ATOM      3  C   UNL     1       2.787   7.230  17.445  0.00  0.00    +0.000 C 
ATOM      4  C   UNL     1       4.313   7.210  17.367  0.00  0.00    +0.000 C 
ATOM      5  N   UNL     1       4.901   6.201  18.256  0.00  0.00    +0.000 N 
ATOM      6  C   UNL     1       5.639   5.068  17.874  0.00  0.00    +0.000 C 
ATOM      7  O   UNL     1       5.979   4.199  18.683  0.00  0.00    +0.000 OA
ATOM      8  C   UNL     1       4.473   6.295  19.652  0.00  0.00    +0.000 C 
ENDROOT
BRANCH   6   9
ATOM      9  C   UNL     1       6.043   4.857  16.458  0.00  0.00    +0.000 A 
ATOM     10  C   UNL     1       5.318   3.993  15.646  0.00  0.00    +0.000 A 
ATOM     11  C   UNL     1       5.729   3.832  14.325  0.00  0.00    +0.000 A 
ATOM     12  C   UNL     1       6.834   4.540  13.895  0.00  0.00    +0.000 A 
ATOM     13  N   UNL     1       7.539   5.345  14.719  0.00  0.00    +0.000 NA
ATOM     14  N   UNL     1       7.155   5.481  16.018  0.00  0.00    +0.000 NA
BRANCH  12  15
ATOM     15  O   UNL     1       7.215   4.397  12.577  0.00  0.00    +0.000 OA
ATOM     16  C   UNL     1       6.519   3.331  11.930  0.00  0.00    +0.000 C 
ENDBRANCH  12  15
ENDBRANCH   6   9
BRANCH   1  20
ATOM     17  C   UNL     1       2.201   2.862  18.555  0.00  0.00    +0.000 A 
ATOM     18  C   UNL     1       1.098   2.826  19.385  0.00  0.00    +0.000 A 
ATOM     19  S   UNL     1       0.989   4.279  20.285  0.00  0.00    +0.000 S 
ATOM     20  C   UNL     1       2.402   4.861  19.501  0.00  0.00    +0.000 A 
ATOM     21  N   UNL     1       2.931   4.031  18.623  0.00  0.00    +0.000 NA
BRANCH  17  23
ATOM     22  C   UNL     1       3.951   1.144  18.076  0.00  0.00    +0.000 C 
ATOM     23  C   UNL     1       2.664   1.804  17.610  0.00  0.00    +0.000 C 
ENDBRANCH  17  23
ENDBRANCH   1  20
TORSDOF 4
ENDMDL
MODEL 3
REMARK VINA RESULT:      -6.4      1.276      1.969
REMARK  Name = 
REMARK  6 active torsions:
REMARK  status: ('A' for Active; 'I' for Inactive)
REMARK    1  A    between atoms: C_1  and  C_2
REMARK    2  A    between atoms: C_2  and  C_3
REMARK    3  A    between atoms: C_6  and  C_7
REMARK    4  A    between atoms: C_12  and  C_14
REMARK    5  A    between atoms: C_17  and  O_18
REMARK    6  A    between atoms: O_18  and  C_19
REMARK                            x       y       z     vdW  Elec       q    Type
REMARK                         _______ _______ _______ _____ _____    ______ ____
ROOT
ATOM      1  C   UNL     1       3.847   2.783  18.445  0.00  0.00    +0.000 C 
ATOM      2  C   UNL     1       2.808   2.555  17.332  0.00  0.00    +0.000 C 
ATOM      3  C   UNL     1       2.008   3.815  17.001  0.00  0.00    +0.000 C 
ATOM      4  C   UNL     1       1.436   4.477  18.254  0.00  0.00    +0.000 C 
ATOM      5  N   UNL     1       2.454   4.665  19.295  0.00  0.00    +0.000 N 
ATOM      6  C   UNL     1       2.923   5.887  19.805  0.00  0.00    +0.000 C 
ATOM      7  O   UNL     1       3.879   5.953  20.583  0.00  0.00    +0.000 OA
ATOM      8  C   UNL     1       3.184   3.451  19.660  0.00  0.00    +0.000 C 
ENDROOT
BRANCH   6   9
ATOM      9  C   UNL     1       2.287   7.175  19.417  0.00  0.00    +0.000 A 
ATOM     10  C   UNL     1       2.398   7.647  18.115  0.00  0.00    +0.000 A 
ATOM     11  C   UNL     1       1.780   8.853  17.796  0.00  0.00    +0.000 A 
ATOM     12  C   UNL     1       1.090   9.515  18.794  0.00  0.00    +0.000 A 
ATOM     13  N   UNL     1       1.030   9.049  20.059  0.00  0.00    +0.000 NA
ATOM     14  N   UNL     1       1.658   7.884  20.378  0.00  0.00    +0.000 NA
BRANCH  12  15
ATOM     15  O   UNL     1       0.457  10.694  18.461  0.00  0.00    +0.000 OA
ATOM     16  C   UNL     1      -0.761  10.872  19.185  0.00  0.00    +0.000 C 
ENDBRANCH  12  15
ENDBRANCH   6   9
BRANCH   1  20
ATOM     17  C   UNL     1       6.802   4.915  17.954  0.00  0.00    +0.000 A 
ATOM     18  C   UNL     1       6.659   4.757  16.590  0.00  0.00    +0.000 A 
ATOM     19  S   UNL     1       5.323   3.739  16.251  0.00  0.00    +0.000 S 
ATOM     20  C   UNL     1       5.019   3.590  17.934  0.00  0.00    +0.000 A 
ATOM     21  N   UNL     1       5.855   4.252  18.709  0.00  0.00    +0.000 NA
BRANCH  17  23
ATOM     22  C   UNL     1       7.900   7.148  18.177  0.00  0.00    +0.000 C 
ATOM     23  C   UNL     1       7.836   5.714  18.675  0.00  0.00    +0.000 C 
ENDBRANCH  17  23
ENDBRANCH   1  20
TORSDOF 4
ENDMDL
MODEL 4
REMARK VINA RESULT:      -6.2      0.815      1.007
REMARK  Name = 
REMARK  6 active torsions:
REMARK  status: ('A' for Active; 'I' for Inactive)
REMARK    1  A    between atoms: C_1  and  C_2
REMARK    2  A    between atoms: C_2  and  C_3
REMARK    3  A    between atoms: C_6  and  C_7
REMARK    4  A    between atoms: C_12  and  C_14
REMARK    5  A    between atoms: C_17  and  O_18
REMARK    6  A    between atoms: O_18  and  C_19
REMARK                            x       y       z     vdW  Elec       q    Type
REMARK                         _______ _______ _______ _____ _____    ______ ____
ROOT
ATOM      1  C   UNL     1       3.969   2.812  18.254  0.00  0.00    +0.000 C 
ATOM      2  C   UNL     1       2.656   2.451  17.535  0.00  0.00    +0.000 C 
ATOM      3  C   UNL     1       1.719   3.648  17.374  0.00  0.00    +0.000 C 
ATOM      4  C   UNL     1       1.516   4.397  18.690  0.00  0.00    +0.000 C 
ATOM      5  N   UNL     1       2.788   4.712  19.351  0.00  0.00    +0.000 N 
ATOM      6  C   UNL     1       3.315   5.991  19.600  0.00  0.00    +0.000 C 
ATOM      7  O   UNL     1       4.456   6.160  20.039  0.00  0.00    +0.000 OA
ATOM      8  C   UNL     1       3.667   3.562  19.562  0.00  0.00    +0.000 C 
ENDROOT
BRANCH   6   9
ATOM      9  C   UNL     1       2.514   7.216  19.333  0.00  0.00    +0.000 A 
ATOM     10  C   UNL     1       1.743   7.782  20.342  0.00  0.00    +0.000 A 
ATOM     11  C   UNL     1       1.017   8.933  20.048  0.00  0.00    +0.000 A 
ATOM     12  C   UNL     1       1.101   9.448  18.769  0.00  0.00    +0.000 A 
ATOM     13  N   UNL     1       1.831   8.855  17.800  0.00  0.00    +0.000 NA
ATOM     14  N   UNL     1       2.519   7.714  18.079  0.00  0.00    +0.000 NA
BRANCH  12  15
ATOM     15  O   UNL     1       0.401  10.604  18.496  0.00  0.00    +0.000 OA
ATOM     16  C   UNL     1      -0.849  10.651  19.185  0.00  0.00    +0.000 C 
ENDBRANCH  12  15
ENDBRANCH   6   9
BRANCH   1  20
ATOM     17  C   UNL     1       5.703   4.514  15.494  0.00  0.00    +0.000 A 
ATOM     18  C   UNL     1       6.666   4.933  16.390  0.00  0.00    +0.000 A 
ATOM     19  S   UNL     1       6.286   4.380  17.966  0.00  0.00    +0.000 S 
ATOM     20  C   UNL     1       4.879   3.613  17.349  0.00  0.00    +0.000 A 
ATOM     21  N   UNL     1       4.694   3.754  16.051  0.00  0.00    +0.000 NA
BRANCH  17  23
ATOM     22  C   UNL     1       6.102   3.580  13.211  0.00  0.00    +0.000 C 
ATOM     23  C   UNL     1       5.647   4.779  14.026  0.00  0.00    +0.000 C 
ENDBRANCH  17  23
ENDBRANCH   1  20
TORSDOF 4
ENDMDL
MODEL 5
REMARK VINA RESULT:      -6.2      3.324      6.633
REMARK  Name = 
REMARK  6 active torsions:
REMARK  status: ('A' for Active; 'I' for Inactive)
REMARK    1  A    between atoms: C_1  and  C_2
REMARK    2  A    between atoms: C_2  and  C_3
REMARK    3  A    between atoms: C_6  and  C_7
REMARK    4  A    between atoms: C_12  and  C_14
REMARK    5  A    between atoms: C_17  and  O_18
REMARK    6  A    between atoms: O_18  and  C_19
REMARK                            x       y       z     vdW  Elec       q    Type
REMARK                         _______ _______ _______ _____ _____    ______ ____
ROOT
ATOM      1  C   UNL     1       4.107   5.675  19.737  0.00  0.00    +0.000 C 
ATOM      2  C   UNL     1       3.081   6.524  18.965  0.00  0.00    +0.000 C 
ATOM      3  C   UNL     1       3.295   6.484  17.452  0.00  0.00    +0.000 C 
ATOM      4  C   UNL     1       4.746   6.774  17.071  0.00  0.00    +0.000 C 
ATOM      5  N   UNL     1       5.694   5.955  17.837  0.00  0.00    +0.000 N 
ATOM      6  C   UNL     1       6.568   4.979  17.328  0.00  0.00    +0.000 C 
ATOM      7  O   UNL     1       7.233   4.243  18.062  0.00  0.00    +0.000 OA
ATOM      8  C   UNL     1       5.534   6.033  19.288  0.00  0.00    +0.000 C 
ENDROOT
BRANCH   6   9
ATOM      9  C   UNL     1       6.726   4.781  15.862  0.00  0.00    +0.000 A 
ATOM     10  C   UNL     1       6.016   3.779  15.210  0.00  0.00    +0.000 A 
ATOM     11  C   UNL     1       6.190   3.636  13.836  0.00  0.00    +0.000 A 
ATOM     12  C   UNL     1       7.061   4.496  13.197  0.00  0.00    +0.000 A 
ATOM     13  N   UNL     1       7.764   5.437  13.863  0.00  0.00    +0.000 NA
ATOM     14  N   UNL     1       7.616   5.559  15.211  0.00  0.00    +0.000 NA
BRANCH  12  15
ATOM     15  O   UNL     1       7.204   4.365  11.831  0.00  0.00    +0.000 OA
ATOM     16  C   UNL     1       6.857   3.056  11.378  0.00  0.00    +0.000 C 
ENDBRANCH  12  15
ENDBRANCH   6   9
BRANCH   1  20
ATOM     17  C   UNL     1       2.704   2.328  19.148  0.00  0.00    +0.000 A 
ATOM     18  C   UNL     1       3.908   1.780  19.542  0.00  0.00    +0.000 A 
ATOM     19  S   UNL     1       5.020   3.022  19.936  0.00  0.00    +0.000 S 
ATOM     20  C   UNL     1       3.824   4.199  19.570  0.00  0.00    +0.000 A 
ATOM     21  N   UNL     1       2.665   3.708  19.177  0.00  0.00    +0.000 NA
BRANCH  17  23
ATOM     22  C   UNL     1       0.237   2.489  18.780  0.00  0.00    +0.000 C 
ATOM     23  C   UNL     1       1.471   1.604  18.718  0.00  0.00    +0.000 C 
ENDBRANCH  17  23
ENDBRANCH   1  20
TORSDOF 4
ENDMDL
MODEL 6
REMARK VINA RESULT:      -6.1      3.312      6.521
REMARK  Name = 
REMARK  6 active torsions:
REMARK  status: ('A' for Active; 'I' for Inactive)
REMARK    1  A    between atoms: C_1  and  C_2
REMARK    2  A    between atoms: C_2  and  C_3
REMARK    3  A    between atoms: C_6  and  C_7
REMARK    4  A    between atoms: C_12  and  C_14
REMARK    5  A    between atoms: C_17  and  O_18
REMARK    6  A    between atoms: O_18  and  C_19
REMARK                            x       y       z     vdW  Elec       q    Type
REMARK                         _______ _______ _______ _____ _____    ______ ____
ROOT
ATOM      1  C   UNL     1       3.656   5.814  19.501  0.00  0.00    +0.000 C 
ATOM      2  C   UNL     1       2.937   6.932  18.724  0.00  0.00    +0.000 C 
ATOM      3  C   UNL     1       3.356   6.998  17.256  0.00  0.00    +0.000 C 
ATOM      4  C   UNL     1       4.876   7.012  17.093  0.00  0.00    +0.000 C 
ATOM      5  N   UNL     1       5.525   5.940  17.858  0.00  0.00    +0.000 N 
ATOM      6  C   UNL     1       6.255   4.858  17.340  0.00  0.00    +0.000 C 
ATOM      7  O   UNL     1       6.651   3.929  18.050  0.00  0.00    +0.000 OA
ATOM      8  C   UNL     1       5.175   5.906  19.278  0.00  0.00    +0.000 C 
ENDROOT
BRANCH   6   9
ATOM      9  C   UNL     1       6.582   4.776  15.890  0.00  0.00    +0.000 A 
ATOM     10  C   UNL     1       5.905   3.882  15.070  0.00  0.00    +0.000 A 
ATOM     11  C   UNL     1       6.239   3.846  13.719  0.00  0.00    +0.000 A 
ATOM     12  C   UNL     1       7.226   4.701  13.268  0.00  0.00    +0.000 A 
ATOM     13  N   UNL     1       7.891   5.534  14.097  0.00  0.00    +0.000 NA
ATOM     14  N   UNL     1       7.584   5.550  15.424  0.00  0.00    +0.000 NA
BRANCH  12  15
ATOM     15  O   UNL     1       7.529   4.679  11.923  0.00  0.00    +0.000 OA
ATOM     16  C   UNL     1       7.797   5.985  11.412  0.00  0.00    +0.000 C 
ENDBRANCH  12  15
ENDBRANCH   6   9
BRANCH   1  20
ATOM     17  C   UNL     1       3.050   2.261  18.776  0.00  0.00    +0.000 A 
ATOM     18  C   UNL     1       1.802   2.598  18.293  0.00  0.00    +0.000 A 
ATOM     19  S   UNL     1       1.549   4.286  18.437  0.00  0.00    +0.000 S 
ATOM     20  C   UNL     1       3.117   4.455  19.116  0.00  0.00    +0.000 A 
ATOM     21  N   UNL     1       3.794   3.330  19.234  0.00  0.00    +0.000 NA
BRANCH  17  23
ATOM     22  C   UNL     1       4.864   0.861  19.774  0.00  0.00    +0.000 C 
ATOM     23  C   UNL     1       3.666   0.903  18.840  0.00  0.00    +0.000 C 
ENDBRANCH  17  23
ENDBRANCH   1  20
TORSDOF 4
ENDMDL
MODEL 7
REMARK VINA RESULT:      -6.0      1.332      2.054
REMARK  Name = 
REMARK  6 active torsions:
REMARK  status: ('A' for Active; 'I' for Inactive)
REMARK    1  A    between atoms: C_1  and  C_2
REMARK    2  A    between atoms: C_2  and  C_3
REMARK    3  A    between atoms: C_6  and  C_7
REMARK    4  A    between atoms: C_12  and  C_14
REMARK    5  A    between atoms: C_17  and  O_18
REMARK    6  A    between atoms: O_18  and  C_19
REMARK                            x       y       z     vdW  Elec       q    Type
REMARK                         _______ _______ _______ _____ _____    ______ ____
ROOT
ATOM      1  C   UNL     1       4.091   2.920  17.917  0.00  0.00    +0.000 C 
ATOM      2  C   UNL     1       2.803   2.613  17.131  0.00  0.00    +0.000 C 
ATOM      3  C   UNL     1       1.843   3.802  17.078  0.00  0.00    +0.000 C 
ATOM      4  C   UNL     1       1.594   4.399  18.462  0.00  0.00    +0.000 C 
ATOM      5  N   UNL     1       2.844   4.665  19.184  0.00  0.00    +0.000 N 
ATOM      6  C   UNL     1       3.336   5.919  19.584  0.00  0.00    +0.000 C 
ATOM      7  O   UNL     1       4.463   6.061  20.068  0.00  0.00    +0.000 OA
ATOM      8  C   UNL     1       3.743   3.516  19.291  0.00  0.00    +0.000 C 
ENDROOT
BRANCH   6   9
ATOM      9  C   UNL     1       2.515   7.150  19.433  0.00  0.00    +0.000 A 
ATOM     10  C   UNL     1       1.765   7.627  20.501  0.00  0.00    +0.000 A 
ATOM     11  C   UNL     1       1.018   8.787  20.315  0.00  0.00    +0.000 A 
ATOM     12  C   UNL     1       1.062   9.399  19.077  0.00  0.00    +0.000 A 
ATOM     13  N   UNL     1       1.772   8.891  18.047  0.00  0.00    +0.000 NA
ATOM     14  N   UNL     1       2.480   7.741  18.220  0.00  0.00    +0.000 NA
BRANCH  12  15
ATOM     15  O   UNL     1       0.342  10.563  18.912  0.00  0.00    +0.000 OA
ATOM     16  C   UNL     1      -0.882  10.343  18.210  0.00  0.00    +0.000 C 
ENDBRANCH  12  15
ENDBRANCH   6   9
BRANCH   1  20
ATOM     17  C   UNL     1       6.469   5.442  16.693  0.00  0.00    +0.000 A 
ATOM     18  C   UNL     1       6.194   5.039  15.402  0.00  0.00    +0.000 A 
ATOM     19  S   UNL     1       5.061   3.755  15.413  0.00  0.00    +0.000 S 
ATOM     20  C   UNL     1       5.003   3.832  17.128  0.00  0.00    +0.000 A 
ATOM     21  N   UNL     1       5.777   4.752  17.668  0.00  0.00    +0.000 NA
BRANCH  17  23
ATOM     22  C   UNL     1       7.756   6.410  18.605  0.00  0.00    +0.000 C 
ATOM     23  C   UNL     1       7.401   6.523  17.131  0.00  0.00    +0.000 C 
ENDBRANCH  17  23
ENDBRANCH   1  20
TORSDOF 4
ENDMDL
MODEL 8
REMARK VINA RESULT:      -5.9      3.467      6.377
REMARK  Name = 
REMARK  6 active torsions:
REMARK  status: ('A' for Active; 'I' for Inactive)
REMARK    1  A    between atoms: C_1  and  C_2
REMARK    2  A    between atoms: C_2  and  C_3
REMARK    3  A    between atoms: C_6  and  C_7
REMARK    4  A    between atoms: C_12  and  C_14
REMARK    5  A    between atoms: C_17  and  O_18
REMARK    6  A    between atoms: O_18  and  C_19
REMARK                            x       y       z     vdW  Elec       q    Type
REMARK                         _______ _______ _______ _____ _____    ______ ____
ROOT
ATOM      1  C   UNL     1       3.026   3.873  20.218  0.00  0.00    +0.000 C 
ATOM      2  C   UNL     1       1.822   3.796  19.261  0.00  0.00    +0.000 C 
ATOM      3  C   UNL     1       2.229   3.861  17.789  0.00  0.00    +0.000 C 
ATOM      4  C   UNL     1       3.169   5.032  17.505  0.00  0.00    +0.000 C 
ATOM      5  N   UNL     1       4.296   5.078  18.445  0.00  0.00    +0.000 N 
ATOM      6  C   UNL     1       5.657   4.918  18.137  0.00  0.00    +0.000 C 
ATOM      7  O   UNL     1       6.525   4.837  19.011  0.00  0.00    +0.000 OA
ATOM      8  C   UNL     1       3.913   5.076  19.857  0.00  0.00    +0.000 C 
ENDROOT
BRANCH   6   9
ATOM      9  C   UNL     1       6.120   4.828  16.726  0.00  0.00    +0.000 A 
ATOM     10  C   UNL     1       5.583   3.871  15.873  0.00  0.00    +0.000 A 
ATOM     11  C   UNL     1       6.041   3.830  14.559  0.00  0.00    +0.000 A 
ATOM     12  C   UNL     1       7.005   4.742  14.176  0.00  0.00    +0.000 A 
ATOM     13  N   UNL     1       7.534   5.637  15.038  0.00  0.00    +0.000 NA
ATOM     14  N   UNL     1       7.106   5.660  16.331  0.00  0.00    +0.000 NA
BRANCH  12  15
ATOM     15  O   UNL     1       7.431   4.712  12.865  0.00  0.00    +0.000 OA
ATOM     16  C   UNL     1       6.801   3.671  12.119  0.00  0.00    +0.000 C 
ENDBRANCH  12  15
ENDBRANCH   6   9
BRANCH   1  20
ATOM     17  C   UNL     1       5.179   0.970  20.887  0.00  0.00    +0.000 A 
ATOM     18  C   UNL     1       4.875   0.485  19.632  0.00  0.00    +0.000 A 
ATOM     19  S   UNL     1       3.788   1.545  18.837  0.00  0.00    +0.000 S 
ATOM     20  C   UNL     1       3.809   2.580  20.208  0.00  0.00    +0.000 A 
ATOM     21  N   UNL     1       4.573   2.170  21.200  0.00  0.00    +0.000 NA
BRANCH  17  23
ATOM     22  C   UNL     1       6.458  -1.073  21.550  0.00  0.00    +0.000 C 
ATOM     23  C   UNL     1       6.080   0.356  21.907  0.00  0.00    +0.000 C 
ENDBRANCH  17  23
ENDBRANCH   1  20
TORSDOF 4
ENDMDL
MODEL 9
REMARK VINA RESULT:      -5.9      3.991      8.412
REMARK  Name = 
REMARK  6 active torsions:
REMARK  status: ('A' for Active; 'I' for Inactive)
REMARK    1  A    between atoms: C_1  and  C_2
REMARK    2  A    between atoms: C_2  and  C_3
REMARK    3  A    between atoms: C_6  and  C_7
REMARK    4  A    between atoms: C_12  and  C_14
REMARK    5  A    between atoms: C_17  and  O_18
REMARK    6  A    between atoms: O_18  and  C_19
REMARK                            x       y       z     vdW  Elec       q    Type
REMARK                         _______ _______ _______ _____ _____    ______ ____
ROOT
ATOM      1  C   UNL     1      -1.099  12.997  19.909  0.00  0.00    +0.000 C 
ATOM      2  C   UNL     1      -0.073  13.759  19.050  0.00  0.00    +0.000 C 
ATOM      3  C   UNL     1       0.985  12.842  18.437  0.00  0.00    +0.000 C 
ATOM      4  C   UNL     1       1.616  11.918  19.478  0.00  0.00    +0.000 C 
ATOM      5  N   UNL     1       0.606  11.221  20.284  0.00  0.00    +0.000 N 
ATOM      6  C   UNL     1       0.374   9.836  20.329  0.00  0.00    +0.000 C 
ATOM      7  O   UNL     1      -0.586   9.348  20.933  0.00  0.00    +0.000 OA
ATOM      8  C   UNL     1      -0.376  12.096  20.923  0.00  0.00    +0.000 C 
ENDROOT
BRANCH   6   9
ATOM      9  C   UNL     1       1.281   8.882  19.635  0.00  0.00    +0.000 A 
ATOM     10  C   UNL     1       1.608   9.074  18.298  0.00  0.00    +0.000 A 
ATOM     11  C   UNL     1       2.466   8.160  17.693  0.00  0.00    +0.000 A 
ATOM     12  C   UNL     1       2.945   7.112  18.455  0.00  0.00    +0.000 A 
ATOM     13  N   UNL     1       2.581   6.932  19.743  0.00  0.00    +0.000 NA
ATOM     14  N   UNL     1       1.719   7.810  20.327  0.00  0.00    +0.000 NA
BRANCH  12  15
ATOM     15  O   UNL     1       3.818   6.229  17.855  0.00  0.00    +0.000 OA
ATOM     16  C   UNL     1       4.695   6.882  16.936  0.00  0.00    +0.000 C 
ENDBRANCH  12  15
ENDBRANCH   6   9
BRANCH   1  20
ATOM     17  C   UNL     1      -2.777  10.918  17.383  0.00  0.00    +0.000 A 
ATOM     18  C   UNL     1      -3.985  11.203  17.986  0.00  0.00    +0.000 A 
ATOM     19  S   UNL     1      -3.741  12.208  19.352  0.00  0.00    +0.000 S 
ATOM     20  C   UNL     1      -2.052  12.207  19.040  0.00  0.00    +0.000 A 
ATOM     21  N   UNL     1      -1.683  11.504  17.987  0.00  0.00    +0.000 NA
BRANCH  17  23
ATOM     22  C   UNL     1      -3.403  10.508  14.998  0.00  0.00    +0.000 C 
ATOM     23  C   UNL     1      -2.539  10.077  16.173  0.00  0.00    +0.000 C 
ENDBRANCH  17  23
ENDBRANCH   1  20
TORSDOF 4
ENDMDL
