MODEL 1
REMARK VINA RESULT:      -7.8      0.000      0.000
REMARK  Name = 
REMARK  7 active torsions:
REMARK  status: ('A' for Active; 'I' for Inactive)
REMARK    1  A    between atoms: O_1  and  C_2
REMARK    2  A    between atoms: C_2  and  C_3
REMARK    3  A    between atoms: C_2  and  C_11
REMARK    4  A    between atoms: C_11  and  O_12
REMARK    5  A    between atoms: C_11  and  C_13
REMARK    6  A    between atoms: C_11  and  C_19
REMARK    7  A    between atoms: C_13  and  N_14
REMARK                            x       y       z     vdW  Elec       q    Type
REMARK                         _______ _______ _______ _____ _____    ______ ____
ROOT
ATOM      1  C   UNL     1       4.721   4.010  18.436  0.00  0.00    +0.000 C 
ENDROOT
BRANCH   1   2
ATOM      2  C   UNL     1       5.426   4.151  17.056  0.00  0.00    +0.000 A 
ATOM      3  C   UNL     1       4.676   4.105  15.855  0.00  0.00    +0.000 A 
ATOM      4  C   UNL     1       5.250   4.333  14.600  0.00  0.00    +0.000 A 
ATOM      5  C   UNL     1       6.603   4.604  14.500  0.00  0.00    +0.000 A 
ATOM      6 CL   UNL     1       7.302   4.929  12.964  0.00  0.00    +0.000 Cl
ATOM      7  C   UNL     1       7.389   4.624  15.644  0.00  0.00    +0.000 A 
ATOM      8  C   UNL     1       6.812   4.407  16.907  0.00  0.00    +0.000 A 
ATOM      9 CL   UNL     1       7.919   4.516  18.235  0.00  0.00    +0.000 Cl
ENDBRANCH   1   2
BRANCH   1  10
ATOM     10  O   UNL     1       5.608   3.096  19.139  0.00  0.00    +0.000 OA
ATOM     11  H   UNL     1       5.230   2.888  20.011  0.00  0.00    +0.000 HD
ENDBRANCH   1  10
BRANCH   1  12
ATOM     12  C   UNL     1       4.704   5.356  19.297  0.00  0.00    +0.000 C 
BRANCH  12  13
ATOM     13  C   UNL     1       3.705   6.445  18.885  0.00  0.00    +0.000 A 
ATOM     14  C   UNL     1       2.582   6.628  19.726  0.00  0.00    +0.000 A 
ATOM     15  C   UNL     1       1.648   7.639  19.496  0.00  0.00    +0.000 A 
ATOM     16  C   UNL     1       1.812   8.491  18.413  0.00  0.00    +0.000 A 
ATOM     17 CL   UNL     1       0.680   9.755  18.138  0.00  0.00    +0.000 Cl
ATOM     18  C   UNL     1       2.896   8.334  17.559  0.00  0.00    +0.000 A 
ATOM     19  C   UNL     1       3.838   7.323  17.792  0.00  0.00    +0.000 A 
ATOM     20 CL   UNL     1       5.173   7.270  16.704  0.00  0.00    +0.000 Cl
ENDBRANCH  12  13
BRANCH  12  21
ATOM     21  O   UNL     1       6.029   5.840  19.507  0.00  0.00    +0.000 OA
ATOM     22  H   UNL     1       6.293   5.695  20.431  0.00  0.00    +0.000 HD
ENDBRANCH  12  21
ENDBRANCH   1  12
BRANCH   1  23
ATOM     23  C   UNL     1       3.298   3.382  18.369  0.00  0.00    +0.000 C 
BRANCH  23  24
ATOM     24  N   UNL     1       2.525   3.178  19.570  0.00  0.00    +0.000 N 
ATOM     25  C   UNL     1       1.186   3.259  19.790  0.00  0.00    +0.000 A 
ATOM     26  N   UNL     1       0.913   2.884  21.020  0.00  0.00    +0.000 NA
ATOM     27  C   UNL     1       2.136   2.545  21.516  0.00  0.00    +0.000 A 
ATOM     28  N   UNL     1       3.150   2.679  20.657  0.00  0.00    +0.000 NA
ENDBRANCH  23  24
ENDBRANCH   1  23
TORSDOF 7
ENDMDL
MODEL 2
REMARK VINA RESULT:      -7.7      1.922      5.674
REMARK  Name = 
REMARK  7 active torsions:
REMARK  status: ('A' for Active; 'I' for Inactive)
REMARK    1  A    between atoms: O_1  and  C_2
REMARK    2  A    between atoms: C_2  and  C_3
REMARK    3  A    between atoms: C_2  and  C_11
REMARK    4  A    between atoms: C_11  and  O_12
REMARK    5  A    between atoms: C_11  and  C_13
REMARK    6  A    between atoms: C_11  and  C_19
REMARK    7  A    between atoms: C_13  and  N_14
REMARK                            x       y       z     vdW  Elec       q    Type
REMARK                         _______ _______ _______ _____ _____    ______ ____
ROOT
ATOM      1  C   UNL     1       2.673   6.403  19.239  0.00  0.00    +0.000 C 
ENDROOT
BRANCH   1   2
ATOM      2  C   UNL     1       2.183   7.875  19.110  0.00  0.00    +0.000 A 
ATOM      3  C   UNL     1       2.450   8.624  17.937  0.00  0.00    +0.000 A 
ATOM      4  C   UNL     1       1.940   9.910  17.733  0.00  0.00    +0.000 A 
ATOM      5  C   UNL     1       1.152  10.501  18.704  0.00  0.00    +0.000 A 
ATOM      6 CL   UNL     1       0.487  12.063  18.436  0.00  0.00    +0.000 Cl
ATOM      7  C   UNL     1       0.890   9.823  19.887  0.00  0.00    +0.000 A 
ATOM      8  C   UNL     1       1.392   8.525  20.089  0.00  0.00    +0.000 A 
ATOM      9 CL   UNL     1       0.932   7.800  21.594  0.00  0.00    +0.000 Cl
ENDBRANCH   1   2
BRANCH   1  10
ATOM     10  O   UNL     1       1.929   5.741  18.179  0.00  0.00    +0.000 OA
ATOM     11  H   UNL     1       2.031   4.777  18.269  0.00  0.00    +0.000 HD
ENDBRANCH   1  10
BRANCH   1  12
ATOM     12  C   UNL     1       4.218   6.200  18.886  0.00  0.00    +0.000 C 
BRANCH  12  13
ATOM     13  C   UNL     1       4.554   5.541  17.542  0.00  0.00    +0.000 A 
ATOM     14  C   UNL     1       4.956   6.403  16.495  0.00  0.00    +0.000 A 
ATOM     15  C   UNL     1       5.362   5.913  15.252  0.00  0.00    +0.000 A 
ATOM     16  C   UNL     1       5.369   4.544  15.025  0.00  0.00    +0.000 A 
ATOM     17 CL   UNL     1       5.891   3.931  13.506  0.00  0.00    +0.000 Cl
ATOM     18  C   UNL     1       4.969   3.668  16.026  0.00  0.00    +0.000 A 
ATOM     19  C   UNL     1       4.568   4.158  17.275  0.00  0.00    +0.000 A 
ATOM     20 CL   UNL     1       4.158   2.972  18.456  0.00  0.00    +0.000 Cl
ENDBRANCH  12  13
BRANCH  12  21
ATOM     21  O   UNL     1       4.921   5.640  19.992  0.00  0.00    +0.000 OA
ATOM     22  H   UNL     1       5.791   6.065  20.082  0.00  0.00    +0.000 HD
ENDBRANCH  12  21
ENDBRANCH   1  12
BRANCH   1  23
ATOM     23  C   UNL     1       2.326   5.728  20.599  0.00  0.00    +0.000 C 
BRANCH  23  24
ATOM     24  N   UNL     1       1.946   4.337  20.655  0.00  0.00    +0.000 N 
ATOM     25  C   UNL     1       2.325   3.346  21.505  0.00  0.00    +0.000 A 
ATOM     26  N   UNL     1       1.638   2.255  21.249  0.00  0.00    +0.000 NA
ATOM     27  C   UNL     1       0.812   2.641  20.237  0.00  0.00    +0.000 A 
ATOM     28  N   UNL     1       0.941   3.916  19.859  0.00  0.00    +0.000 NA
ENDBRANCH  23  24
ENDBRANCH   1  23
TORSDOF 7
ENDMDL
MODEL 3
REMARK VINA RESULT:      -7.7      3.321      4.998
REMARK  Name = 
REMARK  7 active torsions:
REMARK  status: ('A' for Active; 'I' for Inactive)
REMARK    1  A    between atoms: O_1  and  C_2
REMARK    2  A    between atoms: C_2  and  C_3
REMARK    3  A    between atoms: C_2  and  C_11
REMARK    4  A    between atoms: C_11  and  O_12
REMARK    5  A    between atoms: C_11  and  C_13
REMARK    6  A    between atoms: C_11  and  C_19
REMARK    7  A    between atoms: C_13  and  N_14
REMARK                            x       y       z     vdW  Elec       q    Type
REMARK                         _______ _______ _______ _____ _____    ______ ____
ROOT
ATOM      1  C   UNL     1       5.223   4.217  17.400  0.00  0.00    +0.000 C 
ENDROOT
BRANCH   1   2
ATOM      2  C   UNL     1       6.078   5.480  17.713  0.00  0.00    +0.000 A 
ATOM      3  C   UNL     1       7.070   5.447  18.724  0.00  0.00    +0.000 A 
ATOM      4  C   UNL     1       7.934   6.521  18.967  0.00  0.00    +0.000 A 
ATOM      5  C   UNL     1       7.826   7.675  18.213  0.00  0.00    +0.000 A 
ATOM      6 CL   UNL     1       8.914   8.978  18.479  0.00  0.00    +0.000 Cl
ATOM      7  C   UNL     1       6.846   7.771  17.234  0.00  0.00    +0.000 A 
ATOM      8  C   UNL     1       5.986   6.689  16.980  0.00  0.00    +0.000 A 
ATOM      9 CL   UNL     1       4.855   6.952  15.694  0.00  0.00    +0.000 Cl
ENDBRANCH   1   2
BRANCH   1  10
ATOM     10  O   UNL     1       5.450   3.397  18.579  0.00  0.00    +0.000 OA
ATOM     11  H   UNL     1       4.595   3.191  18.997  0.00  0.00    +0.000 HD
ENDBRANCH   1  10
BRANCH   1  12
ATOM     12  C   UNL     1       3.650   4.495  17.353  0.00  0.00    +0.000 C 
BRANCH  12  13
ATOM     13  C   UNL     1       3.050   5.350  18.477  0.00  0.00    +0.000 A 
ATOM     14  C   UNL     1       2.854   6.723  18.195  0.00  0.00    +0.000 A 
ATOM     15  C   UNL     1       2.244   7.582  19.111  0.00  0.00    +0.000 A 
ATOM     16  C   UNL     1       1.819   7.088  20.336  0.00  0.00    +0.000 A 
ATOM     17 CL   UNL     1       1.044   8.135  21.459  0.00  0.00    +0.000 Cl
ATOM     18  C   UNL     1       2.005   5.749  20.652  0.00  0.00    +0.000 A 
ATOM     19  C   UNL     1       2.612   4.883  19.731  0.00  0.00    +0.000 A 
ATOM     20 CL   UNL     1       2.727   3.232  20.211  0.00  0.00    +0.000 Cl
ENDBRANCH  12  13
BRANCH  12  21
ATOM     21  O   UNL     1       2.930   3.290  17.101  0.00  0.00    +0.000 OA
ATOM     22  H   UNL     1       2.125   3.265  17.644  0.00  0.00    +0.000 HD
ENDBRANCH  12  21
ENDBRANCH   1  12
BRANCH   1  23
ATOM     23  C   UNL     1       5.680   3.428  16.139  0.00  0.00    +0.000 C 
BRANCH  23  24
ATOM     24  N   UNL     1       6.335   4.102  15.044  0.00  0.00    +0.000 N 
ATOM     25  C   UNL     1       7.485   4.827  15.008  0.00  0.00    +0.000 A 
ATOM     26  N   UNL     1       7.758   5.165  13.767  0.00  0.00    +0.000 NA
ATOM     27  C   UNL     1       6.745   4.588  13.061  0.00  0.00    +0.000 A 
ATOM     28  N   UNL     1       5.866   3.901  13.795  0.00  0.00    +0.000 NA
ENDBRANCH  23  24
ENDBRANCH   1  23
TORSDOF 7
ENDMDL
MODEL 4
REMARK VINA RESULT:      -7.5      3.601      5.532
REMARK  Name = 
REMARK  7 active torsions:
REMARK  status: ('A' for Active; 'I' for Inactive)
REMARK    1  A    between atoms: O_1  and  C_2
REMARK    2  A    between atoms: C_2  and  C_3
REMARK    3  A    between atoms: C_2  and  C_11
REMARK    4  A    between atoms: C_11  and  O_12
REMARK    5  A    between atoms: C_11  and  C_13
REMARK    6  A    between atoms: C_11  and  C_19
REMARK    7  A    between atoms: C_13  and  N_14
REMARK                            x       y       z     vdW  Elec       q    Type
REMARK                         _______ _______ _______ _____ _____    ______ ____
ROOT
ATOM      1  C   UNL     1       5.755   4.375  17.400  0.00  0.00    +0.000 C 
ENDROOT
BRANCH   1   2
ATOM      2  C   UNL     1       6.436   5.750  17.660  0.00  0.00    +0.000 A 
ATOM      3  C   UNL     1       7.535   5.854  18.549  0.00  0.00    +0.000 A 
ATOM      4  C   UNL     1       8.245   7.045  18.732  0.00  0.00    +0.000 A 
ATOM      5  C   UNL     1       7.872   8.182  18.040  0.00  0.00    +0.000 A 
ATOM      6 CL   UNL     1       8.771   9.635  18.229  0.00  0.00    +0.000 Cl
ATOM      7  C   UNL     1       6.780   8.142  17.184  0.00  0.00    +0.000 A 
ATOM      8  C   UNL     1       6.072   6.943  16.989  0.00  0.00    +0.000 A 
ATOM      9 CL   UNL     1       4.770   7.050  15.852  0.00  0.00    +0.000 Cl
ENDBRANCH   1   2
BRANCH   1  10
ATOM     10  O   UNL     1       5.997   3.674  18.651  0.00  0.00    +0.000 OA
ATOM     11  H   UNL     1       5.370   2.934  18.731  0.00  0.00    +0.000 HD
ENDBRANCH   1  10
BRANCH   1  12
ATOM     12  C   UNL     1       4.167   4.458  17.243  0.00  0.00    +0.000 C 
BRANCH  12  13
ATOM     13  C   UNL     1       3.316   4.079  18.463  0.00  0.00    +0.000 A 
ATOM     14  C   UNL     1       3.044   2.702  18.645  0.00  0.00    +0.000 A 
ATOM     15  C   UNL     1       2.348   2.230  19.759  0.00  0.00    +0.000 A 
ATOM     16  C   UNL     1       1.902   3.128  20.719  0.00  0.00    +0.000 A 
ATOM     17 CL   UNL     1       1.067   2.553  22.107  0.00  0.00    +0.000 Cl
ATOM     18  C   UNL     1       2.141   4.488  20.568  0.00  0.00    +0.000 A 
ATOM     19  C   UNL     1       2.844   4.962  19.453  0.00  0.00    +0.000 A 
ATOM     20 CL   UNL     1       3.136   6.660  19.411  0.00  0.00    +0.000 Cl
ENDBRANCH  12  13
BRANCH  12  21
ATOM     21  O   UNL     1       3.743   3.835  16.032  0.00  0.00    +0.000 OA
ATOM     22  H   UNL     1       4.392   4.004  15.329  0.00  0.00    +0.000 HD
ENDBRANCH  12  21
ENDBRANCH   1  12
BRANCH   1  23
ATOM     23  C   UNL     1       6.381   3.558  16.232  0.00  0.00    +0.000 C 
BRANCH  23  24
ATOM     24  N   UNL     1       6.659   4.184  14.962  0.00  0.00    +0.000 N 
ATOM     25  C   UNL     1       7.607   5.091  14.607  0.00  0.00    +0.000 A 
ATOM     26  N   UNL     1       7.559   5.300  13.310  0.00  0.00    +0.000 NA
ATOM     27  C   UNL     1       6.568   4.459  12.899  0.00  0.00    +0.000 A 
ATOM     28  N   UNL     1       6.007   3.732  13.869  0.00  0.00    +0.000 NA
ENDBRANCH  23  24
ENDBRANCH   1  23
TORSDOF 7
ENDMDL
MODEL 5
REMARK VINA RESULT:      -7.5      1.628      1.990
REMARK  Name = 
REMARK  7 active torsions:
REMARK  status: ('A' for Active; 'I' for Inactive)
REMARK    1  A    between atoms: O_1  and  C_2
REMARK    2  A    between atoms: C_2  and  C_3
REMARK    3  A    between atoms: C_2  and  C_11
REMARK    4  A    between atoms: C_11  and  O_12
REMARK    5  A    between atoms: C_11  and  C_13
REMARK    6  A    between atoms: C_11  and  C_19
REMARK    7  A    between atoms: C_13  and  N_14
REMARK                            x       y       z     vdW  Elec       q    Type
REMARK                         _______ _______ _______ _____ _____    ______ ____
ROOT
ATOM      1  C   UNL     1       4.063   4.280  18.046  0.00  0.00    +0.000 C 
ENDROOT
BRANCH   1   2
ATOM      2  C   UNL     1       5.077   4.406  16.872  0.00  0.00    +0.000 A 
ATOM      3  C   UNL     1       4.647   4.262  15.529  0.00  0.00    +0.000 A 
ATOM      4  C   UNL     1       5.499   4.472  14.440  0.00  0.00    +0.000 A 
ATOM      5  C   UNL     1       6.819   4.822  14.655  0.00  0.00    +0.000 A 
ATOM      6 CL   UNL     1       7.856   5.124  13.318  0.00  0.00    +0.000 Cl
ATOM      7  C   UNL     1       7.299   4.940  15.952  0.00  0.00    +0.000 A 
ATOM      8  C   UNL     1       6.442   4.742  17.049  0.00  0.00    +0.000 A 
ATOM      9 CL   UNL     1       7.184   4.977  18.596  0.00  0.00    +0.000 Cl
ENDBRANCH   1   2
BRANCH   1  10
ATOM     10  O   UNL     1       4.718   5.044  19.096  0.00  0.00    +0.000 OA
ATOM     11  H   UNL     1       4.125   5.107  19.865  0.00  0.00    +0.000 HD
ENDBRANCH   1  10
BRANCH   1  12
ATOM     12  C   UNL     1       2.666   5.008  17.779  0.00  0.00    +0.000 C 
BRANCH  12  13
ATOM     13  C   UNL     1       2.218   6.070  18.791  0.00  0.00    +0.000 A 
ATOM     14  C   UNL     1       1.659   5.598  20.002  0.00  0.00    +0.000 A 
ATOM     15  C   UNL     1       1.288   6.466  21.030  0.00  0.00    +0.000 A 
ATOM     16  C   UNL     1       1.463   7.834  20.868  0.00  0.00    +0.000 A 
ATOM     17 CL   UNL     1       1.032   8.909  22.139  0.00  0.00    +0.000 Cl
ATOM     18  C   UNL     1       1.998   8.334  19.688  0.00  0.00    +0.000 A 
ATOM     19  C   UNL     1       2.377   7.463  18.658  0.00  0.00    +0.000 A 
ATOM     20 CL   UNL     1       3.089   8.198  17.272  0.00  0.00    +0.000 Cl
ENDBRANCH  12  13
BRANCH  12  21
ATOM     21  O   UNL     1       1.653   4.057  17.456  0.00  0.00    +0.000 OA
ATOM     22  H   UNL     1       0.841   4.518  17.185  0.00  0.00    +0.000 HD
ENDBRANCH  12  21
ENDBRANCH   1  12
BRANCH   1  23
ATOM     23  C   UNL     1       3.838   2.823  18.547  0.00  0.00    +0.000 C 
BRANCH  23  24
ATOM     24  N   UNL     1       3.191   2.570  19.811  0.00  0.00    +0.000 N 
ATOM     25  C   UNL     1       3.651   2.693  21.085  0.00  0.00    +0.000 A 
ATOM     26  N   UNL     1       2.675   2.456  21.934  0.00  0.00    +0.000 NA
ATOM     27  C   UNL     1       1.609   2.219  21.120  0.00  0.00    +0.000 A 
ATOM     28  N   UNL     1       1.867   2.308  19.812  0.00  0.00    +0.000 NA
ENDBRANCH  23  24
ENDBRANCH   1  23
TORSDOF 7
ENDMDL
MODEL 6
REMARK VINA RESULT:      -7.4      1.033      1.468
REMARK  Name = 
REMARK  7 active torsions:
REMARK  status: ('A' for Active; 'I' for Inactive)
REMARK    1  A    between atoms: O_1  and  C_2
REMARK    2  A    between atoms: C_2  and  C_3
REMARK    3  A    between atoms: C_2  and  C_11
REMARK    4  A    between atoms: C_11  and  O_12
REMARK    5  A    between atoms: C_11  and  C_13
REMARK    6  A    between atoms: C_11  and  C_19
REMARK    7  A    between atoms: C_13  and  N_14
REMARK                            x       y       z     vdW  Elec       q    Type
REMARK                         _______ _______ _______ _____ _____    ______ ____
ROOT
ATOM      1  C   UNL     1       4.689   3.966  18.358  0.00  0.00    +0.000 C 
ENDROOT
BRANCH   1   2
ATOM      2  C   UNL     1       5.450   4.198  17.020  0.00  0.00    +0.000 A 
ATOM      3  C   UNL     1       4.752   4.216  15.787  0.00  0.00    +0.000 A 
ATOM      4  C   UNL     1       5.375   4.527  14.574  0.00  0.00    +0.000 A 
ATOM      5  C   UNL     1       6.726   4.819  14.549  0.00  0.00    +0.000 A 
ATOM      6 CL   UNL     1       7.484   5.244  13.066  0.00  0.00    +0.000 Cl
ATOM      7  C   UNL     1       7.463   4.779  15.725  0.00  0.00    +0.000 A 
ATOM      8  C   UNL     1       6.836   4.479  16.947  0.00  0.00    +0.000 A 
ATOM      9 CL   UNL     1       7.885   4.521  18.325  0.00  0.00    +0.000 Cl
ENDBRANCH   1   2
BRANCH   1  10
ATOM     10  O   UNL     1       5.521   2.968  19.011  0.00  0.00    +0.000 OA
ATOM     11  H   UNL     1       5.493   2.141  18.499  0.00  0.00    +0.000 HD
ENDBRANCH   1  10
BRANCH   1  12
ATOM     12  C   UNL     1       4.680   5.235  19.328  0.00  0.00    +0.000 C 
BRANCH  12  13
ATOM     13  C   UNL     1       3.711   6.376  18.989  0.00  0.00    +0.000 A 
ATOM     14  C   UNL     1       3.936   7.058  17.770  0.00  0.00    +0.000 A 
ATOM     15  C   UNL     1       3.075   8.060  17.318  0.00  0.00    +0.000 A 
ATOM     16  C   UNL     1       1.968   8.408  18.080  0.00  0.00    +0.000 A 
ATOM     17 CL   UNL     1       0.889   9.623  17.518  0.00  0.00    +0.000 Cl
ATOM     18  C   UNL     1       1.723   7.768  19.288  0.00  0.00    +0.000 A 
ATOM     19  C   UNL     1       2.583   6.758  19.740  0.00  0.00    +0.000 A 
ATOM     20 CL   UNL     1       2.137   5.993  21.218  0.00  0.00    +0.000 Cl
ENDBRANCH  12  13
BRANCH  12  21
ATOM     21  O   UNL     1       6.008   5.672  19.604  0.00  0.00    +0.000 OA
ATOM     22  H   UNL     1       6.036   6.128  20.462  0.00  0.00    +0.000 HD
ENDBRANCH  12  21
ENDBRANCH   1  12
BRANCH   1  23
ATOM     23  C   UNL     1       3.251   3.393  18.188  0.00  0.00    +0.000 C 
BRANCH  23  24
ATOM     24  N   UNL     1       2.413   3.153  19.337  0.00  0.00    +0.000 N 
ATOM     25  C   UNL     1       1.065   3.242  19.488  0.00  0.00    +0.000 A 
ATOM     26  N   UNL     1       0.723   2.824  20.687  0.00  0.00    +0.000 NA
ATOM     27  C   UNL     1       1.914   2.452  21.234  0.00  0.00    +0.000 A 
ATOM     28  N   UNL     1       2.974   2.606  20.437  0.00  0.00    +0.000 NA
ENDBRANCH  23  24
ENDBRANCH   1  23
TORSDOF 7
ENDMDL
MODEL 7
REMARK VINA RESULT:      -7.4      3.623      5.569
REMARK  Name = 
REMARK  7 active torsions:
REMARK  status: ('A' for Active; 'I' for Inactive)
REMARK    1  A    between atoms: O_1  and  C_2
REMARK    2  A    between atoms: C_2  and  C_3
REMARK    3  A    between atoms: C_2  and  C_11
REMARK    4  A    between atoms: C_11  and  O_12
REMARK    5  A    between atoms: C_11  and  C_13
REMARK    6  A    between atoms: C_11  and  C_19
REMARK    7  A    between atoms: C_13  and  N_14
REMARK                            x       y       z     vdW  Elec       q    Type
REMARK                         _______ _______ _______ _____ _____    ______ ____
ROOT
ATOM      1  C   UNL     1       6.642   4.779  17.493  0.00  0.00    +0.000 C 
ENDROOT
BRANCH   1   2
ATOM      2  C   UNL     1       7.027   6.272  17.710  0.00  0.00    +0.000 A 
ATOM      3  C   UNL     1       8.172   6.618  18.469  0.00  0.00    +0.000 A 
ATOM      4  C   UNL     1       8.616   7.938  18.601  0.00  0.00    +0.000 A 
ATOM      5  C   UNL     1       7.921   8.964  17.986  0.00  0.00    +0.000 A 
ATOM      6 CL   UNL     1       8.491  10.580  18.110  0.00  0.00    +0.000 Cl
ATOM      7  C   UNL     1       6.772   8.680  17.261  0.00  0.00    +0.000 A 
ATOM      8  C   UNL     1       6.330   7.354  17.117  0.00  0.00    +0.000 A 
ATOM      9 CL   UNL     1       4.912   7.167  16.140  0.00  0.00    +0.000 Cl
ENDBRANCH   1   2
BRANCH   1  10
ATOM     10  O   UNL     1       7.941   4.152  17.315  0.00  0.00    +0.000 OA
ATOM     11  H   UNL     1       7.830   3.186  17.283  0.00  0.00    +0.000 HD
ENDBRANCH   1  10
BRANCH   1  12
ATOM     12  C   UNL     1       5.990   4.085  18.776  0.00  0.00    +0.000 C 
BRANCH  12  13
ATOM     13  C   UNL     1       4.502   3.716  18.700  0.00  0.00    +0.000 A 
ATOM     14  C   UNL     1       4.196   2.350  18.495  0.00  0.00    +0.000 A 
ATOM     15  C   UNL     1       2.880   1.883  18.487  0.00  0.00    +0.000 A 
ATOM     16  C   UNL     1       1.836   2.777  18.680  0.00  0.00    +0.000 A 
ATOM     17 CL   UNL     1       0.214   2.207  18.697  0.00  0.00    +0.000 Cl
ATOM     18  C   UNL     1       2.098   4.127  18.872  0.00  0.00    +0.000 A 
ATOM     19  C   UNL     1       3.419   4.595  18.887  0.00  0.00    +0.000 A 
ATOM     20 CL   UNL     1       3.619   6.278  19.200  0.00  0.00    +0.000 Cl
ENDBRANCH  12  13
BRANCH  12  21
ATOM     21  O   UNL     1       6.349   4.781  19.967  0.00  0.00    +0.000 OA
ATOM     22  H   UNL     1       6.247   5.738  19.835  0.00  0.00    +0.000 HD
ENDBRANCH  12  21
ENDBRANCH   1  12
BRANCH   1  23
ATOM     23  C   UNL     1       5.775   4.517  16.227  0.00  0.00    +0.000 C 
BRANCH  23  24
ATOM     24  N   UNL     1       6.385   4.428  14.922  0.00  0.00    +0.000 N 
ATOM     25  C   UNL     1       5.984   3.780  13.796  0.00  0.00    +0.000 A 
ATOM     26  N   UNL     1       6.799   4.067  12.805  0.00  0.00    +0.000 NA
ATOM     27  C   UNL     1       7.681   4.936  13.373  0.00  0.00    +0.000 A 
ATOM     28  N   UNL     1       7.451   5.213  14.659  0.00  0.00    +0.000 NA
ENDBRANCH  23  24
ENDBRANCH   1  23
TORSDOF 7
ENDMDL
MODEL 8
REMARK VINA RESULT:      -7.3      3.437      5.288
REMARK  Name = 
REMARK  7 active torsions:
REMARK  status: ('A' for Active; 'I' for Inactive)
REMARK    1  A    between atoms: O_1  and  C_2
REMARK    2  A    between atoms: C_2  and  C_3
REMARK    3  A    between atoms: C_2  and  C_11
REMARK    4  A    between atoms: C_11  and  O_12
REMARK    5  A    between atoms: C_11  and  C_13
REMARK    6  A    between atoms: C_11  and  C_19
REMARK    7  A    between atoms: C_13  and  N_14
REMARK                            x       y       z     vdW  Elec       q    Type
REMARK                         _______ _______ _______ _____ _____    ______ ____
ROOT
ATOM      1  C   UNL     1       5.273   4.029  16.202  0.00  0.00    +0.000 C 
ENDROOT
BRANCH   1   2
ATOM      2  C   UNL     1       6.071   5.149  16.930  0.00  0.00    +0.000 A 
ATOM      3  C   UNL     1       7.010   4.826  17.941  0.00  0.00    +0.000 A 
ATOM      4  C   UNL     1       7.825   5.788  18.547  0.00  0.00    +0.000 A 
ATOM      5  C   UNL     1       7.720   7.114  18.171  0.00  0.00    +0.000 A 
ATOM      6 CL   UNL     1       8.751   8.291  18.882  0.00  0.00    +0.000 Cl
ATOM      7  C   UNL     1       6.789   7.489  17.211  0.00  0.00    +0.000 A 
ATOM      8  C   UNL     1       5.978   6.522  16.592  0.00  0.00    +0.000 A 
ATOM      9 CL   UNL     1       4.907   7.146  15.382  0.00  0.00    +0.000 Cl
ENDBRANCH   1   2
BRANCH   1  10
ATOM     10  O   UNL     1       6.244   2.948  16.150  0.00  0.00    +0.000 OA
ATOM     11  H   UNL     1       6.898   3.137  15.454  0.00  0.00    +0.000 HD
ENDBRANCH   1  10
BRANCH   1  12
ATOM     12  C   UNL     1       4.033   3.466  17.038  0.00  0.00    +0.000 C 
BRANCH  12  13
ATOM     13  C   UNL     1       3.448   4.372  18.130  0.00  0.00    +0.000 A 
ATOM     14  C   UNL     1       2.808   5.557  17.696  0.00  0.00    +0.000 A 
ATOM     15  C   UNL     1       2.170   6.419  18.590  0.00  0.00    +0.000 A 
ATOM     16  C   UNL     1       2.164   6.118  19.945  0.00  0.00    +0.000 A 
ATOM     17 CL   UNL     1       1.359   7.161  21.050  0.00  0.00    +0.000 Cl
ATOM     18  C   UNL     1       2.793   4.970  20.409  0.00  0.00    +0.000 A 
ATOM     19  C   UNL     1       3.428   4.100  19.511  0.00  0.00    +0.000 A 
ATOM     20 CL   UNL     1       4.114   2.677  20.198  0.00  0.00    +0.000 Cl
ENDBRANCH  12  13
BRANCH  12  21
ATOM     21  O   UNL     1       4.278   2.130  17.471  0.00  0.00    +0.000 OA
ATOM     22  H   UNL     1       3.625   1.528  17.076  0.00  0.00    +0.000 HD
ENDBRANCH  12  21
ENDBRANCH   1  12
BRANCH   1  23
ATOM     23  C   UNL     1       4.838   4.389  14.751  0.00  0.00    +0.000 C 
BRANCH  23  24
ATOM     24  N   UNL     1       5.662   4.027  13.623  0.00  0.00    +0.000 N 
ATOM     25  C   UNL     1       5.384   3.277  12.524  0.00  0.00    +0.000 A 
ATOM     26  N   UNL     1       6.408   3.302  11.699  0.00  0.00    +0.000 NA
ATOM     27  C   UNL     1       7.294   4.120  12.332  0.00  0.00    +0.000 A 
ATOM     28  N   UNL     1       6.872   4.613  13.499  0.00  0.00    +0.000 NA
ENDBRANCH  23  24
ENDBRANCH   1  23
TORSDOF 7
ENDMDL
MODEL 9
REMARK VINA RESULT:      -7.3      3.679      5.610
REMARK  Name = 
REMARK  7 active torsions:
REMARK  status: ('A' for Active; 'I' for Inactive)
REMARK    1  A    between atoms: O_1  and  C_2
REMARK    2  A    between atoms: C_2  and  C_3
REMARK    3  A    between atoms: C_2  and  C_11
REMARK    4  A    between atoms: C_11  and  O_12
REMARK    5  A    between atoms: C_11  and  C_13
REMARK    6  A    between atoms: C_11  and  C_19
REMARK    7  A    between atoms: C_13  and  N_14
REMARK                            x       y       z     vdW  Elec       q    Type
REMARK                         _______ _______ _______ _____ _____    ______ ____
ROOT
ATOM      1  C   UNL     1       5.802   4.449  17.598  0.00  0.00    +0.000 C 
ENDROOT
BRANCH   1   2
ATOM      2  C   UNL     1       6.483   5.837  17.774  0.00  0.00    +0.000 A 
ATOM      3  C   UNL     1       7.604   5.988  18.626  0.00  0.00    +0.000 A 
ATOM      4  C   UNL     1       8.313   7.189  18.733  0.00  0.00    +0.000 A 
ATOM      5  C   UNL     1       7.915   8.291  17.998  0.00  0.00    +0.000 A 
ATOM      6 CL   UNL     1       8.811   9.755  18.093  0.00  0.00    +0.000 Cl
ATOM      7  C   UNL     1       6.800   8.206  17.175  0.00  0.00    +0.000 A 
ATOM      8  C   UNL     1       6.094   6.996  17.057  0.00  0.00    +0.000 A 
ATOM      9 CL   UNL     1       4.760   7.043  15.952  0.00  0.00    +0.000 Cl
ENDBRANCH   1   2
BRANCH   1  10
ATOM     10  O   UNL     1       6.164   3.773  18.834  0.00  0.00    +0.000 OA
ATOM     11  H   UNL     1       5.911   4.330  19.591  0.00  0.00    +0.000 HD
ENDBRANCH   1  10
BRANCH   1  12
ATOM     12  C   UNL     1       4.205   4.507  17.581  0.00  0.00    +0.000 C 
BRANCH  12  13
ATOM     13  C   UNL     1       3.465   3.930  18.795  0.00  0.00    +0.000 A 
ATOM     14  C   UNL     1       2.952   4.861  19.728  0.00  0.00    +0.000 A 
ATOM     15  C   UNL     1       2.193   4.459  20.829  0.00  0.00    +0.000 A 
ATOM     16  C   UNL     1       1.934   3.110  21.026  0.00  0.00    +0.000 A 
ATOM     17 CL   UNL     1       0.979   2.608  22.366  0.00  0.00    +0.000 Cl
ATOM     18  C   UNL     1       2.431   2.166  20.137  0.00  0.00    +0.000 A 
ATOM     19  C   UNL     1       3.187   2.569  19.028  0.00  0.00    +0.000 A 
ATOM     20 CL   UNL     1       3.692   1.313  17.962  0.00  0.00    +0.000 Cl
ENDBRANCH  12  13
BRANCH  12  21
ATOM     21  O   UNL     1       3.694   4.055  16.329  0.00  0.00    +0.000 OA
ATOM     22  H   UNL     1       4.164   3.251  16.050  0.00  0.00    +0.000 HD
ENDBRANCH  12  21
ENDBRANCH   1  12
BRANCH   1  23
ATOM     23  C   UNL     1       6.334   3.620  16.393  0.00  0.00    +0.000 C 
BRANCH  23  24
ATOM     24  N   UNL     1       6.616   4.255  15.128  0.00  0.00    +0.000 N 
ATOM     25  C   UNL     1       7.636   5.069  14.751  0.00  0.00    +0.000 A 
ATOM     26  N   UNL     1       7.548   5.326  13.464  0.00  0.00    +0.000 NA
ATOM     27  C   UNL     1       6.455   4.607  13.082  0.00  0.00    +0.000 A 
ATOM     28  N   UNL     1       5.868   3.911  14.059  0.00  0.00    +0.000 NA
ENDBRANCH  23  24
ENDBRANCH   1  23
TORSDOF 7
ENDMDL
