MODEL 1
REMARK VINA RESULT:      -8.3      0.000      0.000
REMARK  Name = 
REMARK  5 active torsions:
REMARK  status: ('A' for Active; 'I' for Inactive)
REMARK    1  A    between atoms: C_1  and  O_2
REMARK    2  A    between atoms: O_2  and  C_3
REMARK    3  A    between atoms: C_7  and  C_8
REMARK    4  A    between atoms: C_9  and  S_10
REMARK    5  A    between atoms: S_10  and  C_13
REMARK                            x       y       z     vdW  Elec       q    Type
REMARK                         _______ _______ _______ _____ _____    ______ ____
ROOT
ATOM      1  C   UNL     1       3.249   5.498  18.717  0.00  0.00    +0.000 A 
ATOM      2  C   UNL     1       3.448   4.922  17.478  0.00  0.00    +0.000 A 
ATOM      3  C   UNL     1       2.370   4.252  16.937  0.00  0.00    +0.000 A 
ATOM      4  N   UNL     1       1.332   3.843  17.714  0.00  0.00    +0.000 NA
ATOM      5  C   UNL     1       1.566   3.824  19.045  0.00  0.00    +0.000 A 
ATOM      6  C   UNL     1       0.947   2.889  19.877  0.00  0.00    +0.000 A 
ATOM      7  F   UNL     1      -0.207   2.309  19.510  0.00  0.00    +0.000 F 
ATOM      8  C   UNL     1       1.605   2.387  20.996  0.00  0.00    +0.000 A 
ATOM      9  C   UNL     1       2.874   2.857  21.305  0.00  0.00    +0.000 A 
ATOM     10  C   UNL     1       3.386   3.963  20.617  0.00  0.00    +0.000 A 
ATOM     11  C   UNL     1       2.672   4.532  19.547  0.00  0.00    +0.000 A 
ENDROOT
BRANCH   1  16
ATOM     12  C   UNL     1       1.424   8.775  19.830  0.00  0.00    +0.000 A 
ATOM     13  C   UNL     1       1.504   9.548  18.669  0.00  0.00    +0.000 A 
ATOM     14  C   UNL     1       2.201   9.066  17.573  0.00  0.00    +0.000 A 
ATOM     15  C   UNL     1       2.782   7.798  17.613  0.00  0.00    +0.000 A 
ATOM     16  C   UNL     1       2.711   6.946  18.754  0.00  0.00    +0.000 A 
ATOM     17  C   UNL     1       2.042   7.504  19.879  0.00  0.00    +0.000 A 
BRANCH  12  19
ATOM     18  C   UNL     1      -0.221   8.643  21.584  0.00  0.00    +0.000 C 
ATOM     19  O   UNL     1       0.685   9.395  20.798  0.00  0.00    +0.000 OA
ENDBRANCH  12  19
ENDBRANCH   1  16
BRANCH   2  20
ATOM     20  S   UNL     1       4.979   5.087  16.638  0.00  0.00    +0.000 S 
ATOM     21  O   UNL     1       5.465   3.740  16.395  0.00  0.00    +0.000 OA
ATOM     22  O   UNL     1       4.735   5.982  15.528  0.00  0.00    +0.000 OA
BRANCH  20  23
ATOM     23  C   UNL     1       6.243   5.886  17.642  0.00  0.00    +0.000 A 
ATOM     24  C   UNL     1       6.906   5.216  18.678  0.00  0.00    +0.000 A 
ATOM     25  C   UNL     1       7.960   5.855  19.353  0.00  0.00    +0.000 A 
ATOM     26 CL   UNL     1       8.804   5.033  20.604  0.00  0.00    +0.000 Cl
ATOM     27  C   UNL     1       8.361   7.151  19.004  0.00  0.00    +0.000 A 
ATOM     28  C   UNL     1       7.697   7.804  17.972  0.00  0.00    +0.000 A 
ATOM     29 CL   UNL     1       8.200   9.388  17.513  0.00  0.00    +0.000 Cl
ATOM     30  C   UNL     1       6.645   7.187  17.293  0.00  0.00    +0.000 A 
ENDBRANCH  20  23
ENDBRANCH   2  20
TORSDOF 4
ENDMDL
MODEL 2
REMARK VINA RESULT:      -8.0      0.388      1.689
REMARK  Name = 
REMARK  5 active torsions:
REMARK  status: ('A' for Active; 'I' for Inactive)
REMARK    1  A    between atoms: C_1  and  O_2
REMARK    2  A    between atoms: O_2  and  C_3
REMARK    3  A    between atoms: C_7  and  C_8
REMARK    4  A    between atoms: C_9  and  S_10
REMARK    5  A    between atoms: S_10  and  C_13
REMARK                            x       y       z     vdW  Elec       q    Type
REMARK                         _______ _______ _______ _____ _____    ______ ____
ROOT
ATOM      1  C   UNL     1       3.478   5.316  18.571  0.00  0.00    +0.000 A 
ATOM      2  C   UNL     1       3.635   4.725  17.333  0.00  0.00    +0.000 A 
ATOM      3  C   UNL     1       2.533   4.068  16.827  0.00  0.00    +0.000 A 
ATOM      4  N   UNL     1       1.509   3.684  17.634  0.00  0.00    +0.000 NA
ATOM      5  C   UNL     1       1.777   3.673  18.959  0.00  0.00    +0.000 A 
ATOM      6  C   UNL     1       1.165   2.756  19.815  0.00  0.00    +0.000 A 
ATOM      7  F   UNL     1      -0.007   2.191  19.484  0.00  0.00    +0.000 F 
ATOM      8  C   UNL     1       1.844   2.253  20.921  0.00  0.00    +0.000 A 
ATOM      9  C   UNL     1       3.129   2.704  21.192  0.00  0.00    +0.000 A 
ATOM     10  C   UNL     1       3.640   3.795  20.481  0.00  0.00    +0.000 A 
ATOM     11  C   UNL     1       2.908   4.366  19.425  0.00  0.00    +0.000 A 
ENDROOT
BRANCH   1  16
ATOM     12  C   UNL     1       1.657   8.605  19.653  0.00  0.00    +0.000 A 
ATOM     13  C   UNL     1       1.810   9.398  18.513  0.00  0.00    +0.000 A 
ATOM     14  C   UNL     1       2.554   8.923  17.445  0.00  0.00    +0.000 A 
ATOM     15  C   UNL     1       3.109   7.644  17.490  0.00  0.00    +0.000 A 
ATOM     16  C   UNL     1       2.965   6.773  18.609  0.00  0.00    +0.000 A 
ATOM     17  C   UNL     1       2.249   7.322  19.709  0.00  0.00    +0.000 A 
BRANCH  12  19
ATOM     18  C   UNL     1       1.089   8.951  21.967  0.00  0.00    +0.000 C 
ATOM     19  O   UNL     1       0.880   9.221  20.594  0.00  0.00    +0.000 OA
ENDBRANCH  12  19
ENDBRANCH   1  16
BRANCH   2  20
ATOM     20  S   UNL     1       5.145   4.858  16.451  0.00  0.00    +0.000 S 
ATOM     21  O   UNL     1       5.653   3.505  16.293  0.00  0.00    +0.000 OA
ATOM     22  O   UNL     1       4.863   5.669  15.287  0.00  0.00    +0.000 OA
BRANCH  20  23
ATOM     23  C   UNL     1       6.414   5.747  17.370  0.00  0.00    +0.000 A 
ATOM     24  C   UNL     1       6.744   7.079  17.089  0.00  0.00    +0.000 A 
ATOM     25  C   UNL     1       7.662   7.755  17.910  0.00  0.00    +0.000 A 
ATOM     26 CL   UNL     1       8.051   9.399  17.595  0.00  0.00    +0.000 Cl
ATOM     27  C   UNL     1       8.251   7.118  19.009  0.00  0.00    +0.000 A 
ATOM     28  C   UNL     1       7.914   5.796  19.280  0.00  0.00    +0.000 A 
ATOM     29 CL   UNL     1       8.610   5.010  20.647  0.00  0.00    +0.000 Cl
ATOM     30  C   UNL     1       7.007   5.108  18.473  0.00  0.00    +0.000 A 
ENDBRANCH  20  23
ENDBRANCH   2  20
TORSDOF 4
ENDMDL
MODEL 3
REMARK VINA RESULT:      -8.0      4.029      7.103
REMARK  Name = 
REMARK  5 active torsions:
REMARK  status: ('A' for Active; 'I' for Inactive)
REMARK    1  A    between atoms: C_1  and  O_2
REMARK    2  A    between atoms: O_2  and  C_3
REMARK    3  A    between atoms: C_7  and  C_8
REMARK    4  A    between atoms: C_9  and  S_10
REMARK    5  A    between atoms: S_10  and  C_13
REMARK                            x       y       z     vdW  Elec       q    Type
REMARK                         _______ _______ _______ _____ _____    ______ ____
ROOT
ATOM      1  C   UNL     1       5.964   4.765  16.350  0.00  0.00    +0.000 A 
ATOM      2  C   UNL     1       4.675   5.060  16.748  0.00  0.00    +0.000 A 
ATOM      3  C   UNL     1       4.331   6.396  16.760  0.00  0.00    +0.000 A 
ATOM      4  N   UNL     1       5.281   7.368  16.772  0.00  0.00    +0.000 NA
ATOM      5  C   UNL     1       6.527   6.969  17.107  0.00  0.00    +0.000 A 
ATOM      6  C   UNL     1       7.406   7.820  17.779  0.00  0.00    +0.000 A 
ATOM      7  F   UNL     1       7.254   9.152  17.706  0.00  0.00    +0.000 F 
ATOM      8  C   UNL     1       8.323   7.316  18.697  0.00  0.00    +0.000 A 
ATOM      9  C   UNL     1       8.386   5.946  18.911  0.00  0.00    +0.000 A 
ATOM     10  C   UNL     1       7.683   5.083  18.063  0.00  0.00    +0.000 A 
ATOM     11  C   UNL     1       6.830   5.596  17.069  0.00  0.00    +0.000 A 
ENDROOT
BRANCH   1  16
ATOM     12  C   UNL     1       5.715   3.408  12.690  0.00  0.00    +0.000 A 
ATOM     13  C   UNL     1       6.874   3.936  12.115  0.00  0.00    +0.000 A 
ATOM     14  C   UNL     1       7.681   4.781  12.860  0.00  0.00    +0.000 A 
ATOM     15  C   UNL     1       7.363   5.066  14.188  0.00  0.00    +0.000 A 
ATOM     16  C   UNL     1       6.213   4.536  14.843  0.00  0.00    +0.000 A 
ATOM     17  C   UNL     1       5.377   3.725  14.026  0.00  0.00    +0.000 A 
BRANCH  12  19
ATOM     18  C   UNL     1       3.925   3.062  11.116  0.00  0.00    +0.000 C 
ATOM     19  O   UNL     1       5.054   2.583  11.822  0.00  0.00    +0.000 OA
ENDBRANCH  12  19
ENDBRANCH   1  16
BRANCH   2  20
ATOM     20  S   UNL     1       3.542   3.787  17.163  0.00  0.00    +0.000 S 
ATOM     21  O   UNL     1       2.512   3.798  16.138  0.00  0.00    +0.000 OA
ATOM     22  O   UNL     1       4.335   2.598  17.383  0.00  0.00    +0.000 OA
BRANCH  20  23
ATOM     23  C   UNL     1       2.683   4.096  18.717  0.00  0.00    +0.000 A 
ATOM     24  C   UNL     1       2.384   3.069  19.620  0.00  0.00    +0.000 A 
ATOM     25  C   UNL     1       1.813   3.385  20.865  0.00  0.00    +0.000 A 
ATOM     26 CL   UNL     1       1.471   2.137  21.996  0.00  0.00    +0.000 Cl
ATOM     27  C   UNL     1       1.540   4.713  21.217  0.00  0.00    +0.000 A 
ATOM     28  C   UNL     1       1.844   5.724  20.312  0.00  0.00    +0.000 A 
ATOM     29 CL   UNL     1       1.540   7.364  20.746  0.00  0.00    +0.000 Cl
ATOM     30  C   UNL     1       2.408   5.428  19.070  0.00  0.00    +0.000 A 
ENDBRANCH  20  23
ENDBRANCH   2  20
TORSDOF 4
ENDMDL
MODEL 4
REMARK VINA RESULT:      -7.9      3.217      6.064
REMARK  Name = 
REMARK  5 active torsions:
REMARK  status: ('A' for Active; 'I' for Inactive)
REMARK    1  A    between atoms: C_1  and  O_2
REMARK    2  A    between atoms: O_2  and  C_3
REMARK    3  A    between atoms: C_7  and  C_8
REMARK    4  A    between atoms: C_9  and  S_10
REMARK    5  A    between atoms: S_10  and  C_13
REMARK                            x       y       z     vdW  Elec       q    Type
REMARK                         _______ _______ _______ _____ _____    ______ ____
ROOT
ATOM      1  C   UNL     1       2.986   5.772  18.394  0.00  0.00    +0.000 A 
ATOM      2  C   UNL     1       2.422   6.814  19.102  0.00  0.00    +0.000 A 
ATOM      3  C   UNL     1       2.320   6.639  20.467  0.00  0.00    +0.000 A 
ATOM      4  N   UNL     1       2.392   5.402  21.026  0.00  0.00    +0.000 NA
ATOM      5  C   UNL     1       2.227   4.363  20.178  0.00  0.00    +0.000 A 
ATOM      6  C   UNL     1       1.639   3.168  20.599  0.00  0.00    +0.000 A 
ATOM      7  F   UNL     1       1.646   2.826  21.897  0.00  0.00    +0.000 F 
ATOM      8  C   UNL     1       0.860   2.413  19.727  0.00  0.00    +0.000 A 
ATOM      9  C   UNL     1       0.705   2.837  18.414  0.00  0.00    +0.000 A 
ATOM     10  C   UNL     1       1.489   3.891  17.934  0.00  0.00    +0.000 A 
ATOM     11  C   UNL     1       2.351   4.592  18.796  0.00  0.00    +0.000 A 
ENDROOT
BRANCH   1  16
ATOM     12  C   UNL     1       6.552   5.803  16.784  0.00  0.00    +0.000 A 
ATOM     13  C   UNL     1       7.360   5.523  17.888  0.00  0.00    +0.000 A 
ATOM     14  C   UNL     1       6.786   5.407  19.144  0.00  0.00    +0.000 A 
ATOM     15  C   UNL     1       5.404   5.525  19.297  0.00  0.00    +0.000 A 
ATOM     16  C   UNL     1       4.520   5.780  18.208  0.00  0.00    +0.000 A 
ATOM     17  C   UNL     1       5.155   5.956  16.947  0.00  0.00    +0.000 A 
BRANCH  12  19
ATOM     18  C   UNL     1       7.081   4.892  14.619  0.00  0.00    +0.000 C 
ATOM     19  O   UNL     1       7.280   5.862  15.629  0.00  0.00    +0.000 OA
ENDBRANCH  12  19
ENDBRANCH   1  16
BRANCH   2  20
ATOM     20  S   UNL     1       1.916   8.287  18.297  0.00  0.00    +0.000 S 
ATOM     21  O   UNL     1       3.122   8.920  17.792  0.00  0.00    +0.000 OA
ATOM     22  O   UNL     1       0.860   7.905  17.384  0.00  0.00    +0.000 OA
BRANCH  20  23
ATOM     23  C   UNL     1       1.177   9.482  19.425  0.00  0.00    +0.000 A 
ATOM     24  C   UNL     1       0.689   9.115  20.685  0.00  0.00    +0.000 A 
ATOM     25  C   UNL     1       0.225  10.107  21.565  0.00  0.00    +0.000 A 
ATOM     26 CL   UNL     1      -0.346   9.674  23.127  0.00  0.00    +0.000 Cl
ATOM     27  C   UNL     1       0.247  11.460  21.203  0.00  0.00    +0.000 A 
ATOM     28  C   UNL     1       0.735  11.812  19.950  0.00  0.00    +0.000 A 
ATOM     29 CL   UNL     1       0.794  13.476  19.503  0.00  0.00    +0.000 Cl
ATOM     30  C   UNL     1       1.196  10.839  19.061  0.00  0.00    +0.000 A 
ENDBRANCH  20  23
ENDBRANCH   2  20
TORSDOF 4
ENDMDL
MODEL 5
REMARK VINA RESULT:      -7.9      2.601      3.084
REMARK  Name = 
REMARK  5 active torsions:
REMARK  status: ('A' for Active; 'I' for Inactive)
REMARK    1  A    between atoms: C_1  and  O_2
REMARK    2  A    between atoms: O_2  and  C_3
REMARK    3  A    between atoms: C_7  and  C_8
REMARK    4  A    between atoms: C_9  and  S_10
REMARK    5  A    between atoms: S_10  and  C_13
REMARK                            x       y       z     vdW  Elec       q    Type
REMARK                         _______ _______ _______ _____ _____    ______ ____
ROOT
ATOM      1  C   UNL     1       3.375   5.548  19.021  0.00  0.00    +0.000 A 
ATOM      2  C   UNL     1       3.955   4.995  17.896  0.00  0.00    +0.000 A 
ATOM      3  C   UNL     1       3.118   4.277  17.068  0.00  0.00    +0.000 A 
ATOM      4  N   UNL     1       1.922   3.808  17.510  0.00  0.00    +0.000 NA
ATOM      5  C   UNL     1       1.758   3.786  18.851  0.00  0.00    +0.000 A 
ATOM      6  C   UNL     1       0.972   2.812  19.470  0.00  0.00    +0.000 A 
ATOM      7  F   UNL     1       0.008   2.178  18.785  0.00  0.00    +0.000 F 
ATOM      8  C   UNL     1       1.301   2.331  20.734  0.00  0.00    +0.000 A 
ATOM      9  C   UNL     1       2.399   2.861  21.398  0.00  0.00    +0.000 A 
ATOM     10  C   UNL     1       3.031   3.999  20.885  0.00  0.00    +0.000 A 
ATOM     11  C   UNL     1       2.632   4.543  19.651  0.00  0.00    +0.000 A 
ENDROOT
BRANCH   1  16
ATOM     12  C   UNL     1       1.347   8.820  19.720  0.00  0.00    +0.000 A 
ATOM     13  C   UNL     1       1.466   9.489  18.500  0.00  0.00    +0.000 A 
ATOM     14  C   UNL     1       2.250   8.945  17.495  0.00  0.00    +0.000 A 
ATOM     15  C   UNL     1       2.880   7.715  17.685  0.00  0.00    +0.000 A 
ATOM     16  C   UNL     1       2.775   6.965  18.894  0.00  0.00    +0.000 A 
ATOM     17  C   UNL     1       2.014   7.589  19.922  0.00  0.00    +0.000 A 
BRANCH  12  19
ATOM     18  C   UNL     1      -0.034   8.810  21.693  0.00  0.00    +0.000 C 
ATOM     19  O   UNL     1       0.524   9.488  20.583  0.00  0.00    +0.000 OA
ENDBRANCH  12  19
ENDBRANCH   1  16
BRANCH   2  20
ATOM     20  S   UNL     1       5.654   5.247  17.539  0.00  0.00    +0.000 S 
ATOM     21  O   UNL     1       5.903   6.670  17.695  0.00  0.00    +0.000 OA
ATOM     22  O   UNL     1       6.381   4.290  18.342  0.00  0.00    +0.000 OA
BRANCH  20  23
ATOM     23  C   UNL     1       6.071   4.867  15.828  0.00  0.00    +0.000 A 
ATOM     24  C   UNL     1       5.192   4.182  14.980  0.00  0.00    +0.000 A 
ATOM     25  C   UNL     1       5.526   4.011  13.626  0.00  0.00    +0.000 A 
ATOM     26 CL   UNL     1       4.441   3.201  12.568  0.00  0.00    +0.000 Cl
ATOM     27  C   UNL     1       6.724   4.518  13.109  0.00  0.00    +0.000 A 
ATOM     28  C   UNL     1       7.588   5.199  13.960  0.00  0.00    +0.000 A 
ATOM     29 CL   UNL     1       9.053   5.854  13.330  0.00  0.00    +0.000 Cl
ATOM     30  C   UNL     1       7.275   5.375  15.309  0.00  0.00    +0.000 A 
ENDBRANCH  20  23
ENDBRANCH   2  20
TORSDOF 4
ENDMDL
MODEL 6
REMARK VINA RESULT:      -7.9      3.236      6.286
REMARK  Name = 
REMARK  5 active torsions:
REMARK  status: ('A' for Active; 'I' for Inactive)
REMARK    1  A    between atoms: C_1  and  O_2
REMARK    2  A    between atoms: O_2  and  C_3
REMARK    3  A    between atoms: C_7  and  C_8
REMARK    4  A    between atoms: C_9  and  S_10
REMARK    5  A    between atoms: S_10  and  C_13
REMARK                            x       y       z     vdW  Elec       q    Type
REMARK                         _______ _______ _______ _____ _____    ______ ____
ROOT
ATOM      1  C   UNL     1       2.990   5.836  18.343  0.00  0.00    +0.000 A 
ATOM      2  C   UNL     1       2.429   6.909  19.007  0.00  0.00    +0.000 A 
ATOM      3  C   UNL     1       2.326   6.793  20.377  0.00  0.00    +0.000 A 
ATOM      4  N   UNL     1       2.393   5.580  20.988  0.00  0.00    +0.000 NA
ATOM      5  C   UNL     1       2.225   4.507  20.185  0.00  0.00    +0.000 A 
ATOM      6  C   UNL     1       1.632   3.334  20.657  0.00  0.00    +0.000 A 
ATOM      7  F   UNL     1       1.637   3.047  21.968  0.00  0.00    +0.000 F 
ATOM      8  C   UNL     1       0.850   2.545  19.817  0.00  0.00    +0.000 A 
ATOM      9  C   UNL     1       0.697   2.913  18.488  0.00  0.00    +0.000 A 
ATOM     10  C   UNL     1       1.485   3.943  17.963  0.00  0.00    +0.000 A 
ATOM     11  C   UNL     1       2.350   4.677  18.795  0.00  0.00    +0.000 A 
ENDROOT
BRANCH   1  16
ATOM     12  C   UNL     1       6.556   5.823  16.735  0.00  0.00    +0.000 A 
ATOM     13  C   UNL     1       7.362   5.547  17.842  0.00  0.00    +0.000 A 
ATOM     14  C   UNL     1       6.786   5.449  19.099  0.00  0.00    +0.000 A 
ATOM     15  C   UNL     1       5.406   5.579  19.250  0.00  0.00    +0.000 A 
ATOM     16  C   UNL     1       4.523   5.830  18.158  0.00  0.00    +0.000 A 
ATOM     17  C   UNL     1       5.161   5.988  16.896  0.00  0.00    +0.000 A 
BRANCH  12  19
ATOM     18  C   UNL     1       7.091   4.877  14.586  0.00  0.00    +0.000 C 
ATOM     19  O   UNL     1       7.285   5.865  15.579  0.00  0.00    +0.000 OA
ENDBRANCH  12  19
ENDBRANCH   1  16
BRANCH   2  20
ATOM     20  S   UNL     1       1.929   8.349  18.139  0.00  0.00    +0.000 S 
ATOM     21  O   UNL     1       3.122   8.890  17.511  0.00  0.00    +0.000 OA
ATOM     22  O   UNL     1       0.796   7.958  17.329  0.00  0.00    +0.000 OA
BRANCH  20  23
ATOM     23  C   UNL     1       1.324   9.648  19.231  0.00  0.00    +0.000 A 
ATOM     24  C   UNL     1       1.251  10.987  18.828  0.00  0.00    +0.000 A 
ATOM     25  C   UNL     1       0.668  11.938  19.683  0.00  0.00    +0.000 A 
ATOM     26 CL   UNL     1       0.543  13.578  19.188  0.00  0.00    +0.000 Cl
ATOM     27  C   UNL     1       0.154  11.565  20.931  0.00  0.00    +0.000 A 
ATOM     28  C   UNL     1       0.229  10.232  21.319  0.00  0.00    +0.000 A 
ATOM     29 CL   UNL     1      -0.426   9.757  22.841  0.00  0.00    +0.000 Cl
ATOM     30  C   UNL     1       0.809   9.275  20.484  0.00  0.00    +0.000 A 
ENDBRANCH  20  23
ENDBRANCH   2  20
TORSDOF 4
ENDMDL
MODEL 7
REMARK VINA RESULT:      -7.7      3.103      5.712
REMARK  Name = 
REMARK  5 active torsions:
REMARK  status: ('A' for Active; 'I' for Inactive)
REMARK    1  A    between atoms: C_1  and  O_2
REMARK    2  A    between atoms: O_2  and  C_3
REMARK    3  A    between atoms: C_7  and  C_8
REMARK    4  A    between atoms: C_9  and  S_10
REMARK    5  A    between atoms: S_10  and  C_13
REMARK                            x       y       z     vdW  Elec       q    Type
REMARK                         _______ _______ _______ _____ _____    ______ ____
ROOT
ATOM      1  C   UNL     1       2.945   5.385  17.881  0.00  0.00    +0.000 A 
ATOM      2  C   UNL     1       2.690   6.508  18.643  0.00  0.00    +0.000 A 
ATOM      3  C   UNL     1       3.001   6.417  19.984  0.00  0.00    +0.000 A 
ATOM      4  N   UNL     1       3.166   5.211  20.590  0.00  0.00    +0.000 NA
ATOM      5  C   UNL     1       2.686   4.144  19.914  0.00  0.00    +0.000 A 
ATOM      6  C   UNL     1       2.185   3.027  20.585  0.00  0.00    +0.000 A 
ATOM      7  F   UNL     1       2.568   2.758  21.843  0.00  0.00    +0.000 F 
ATOM      8  C   UNL     1       1.131   2.290  20.051  0.00  0.00    +0.000 A 
ATOM      9  C   UNL     1       0.607   2.652  18.818  0.00  0.00    +0.000 A 
ATOM     10  C   UNL     1       1.268   3.611  18.042  0.00  0.00    +0.000 A 
ATOM     11  C   UNL     1       2.394   4.286  18.547  0.00  0.00    +0.000 A 
ENDROOT
BRANCH   1  16
ATOM     12  C   UNL     1       6.579   6.172  16.664  0.00  0.00    +0.000 A 
ATOM     13  C   UNL     1       6.831   5.092  15.815  0.00  0.00    +0.000 A 
ATOM     14  C   UNL     1       5.888   4.083  15.695  0.00  0.00    +0.000 A 
ATOM     15  C   UNL     1       4.678   4.168  16.383  0.00  0.00    +0.000 A 
ATOM     16  C   UNL     1       4.345   5.258  17.241  0.00  0.00    +0.000 A 
ATOM     17  C   UNL     1       5.365   6.240  17.387  0.00  0.00    +0.000 A 
BRANCH  12  19
ATOM     18  C   UNL     1       7.768   7.981  17.720  0.00  0.00    +0.000 C 
ATOM     19  O   UNL     1       7.603   7.078  16.644  0.00  0.00    +0.000 OA
ENDBRANCH  12  19
ENDBRANCH   1  16
BRANCH   2  20
ATOM     20  S   UNL     1       2.051   7.970  17.916  0.00  0.00    +0.000 S 
ATOM     21  O   UNL     1       3.166   8.625  17.255  0.00  0.00    +0.000 OA
ATOM     22  O   UNL     1       0.889   7.567  17.155  0.00  0.00    +0.000 OA
BRANCH  20  23
ATOM     23  C   UNL     1       1.449   9.151  19.137  0.00  0.00    +0.000 A 
ATOM     24  C   UNL     1       1.138   8.775  20.449  0.00  0.00    +0.000 A 
ATOM     25  C   UNL     1       0.779   9.758  21.386  0.00  0.00    +0.000 A 
ATOM     26 CL   UNL     1       0.427   9.314  23.008  0.00  0.00    +0.000 Cl
ATOM     27  C   UNL     1       0.732  11.112  21.029  0.00  0.00    +0.000 A 
ATOM     28  C   UNL     1       1.045  11.473  19.723  0.00  0.00    +0.000 A 
ATOM     29 CL   UNL     1       1.018  13.139  19.279  0.00  0.00    +0.000 Cl
ATOM     30  C   UNL     1       1.399  10.509  18.778  0.00  0.00    +0.000 A 
ENDBRANCH  20  23
ENDBRANCH   2  20
TORSDOF 4
ENDMDL
MODEL 8
REMARK VINA RESULT:      -7.7      5.628      8.583
REMARK  Name = 
REMARK  5 active torsions:
REMARK  status: ('A' for Active; 'I' for Inactive)
REMARK    1  A    between atoms: C_1  and  O_2
REMARK    2  A    between atoms: O_2  and  C_3
REMARK    3  A    between atoms: C_7  and  C_8
REMARK    4  A    between atoms: C_9  and  S_10
REMARK    5  A    between atoms: S_10  and  C_13
REMARK                            x       y       z     vdW  Elec       q    Type
REMARK                         _______ _______ _______ _____ _____    ______ ____
ROOT
ATOM      1  C   UNL     1      -0.084  10.583  19.528  0.00  0.00    +0.000 A 
ATOM      2  C   UNL     1       0.824  11.619  19.437  0.00  0.00    +0.000 A 
ATOM      3  C   UNL     1       1.798  11.493  18.468  0.00  0.00    +0.000 A 
ATOM      4  N   UNL     1       2.093  10.286  17.918  0.00  0.00    +0.000 NA
ATOM      5  C   UNL     1       1.641   9.206  18.593  0.00  0.00    +0.000 A 
ATOM      6  C   UNL     1       2.342   7.998  18.583  0.00  0.00    +0.000 A 
ATOM      7  F   UNL     1       3.188   7.709  17.582  0.00  0.00    +0.000 F 
ATOM      8  C   UNL     1       2.341   7.166  19.699  0.00  0.00    +0.000 A 
ATOM      9  C   UNL     1       1.598   7.527  20.814  0.00  0.00    +0.000 A 
ATOM     10  C   UNL     1       0.709   8.604  20.731  0.00  0.00    +0.000 A 
ATOM     11  C   UNL     1       0.641   9.386  19.564  0.00  0.00    +0.000 A 
ENDROOT
BRANCH   1  16
ATOM     12  C   UNL     1      -2.643  10.150  16.601  0.00  0.00    +0.000 A 
ATOM     13  C   UNL     1      -3.632  11.070  16.955  0.00  0.00    +0.000 A 
ATOM     14  C   UNL     1      -3.527  11.759  18.153  0.00  0.00    +0.000 A 
ATOM     15  C   UNL     1      -2.418  11.569  18.977  0.00  0.00    +0.000 A 
ATOM     16  C   UNL     1      -1.358  10.669  18.660  0.00  0.00    +0.000 A 
ATOM     17  C   UNL     1      -1.535   9.934  17.454  0.00  0.00    +0.000 A 
BRANCH  12  19
ATOM     18  C   UNL     1      -3.704  10.260  14.442  0.00  0.00    +0.000 C 
ATOM     19  O   UNL     1      -2.897   9.580  15.384  0.00  0.00    +0.000 OA
ENDBRANCH  12  19
ENDBRANCH   1  16
BRANCH   2  20
ATOM     20  S   UNL     1       0.697  13.027  20.474  0.00  0.00    +0.000 S 
ATOM     21  O   UNL     1      -0.559  12.900  21.194  0.00  0.00    +0.000 OA
ATOM     22  O   UNL     1       1.945  13.108  21.201  0.00  0.00    +0.000 OA
BRANCH  20  23
ATOM     23  C   UNL     1       0.571  14.567  19.548  0.00  0.00    +0.000 A 
ATOM     24  C   UNL     1      -0.585  15.357  19.567  0.00  0.00    +0.000 A 
ATOM     25  C   UNL     1      -0.586  16.602  18.915  0.00  0.00    +0.000 A 
ATOM     26 CL   UNL     1      -1.988  17.595  18.958  0.00  0.00    +0.000 Cl
ATOM     27  C   UNL     1       0.554  17.067  18.248  0.00  0.00    +0.000 A 
ATOM     28  C   UNL     1       1.697  16.276  18.238  0.00  0.00    +0.000 A 
ATOM     29 CL   UNL     1       3.116  16.850  17.446  0.00  0.00    +0.000 Cl
ATOM     30  C   UNL     1       1.714  15.035  18.877  0.00  0.00    +0.000 A 
ENDBRANCH  20  23
ENDBRANCH   2  20
TORSDOF 4
ENDMDL
MODEL 9
REMARK VINA RESULT:      -7.6      5.689      8.495
REMARK  Name = 
REMARK  5 active torsions:
REMARK  status: ('A' for Active; 'I' for Inactive)
REMARK    1  A    between atoms: C_1  and  O_2
REMARK    2  A    between atoms: O_2  and  C_3
REMARK    3  A    between atoms: C_7  and  C_8
REMARK    4  A    between atoms: C_9  and  S_10
REMARK    5  A    between atoms: S_10  and  C_13
REMARK                            x       y       z     vdW  Elec       q    Type
REMARK                         _______ _______ _______ _____ _____    ______ ____
ROOT
ATOM      1  C   UNL     1       0.042  10.627  19.495  0.00  0.00    +0.000 A 
ATOM      2  C   UNL     1       0.977  11.637  19.382  0.00  0.00    +0.000 A 
ATOM      3  C   UNL     1       1.908  11.496  18.374  0.00  0.00    +0.000 A 
ATOM      4  N   UNL     1       2.145  10.288  17.797  0.00  0.00    +0.000 NA
ATOM      5  C   UNL     1       1.686   9.212  18.475  0.00  0.00    +0.000 A 
ATOM      6  C   UNL     1       2.349   7.985  18.422  0.00  0.00    +0.000 A 
ATOM      7  F   UNL     1       3.146   7.685  17.384  0.00  0.00    +0.000 F 
ATOM      8  C   UNL     1       2.366   7.137  19.526  0.00  0.00    +0.000 A 
ATOM      9  C   UNL     1       1.679   7.505  20.675  0.00  0.00    +0.000 A 
ATOM     10  C   UNL     1       0.820   8.609  20.640  0.00  0.00    +0.000 A 
ATOM     11  C   UNL     1       0.731   9.409  19.487  0.00  0.00    +0.000 A 
ENDROOT
BRANCH   1  16
ATOM     12  C   UNL     1      -3.600  11.550  18.405  0.00  0.00    +0.000 A 
ATOM     13  C   UNL     1      -3.754  10.771  17.256  0.00  0.00    +0.000 A 
ATOM     14  C   UNL     1      -2.685  10.025  16.787  0.00  0.00    +0.000 A 
ATOM     15  C   UNL     1      -1.476  10.016  17.484  0.00  0.00    +0.000 A 
ATOM     16  C   UNL     1      -1.262  10.764  18.679  0.00  0.00    +0.000 A 
ATOM     17  C   UNL     1      -2.363  11.566  19.090  0.00  0.00    +0.000 A 
BRANCH  12  19
ATOM     18  C   UNL     1      -5.964  11.474  18.858  0.00  0.00    +0.000 C 
ATOM     19  O   UNL     1      -4.757  12.201  18.731  0.00  0.00    +0.000 OA
ENDBRANCH  12  19
ENDBRANCH   1  16
BRANCH   2  20
ATOM     20  S   UNL     1       0.933  13.034  20.442  0.00  0.00    +0.000 S 
ATOM     21  O   UNL     1      -0.244  12.881  21.281  0.00  0.00    +0.000 OA
ATOM     22  O   UNL     1       2.245  13.127  21.042  0.00  0.00    +0.000 OA
BRANCH  20  23
ATOM     23  C   UNL     1       0.693  14.580  19.549  0.00  0.00    +0.000 A 
ATOM     24  C   UNL     1      -0.489  15.324  19.649  0.00  0.00    +0.000 A 
ATOM     25  C   UNL     1      -0.576  16.577  19.017  0.00  0.00    +0.000 A 
ATOM     26 CL   UNL     1      -2.008  17.515  19.159  0.00  0.00    +0.000 Cl
ATOM     27  C   UNL     1       0.505  17.095  18.291  0.00  0.00    +0.000 A 
ATOM     28  C   UNL     1       1.674  16.348  18.201  0.00  0.00    +0.000 A 
ATOM     29 CL   UNL     1       3.020  16.987  17.335  0.00  0.00    +0.000 Cl
ATOM     30  C   UNL     1       1.776  15.100  18.819  0.00  0.00    +0.000 A 
ENDBRANCH  20  23
ENDBRANCH   2  20
TORSDOF 4
ENDMDL
