MODEL 1
REMARK VINA RESULT:      -8.6      0.000      0.000
REMARK  Name = 
REMARK  7 active torsions:
REMARK  status: ('A' for Active; 'I' for Inactive)
REMARK    1  A    between atoms: C_1  and  C_2
REMARK    2  A    between atoms: C_6  and  C_7
REMARK    3  A    between atoms: C_7  and  C_8
REMARK    4  A    between atoms: C_8  and  N_9
REMARK    5  A    between atoms: C_10  and  C_12
REMARK    6  A    between atoms: C_12  and  C_13
REMARK    7  A    between atoms: C_13  and  N_14
REMARK                            x       y       z     vdW  Elec       q    Type
REMARK                         _______ _______ _______ _____ _____    ______ ____
ROOT
ATOM      1  C   UNL     1       4.172   5.369  19.675  0.00  0.00    +0.000 C 
ENDROOT
BRANCH   1   2
ATOM      2  C   UNL     1       2.662   5.473  19.294  0.00  0.00    +0.000 C 
ATOM      3  C   UNL     1       1.765   4.650  20.252  0.00  0.00    +0.000 C 
ATOM      4  C   UNL     1       1.880   3.195  19.804  0.00  0.00    +0.000 C 
ATOM      5  C   UNL     1       2.254   3.230  18.329  0.00  0.00    +0.000 C 
ATOM      6  C   UNL     1       2.414   4.702  17.967  0.00  0.00    +0.000 C 
BRANCH   2  12
ATOM      7  C   UNL     1       0.638   9.684  21.305  0.00  0.00    +0.000 C 
ATOM      8  C   UNL     1       1.268   8.986  20.134  0.00  0.00    +0.000 A 
ATOM      9  C   UNL     1       1.428   9.646  18.914  0.00  0.00    +0.000 A 
ATOM     10  C   UNL     1       1.991   8.978  17.830  0.00  0.00    +0.000 A 
ATOM     11  C   UNL     1       2.400   7.646  17.952  0.00  0.00    +0.000 A 
ATOM     12  C   UNL     1       2.258   6.952  19.163  0.00  0.00    +0.000 A 
ATOM     13  C   UNL     1       1.681   7.648  20.246  0.00  0.00    +0.000 A 
ENDBRANCH   2  12
ENDBRANCH   1   2
BRANCH   1  14
ATOM     14  N   UNL     1       5.086   5.081  18.576  0.00  0.00    +0.000 N 
ATOM     15  C   UNL     1       6.454   5.117  18.774  0.00  0.00    +0.000 C 
ATOM     16  O   UNL     1       6.975   5.371  19.854  0.00  0.00    +0.000 OA
ATOM     17  H   UNL     1       4.746   5.163  17.626  0.00  0.00    +0.000 HD
BRANCH  15  18
ATOM     18  C   UNL     1       7.249   4.791  17.530  0.00  0.00    +0.000 C 
BRANCH  18  19
ATOM     19  C   UNL     1       6.909   5.754  16.396  0.00  0.00    +0.000 C 
BRANCH  19  20
ATOM     20  N   UNL     1       6.582   5.054  15.161  0.00  0.00    +0.000 N 
ATOM     21  C   UNL     1       5.531   4.194  15.024  0.00  0.00    +0.000 C 
ATOM     22  O   UNL     1       4.727   3.876  15.887  0.00  0.00    +0.000 OA
ATOM     23  C   UNL     1       5.522   3.655  13.623  0.00  0.00    +0.000 C 
ATOM     24  C   UNL     1       6.718   4.307  12.956  0.00  0.00    +0.000 C 
ATOM     25  C   UNL     1       7.352   5.129  14.038  0.00  0.00    +0.000 C 
ATOM     26  O   UNL     1       8.395   5.744  13.907  0.00  0.00    +0.000 OA
ENDBRANCH  19  20
ENDBRANCH  18  19
ENDBRANCH  15  18
ENDBRANCH   1  14
TORSDOF 6
ENDMDL
MODEL 2
REMARK VINA RESULT:      -8.3      2.591      7.389
REMARK  Name = 
REMARK  7 active torsions:
REMARK  status: ('A' for Active; 'I' for Inactive)
REMARK    1  A    between atoms: C_1  and  C_2
REMARK    2  A    between atoms: C_6  and  C_7
REMARK    3  A    between atoms: C_7  and  C_8
REMARK    4  A    between atoms: C_8  and  N_9
REMARK    5  A    between atoms: C_10  and  C_12
REMARK    6  A    between atoms: C_12  and  C_13
REMARK    7  A    between atoms: C_13  and  N_14
REMARK                            x       y       z     vdW  Elec       q    Type
REMARK                         _______ _______ _______ _____ _____    ______ ____
ROOT
ATOM      1  C   UNL     1       5.006   4.666  16.338  0.00  0.00    +0.000 C 
ENDROOT
BRANCH   1   2
ATOM      2  C   UNL     1       6.475   5.032  15.956  0.00  0.00    +0.000 C 
ATOM      3  C   UNL     1       7.504   4.342  16.885  0.00  0.00    +0.000 C 
ATOM      4  C   UNL     1       7.531   5.157  18.176  0.00  0.00    +0.000 C 
ATOM      5  C   UNL     1       7.084   6.563  17.804  0.00  0.00    +0.000 C 
ATOM      6  C   UNL     1       6.742   6.520  16.319  0.00  0.00    +0.000 C 
BRANCH   2  12
ATOM      7  C   UNL     1       5.422   2.418  11.722  0.00  0.00    +0.000 C 
ATOM      8  C   UNL     1       6.202   3.501  12.410  0.00  0.00    +0.000 A 
ATOM      9  C   UNL     1       7.174   4.226  11.720  0.00  0.00    +0.000 A 
ATOM     10  C   UNL     1       7.906   5.211  12.379  0.00  0.00    +0.000 A 
ATOM     11  C   UNL     1       7.675   5.481  13.731  0.00  0.00    +0.000 A 
ATOM     12  C   UNL     1       6.703   4.774  14.457  0.00  0.00    +0.000 A 
ATOM     13  C   UNL     1       5.978   3.779  13.769  0.00  0.00    +0.000 A 
ENDBRANCH   2  12
ENDBRANCH   1   2
BRANCH   1  14
ATOM     14  N   UNL     1       4.854   3.621  17.343  0.00  0.00    +0.000 N 
ATOM     15  C   UNL     1       3.649   2.958  17.488  0.00  0.00    +0.000 C 
ATOM     16  O   UNL     1       2.663   3.186  16.797  0.00  0.00    +0.000 OA
ATOM     17  H   UNL     1       5.501   3.595  18.121  0.00  0.00    +0.000 HD
BRANCH  15  18
ATOM     18  C   UNL     1       3.670   1.906  18.574  0.00  0.00    +0.000 C 
BRANCH  18  19
ATOM     19  C   UNL     1       3.827   2.546  19.952  0.00  0.00    +0.000 C 
BRANCH  19  20
ATOM     20  N   UNL     1       2.911   3.663  20.145  0.00  0.00    +0.000 N 
ATOM     21  C   UNL     1       3.267   4.975  20.019  0.00  0.00    +0.000 C 
ATOM     22  O   UNL     1       4.374   5.410  19.743  0.00  0.00    +0.000 OA
ATOM     23  C   UNL     1       2.070   5.833  20.307  0.00  0.00    +0.000 C 
ATOM     24  C   UNL     1       0.962   4.849  20.630  0.00  0.00    +0.000 C 
ATOM     25  C   UNL     1       1.620   3.504  20.553  0.00  0.00    +0.000 C 
ATOM     26  O   UNL     1       1.065   2.455  20.831  0.00  0.00    +0.000 OA
ENDBRANCH  19  20
ENDBRANCH  18  19
ENDBRANCH  15  18
ENDBRANCH   1  14
TORSDOF 6
ENDMDL
MODEL 3
REMARK VINA RESULT:      -8.3      0.754      1.700
REMARK  Name = 
REMARK  7 active torsions:
REMARK  status: ('A' for Active; 'I' for Inactive)
REMARK    1  A    between atoms: C_1  and  C_2
REMARK    2  A    between atoms: C_6  and  C_7
REMARK    3  A    between atoms: C_7  and  C_8
REMARK    4  A    between atoms: C_8  and  N_9
REMARK    5  A    between atoms: C_10  and  C_12
REMARK    6  A    between atoms: C_12  and  C_13
REMARK    7  A    between atoms: C_13  and  N_14
REMARK                            x       y       z     vdW  Elec       q    Type
REMARK                         _______ _______ _______ _____ _____    ______ ____
ROOT
ATOM      1  C   UNL     1       4.038   4.338  19.618  0.00  0.00    +0.000 C 
ENDROOT
BRANCH   1   2
ATOM      2  C   UNL     1       2.504   4.610  19.521  0.00  0.00    +0.000 C 
ATOM      3  C   UNL     1       1.716   3.892  20.645  0.00  0.00    +0.000 C 
ATOM      4  C   UNL     1       1.586   2.433  20.213  0.00  0.00    +0.000 C 
ATOM      5  C   UNL     1       1.680   2.427  18.694  0.00  0.00    +0.000 C 
ATOM      6  C   UNL     1       1.930   3.873  18.279  0.00  0.00    +0.000 C 
BRANCH   2  12
ATOM      7  C   UNL     1       1.030   8.958  21.711  0.00  0.00    +0.000 C 
ATOM      8  C   UNL     1       1.524   8.227  20.496  0.00  0.00    +0.000 A 
ATOM      9  C   UNL     1       1.686   8.895  19.281  0.00  0.00    +0.000 A 
ATOM     10  C   UNL     1       2.120   8.197  18.156  0.00  0.00    +0.000 A 
ATOM     11  C   UNL     1       2.396   6.828  18.233  0.00  0.00    +0.000 A 
ATOM     12  C   UNL     1       2.247   6.125  19.438  0.00  0.00    +0.000 A 
ATOM     13  C   UNL     1       1.802   6.851  20.563  0.00  0.00    +0.000 A 
ENDBRANCH   2  12
ENDBRANCH   1   2
BRANCH   1  14
ATOM     14  N   UNL     1       4.848   4.873  18.531  0.00  0.00    +0.000 N 
ATOM     15  C   UNL     1       6.121   5.355  18.776  0.00  0.00    +0.000 C 
ATOM     16  O   UNL     1       6.643   5.354  19.885  0.00  0.00    +0.000 OA
ATOM     17  H   UNL     1       4.386   5.177  17.683  0.00  0.00    +0.000 HD
BRANCH  15  18
ATOM     18  C   UNL     1       6.817   5.869  17.536  0.00  0.00    +0.000 C 
BRANCH  18  19
ATOM     19  C   UNL     1       7.522   4.734  16.796  0.00  0.00    +0.000 C 
BRANCH  19  20
ATOM     20  N   UNL     1       6.899   4.448  15.511  0.00  0.00    +0.000 N 
ATOM     21  C   UNL     1       7.334   4.952  14.319  0.00  0.00    +0.000 C 
ATOM     22  O   UNL     1       8.279   5.706  14.145  0.00  0.00    +0.000 OA
ATOM     23  C   UNL     1       6.438   4.453  13.223  0.00  0.00    +0.000 C 
ATOM     24  C   UNL     1       5.409   3.594  13.932  0.00  0.00    +0.000 C 
ATOM     25  C   UNL     1       5.760   3.707  15.385  0.00  0.00    +0.000 C 
ATOM     26  O   UNL     1       5.106   3.214  16.287  0.00  0.00    +0.000 OA
ENDBRANCH  19  20
ENDBRANCH  18  19
ENDBRANCH  15  18
ENDBRANCH   1  14
TORSDOF 6
ENDMDL
MODEL 4
REMARK VINA RESULT:      -8.2      2.682      7.248
REMARK  Name = 
REMARK  7 active torsions:
REMARK  status: ('A' for Active; 'I' for Inactive)
REMARK    1  A    between atoms: C_1  and  C_2
REMARK    2  A    between atoms: C_6  and  C_7
REMARK    3  A    between atoms: C_7  and  C_8
REMARK    4  A    between atoms: C_8  and  N_9
REMARK    5  A    between atoms: C_10  and  C_12
REMARK    6  A    between atoms: C_12  and  C_13
REMARK    7  A    between atoms: C_13  and  N_14
REMARK                            x       y       z     vdW  Elec       q    Type
REMARK                         _______ _______ _______ _____ _____    ______ ____
ROOT
ATOM      1  C   UNL     1       4.754   4.429  16.181  0.00  0.00    +0.000 C 
ENDROOT
BRANCH   1   2
ATOM      2  C   UNL     1       6.183   4.958  15.845  0.00  0.00    +0.000 C 
ATOM      3  C   UNL     1       7.247   4.424  16.837  0.00  0.00    +0.000 C 
ATOM      4  C   UNL     1       7.120   5.273  18.100  0.00  0.00    +0.000 C 
ATOM      5  C   UNL     1       6.525   6.603  17.663  0.00  0.00    +0.000 C 
ATOM      6  C   UNL     1       6.256   6.477  16.168  0.00  0.00    +0.000 C 
BRANCH   2  12
ATOM      7  C   UNL     1       5.342   2.359  11.555  0.00  0.00    +0.000 C 
ATOM      8  C   UNL     1       6.106   3.421  12.292  0.00  0.00    +0.000 A 
ATOM      9  C   UNL     1       7.145   4.112  11.669  0.00  0.00    +0.000 A 
ATOM     10  C   UNL     1       7.861   5.077  12.374  0.00  0.00    +0.000 A 
ATOM     11  C   UNL     1       7.547   5.360  13.707  0.00  0.00    +0.000 A 
ATOM     12  C   UNL     1       6.506   4.687  14.366  0.00  0.00    +0.000 A 
ATOM     13  C   UNL     1       5.798   3.711  13.633  0.00  0.00    +0.000 A 
ENDBRANCH   2  12
ENDBRANCH   1   2
BRANCH   1  14
ATOM     14  N   UNL     1       4.681   3.418  17.229  0.00  0.00    +0.000 N 
ATOM     15  C   UNL     1       3.482   2.793  17.517  0.00  0.00    +0.000 C 
ATOM     16  O   UNL     1       2.436   3.028  16.924  0.00  0.00    +0.000 OA
ATOM     17  H   UNL     1       5.404   3.398  17.936  0.00  0.00    +0.000 HD
BRANCH  15  18
ATOM     18  C   UNL     1       3.590   1.772  18.628  0.00  0.00    +0.000 C 
BRANCH  18  19
ATOM     19  C   UNL     1       3.799   2.454  19.978  0.00  0.00    +0.000 C 
BRANCH  19  20
ATOM     20  N   UNL     1       2.860   3.547  20.192  0.00  0.00    +0.000 N 
ATOM     21  C   UNL     1       1.531   3.374  20.451  0.00  0.00    +0.000 C 
ATOM     22  O   UNL     1       0.933   2.313  20.534  0.00  0.00    +0.000 OA
ATOM     23  C   UNL     1       0.884   4.721  20.595  0.00  0.00    +0.000 C 
ATOM     24  C   UNL     1       2.011   5.712  20.376  0.00  0.00    +0.000 C 
ATOM     25  C   UNL     1       3.207   4.860  20.071  0.00  0.00    +0.000 C 
ATOM     26  O   UNL     1       4.298   5.302  19.756  0.00  0.00    +0.000 OA
ENDBRANCH  19  20
ENDBRANCH  18  19
ENDBRANCH  15  18
ENDBRANCH   1  14
TORSDOF 6
ENDMDL
MODEL 5
REMARK VINA RESULT:      -8.2      0.827      3.792
REMARK  Name = 
REMARK  7 active torsions:
REMARK  status: ('A' for Active; 'I' for Inactive)
REMARK    1  A    between atoms: C_1  and  C_2
REMARK    2  A    between atoms: C_6  and  C_7
REMARK    3  A    between atoms: C_7  and  C_8
REMARK    4  A    between atoms: C_8  and  N_9
REMARK    5  A    between atoms: C_10  and  C_12
REMARK    6  A    between atoms: C_12  and  C_13
REMARK    7  A    between atoms: C_13  and  N_14
REMARK                            x       y       z     vdW  Elec       q    Type
REMARK                         _______ _______ _______ _____ _____    ______ ____
ROOT
ATOM      1  C   UNL     1       4.161   6.332  19.404  0.00  0.00    +0.000 C 
ENDROOT
BRANCH   1   2
ATOM      2  C   UNL     1       2.641   6.290  19.054  0.00  0.00    +0.000 C 
ATOM      3  C   UNL     1       2.349   6.912  17.666  0.00  0.00    +0.000 C 
ATOM      4  C   UNL     1       2.364   8.427  17.862  0.00  0.00    +0.000 C 
ATOM      5  C   UNL     1       2.020   8.671  19.324  0.00  0.00    +0.000 C 
ATOM      6  C   UNL     1       1.878   7.295  19.962  0.00  0.00    +0.000 C 
BRANCH   2  12
ATOM      7  C   UNL     1       1.373   2.400  22.075  0.00  0.00    +0.000 C 
ATOM      8  C   UNL     1       1.500   2.973  20.694  0.00  0.00    +0.000 A 
ATOM      9  C   UNL     1       1.201   2.198  19.572  0.00  0.00    +0.000 A 
ATOM     10  C   UNL     1       1.349   2.736  18.295  0.00  0.00    +0.000 A 
ATOM     11  C   UNL     1       1.797   4.050  18.126  0.00  0.00    +0.000 A 
ATOM     12  C   UNL     1       2.104   4.860  19.231  0.00  0.00    +0.000 A 
ATOM     13  C   UNL     1       1.951   4.292  20.514  0.00  0.00    +0.000 A 
ENDBRANCH   2  12
ENDBRANCH   1   2
BRANCH   1  14
ATOM     14  N   UNL     1       5.060   5.784  18.395  0.00  0.00    +0.000 N 
ATOM     15  C   UNL     1       6.323   5.344  18.747  0.00  0.00    +0.000 C 
ATOM     16  O   UNL     1       6.755   5.371  19.893  0.00  0.00    +0.000 OA
ATOM     17  H   UNL     1       4.894   6.007  17.422  0.00  0.00    +0.000 HD
BRANCH  15  18
ATOM     18  C   UNL     1       7.118   4.806  17.578  0.00  0.00    +0.000 C 
BRANCH  18  19
ATOM     19  C   UNL     1       7.009   5.733  16.370  0.00  0.00    +0.000 C 
BRANCH  19  20
ATOM     20  N   UNL     1       6.632   5.015  15.160  0.00  0.00    +0.000 N 
ATOM     21  C   UNL     1       7.348   5.044  13.998  0.00  0.00    +0.000 C 
ATOM     22  O   UNL     1       8.381   5.661  13.789  0.00  0.00    +0.000 OA
ATOM     23  C   UNL     1       6.645   4.203  12.973  0.00  0.00    +0.000 C 
ATOM     24  C   UNL     1       5.411   3.683  13.685  0.00  0.00    +0.000 C 
ATOM     25  C   UNL     1       5.472   4.307  15.047  0.00  0.00    +0.000 C 
ATOM     26  O   UNL     1       4.602   4.189  15.892  0.00  0.00    +0.000 OA
ENDBRANCH  19  20
ENDBRANCH  18  19
ENDBRANCH  15  18
ENDBRANCH   1  14
TORSDOF 6
ENDMDL
MODEL 6
REMARK VINA RESULT:      -8.1      1.595      2.687
REMARK  Name = 
REMARK  7 active torsions:
REMARK  status: ('A' for Active; 'I' for Inactive)
REMARK    1  A    between atoms: C_1  and  C_2
REMARK    2  A    between atoms: C_6  and  C_7
REMARK    3  A    between atoms: C_7  and  C_8
REMARK    4  A    between atoms: C_8  and  N_9
REMARK    5  A    between atoms: C_10  and  C_12
REMARK    6  A    between atoms: C_12  and  C_13
REMARK    7  A    between atoms: C_13  and  N_14
REMARK                            x       y       z     vdW  Elec       q    Type
REMARK                         _______ _______ _______ _____ _____    ______ ____
ROOT
ATOM      1  C   UNL     1       3.735   4.325  19.561  0.00  0.00    +0.000 C 
ENDROOT
BRANCH   1   2
ATOM      2  C   UNL     1       2.250   4.712  19.846  0.00  0.00    +0.000 C 
ATOM      3  C   UNL     1       1.759   4.161  21.207  0.00  0.00    +0.000 C 
ATOM      4  C   UNL     1       1.435   2.685  20.981  0.00  0.00    +0.000 C 
ATOM      5  C   UNL     1       1.113   2.541  19.501  0.00  0.00    +0.000 C 
ATOM      6  C   UNL     1       1.321   3.919  18.885  0.00  0.00    +0.000 C 
BRANCH   2  12
ATOM      7  C   UNL     1       0.846   9.222  21.732  0.00  0.00    +0.000 C 
ATOM      8  C   UNL     1       1.375   8.411  20.584  0.00  0.00    +0.000 A 
ATOM      9  C   UNL     1       1.636   9.009  19.350  0.00  0.00    +0.000 A 
ATOM     10  C   UNL     1       2.102   8.238  18.288  0.00  0.00    +0.000 A 
ATOM     11  C   UNL     1       2.313   6.864  18.447  0.00  0.00    +0.000 A 
ATOM     12  C   UNL     1       2.066   6.230  19.674  0.00  0.00    +0.000 A 
ATOM     13  C   UNL     1       1.589   7.030  20.734  0.00  0.00    +0.000 A 
ENDBRANCH   2  12
ENDBRANCH   1   2
BRANCH   1  14
ATOM     14  N   UNL     1       4.208   4.574  18.204  0.00  0.00    +0.000 N 
ATOM     15  C   UNL     1       4.397   3.524  17.324  0.00  0.00    +0.000 C 
ATOM     16  O   UNL     1       4.175   2.353  17.609  0.00  0.00    +0.000 OA
ATOM     17  H   UNL     1       4.684   5.444  18.007  0.00  0.00    +0.000 HD
BRANCH  15  18
ATOM     18  C   UNL     1       4.886   3.964  15.962  0.00  0.00    +0.000 C 
BRANCH  18  19
ATOM     19  C   UNL     1       6.402   4.151  15.961  0.00  0.00    +0.000 C 
BRANCH  19  20
ATOM     20  N   UNL     1       6.810   5.325  16.722  0.00  0.00    +0.000 N 
ATOM     21  C   UNL     1       7.589   5.279  17.842  0.00  0.00    +0.000 C 
ATOM     22  O   UNL     1       8.047   4.280  18.375  0.00  0.00    +0.000 OA
ATOM     23  C   UNL     1       7.783   6.675  18.357  0.00  0.00    +0.000 C 
ATOM     24  C   UNL     1       7.004   7.550  17.394  0.00  0.00    +0.000 C 
ATOM     25  C   UNL     1       6.379   6.585  16.431  0.00  0.00    +0.000 C 
ATOM     26  O   UNL     1       5.605   6.908  15.547  0.00  0.00    +0.000 OA
ENDBRANCH  19  20
ENDBRANCH  18  19
ENDBRANCH  15  18
ENDBRANCH   1  14
TORSDOF 6
ENDMDL
MODEL 7
REMARK VINA RESULT:      -8.0      2.159      7.332
REMARK  Name = 
REMARK  7 active torsions:
REMARK  status: ('A' for Active; 'I' for Inactive)
REMARK    1  A    between atoms: C_1  and  C_2
REMARK    2  A    between atoms: C_6  and  C_7
REMARK    3  A    between atoms: C_7  and  C_8
REMARK    4  A    between atoms: C_8  and  N_9
REMARK    5  A    between atoms: C_10  and  C_12
REMARK    6  A    between atoms: C_12  and  C_13
REMARK    7  A    between atoms: C_13  and  N_14
REMARK                            x       y       z     vdW  Elec       q    Type
REMARK                         _______ _______ _______ _____ _____    ______ ____
ROOT
ATOM      1  C   UNL     1       5.146   4.008  16.569  0.00  0.00    +0.000 C 
ENDROOT
BRANCH   1   2
ATOM      2  C   UNL     1       6.409   4.813  16.129  0.00  0.00    +0.000 C 
ATOM      3  C   UNL     1       7.643   4.477  17.003  0.00  0.00    +0.000 C 
ATOM      4  C   UNL     1       7.473   5.261  18.303  0.00  0.00    +0.000 C 
ATOM      5  C   UNL     1       6.595   6.458  17.969  0.00  0.00    +0.000 C 
ATOM      6  C   UNL     1       6.217   6.310  16.500  0.00  0.00    +0.000 C 
BRANCH   2  12
ATOM      7  C   UNL     1       5.281   2.509  11.737  0.00  0.00    +0.000 C 
ATOM      8  C   UNL     1       6.100   3.515  12.494  0.00  0.00    +0.000 A 
ATOM      9  C   UNL     1       7.107   4.239  11.855  0.00  0.00    +0.000 A 
ATOM     10  C   UNL     1       7.875   5.150  12.577  0.00  0.00    +0.000 A 
ATOM     11  C   UNL     1       7.645   5.346  13.943  0.00  0.00    +0.000 A 
ATOM     12  C   UNL     1       6.638   4.638  14.618  0.00  0.00    +0.000 A 
ATOM     13  C   UNL     1       5.877   3.718  13.867  0.00  0.00    +0.000 A 
ENDBRANCH   2  12
ENDBRANCH   1   2
BRANCH   1  14
ATOM     14  N   UNL     1       4.125   4.767  17.280  0.00  0.00    +0.000 N 
ATOM     15  C   UNL     1       3.022   4.128  17.816  0.00  0.00    +0.000 C 
ATOM     16  O   UNL     1       2.839   2.919  17.744  0.00  0.00    +0.000 OA
ATOM     17  H   UNL     1       4.058   5.764  17.117  0.00  0.00    +0.000 HD
BRANCH  15  18
ATOM     18  C   UNL     1       2.068   5.067  18.520  0.00  0.00    +0.000 C 
BRANCH  18  19
ATOM     19  C   UNL     1       2.829   6.140  19.295  0.00  0.00    +0.000 C 
BRANCH  19  20
ATOM     20  N   UNL     1       2.281   7.471  19.072  0.00  0.00    +0.000 N 
ATOM     21  C   UNL     1       2.489   8.205  17.940  0.00  0.00    +0.000 C 
ATOM     22  O   UNL     1       3.154   7.880  16.968  0.00  0.00    +0.000 OA
ATOM     23  C   UNL     1       1.785   9.523  18.078  0.00  0.00    +0.000 C 
ATOM     24  C   UNL     1       1.141   9.470  19.451  0.00  0.00    +0.000 C 
ATOM     25  C   UNL     1       1.568   8.149  20.016  0.00  0.00    +0.000 C 
ATOM     26  O   UNL     1       1.312   7.775  21.147  0.00  0.00    +0.000 OA
ENDBRANCH  19  20
ENDBRANCH  18  19
ENDBRANCH  15  18
ENDBRANCH   1  14
TORSDOF 6
ENDMDL
MODEL 8
REMARK VINA RESULT:      -7.9      2.205      7.234
REMARK  Name = 
REMARK  7 active torsions:
REMARK  status: ('A' for Active; 'I' for Inactive)
REMARK    1  A    between atoms: C_1  and  C_2
REMARK    2  A    between atoms: C_6  and  C_7
REMARK    3  A    between atoms: C_7  and  C_8
REMARK    4  A    between atoms: C_8  and  N_9
REMARK    5  A    between atoms: C_10  and  C_12
REMARK    6  A    between atoms: C_12  and  C_13
REMARK    7  A    between atoms: C_13  and  N_14
REMARK                            x       y       z     vdW  Elec       q    Type
REMARK                         _______ _______ _______ _____ _____    ______ ____
ROOT
ATOM      1  C   UNL     1       5.090   4.015  16.553  0.00  0.00    +0.000 C 
ENDROOT
BRANCH   1   2
ATOM      2  C   UNL     1       6.354   4.817  16.113  0.00  0.00    +0.000 C 
ATOM      3  C   UNL     1       7.588   4.478  16.987  0.00  0.00    +0.000 C 
ATOM      4  C   UNL     1       7.420   5.261  18.288  0.00  0.00    +0.000 C 
ATOM      5  C   UNL     1       6.544   6.460  17.955  0.00  0.00    +0.000 C 
ATOM      6  C   UNL     1       6.166   6.314  16.486  0.00  0.00    +0.000 C 
BRANCH   2  12
ATOM      7  C   UNL     1       5.213   2.528  11.717  0.00  0.00    +0.000 C 
ATOM      8  C   UNL     1       6.037   3.526  12.477  0.00  0.00    +0.000 A 
ATOM      9  C   UNL     1       7.049   4.245  11.839  0.00  0.00    +0.000 A 
ATOM     10  C   UNL     1       7.822   5.150  12.562  0.00  0.00    +0.000 A 
ATOM     11  C   UNL     1       7.594   5.346  13.928  0.00  0.00    +0.000 A 
ATOM     12  C   UNL     1       6.582   4.643  14.602  0.00  0.00    +0.000 A 
ATOM     13  C   UNL     1       5.815   3.729  13.850  0.00  0.00    +0.000 A 
ENDBRANCH   2  12
ENDBRANCH   1   2
BRANCH   1  14
ATOM     14  N   UNL     1       4.163   4.720  17.431  0.00  0.00    +0.000 N 
ATOM     15  C   UNL     1       2.859   4.282  17.570  0.00  0.00    +0.000 C 
ATOM     16  O   UNL     1       2.410   3.298  16.995  0.00  0.00    +0.000 OA
ATOM     17  H   UNL     1       4.368   5.678  17.685  0.00  0.00    +0.000 HD
BRANCH  15  18
ATOM     18  C   UNL     1       2.040   5.128  18.519  0.00  0.00    +0.000 C 
BRANCH  18  19
ATOM     19  C   UNL     1       2.907   6.193  19.188  0.00  0.00    +0.000 C 
BRANCH  19  20
ATOM     20  N   UNL     1       2.327   7.524  19.072  0.00  0.00    +0.000 N 
ATOM     21  C   UNL     1       1.547   8.105  20.030  0.00  0.00    +0.000 C 
ATOM     22  O   UNL     1       1.213   7.616  21.098  0.00  0.00    +0.000 OA
ATOM     23  C   UNL     1       1.122   9.463  19.553  0.00  0.00    +0.000 C 
ATOM     24  C   UNL     1       1.749   9.600  18.179  0.00  0.00    +0.000 C 
ATOM     25  C   UNL     1       2.443   8.290  17.950  0.00  0.00    +0.000 C 
ATOM     26  O   UNL     1       3.002   7.985  16.911  0.00  0.00    +0.000 OA
ENDBRANCH  19  20
ENDBRANCH  18  19
ENDBRANCH  15  18
ENDBRANCH   1  14
TORSDOF 6
ENDMDL
MODEL 9
REMARK VINA RESULT:      -7.9      3.334      7.754
REMARK  Name = 
REMARK  7 active torsions:
REMARK  status: ('A' for Active; 'I' for Inactive)
REMARK    1  A    between atoms: C_1  and  C_2
REMARK    2  A    between atoms: C_6  and  C_7
REMARK    3  A    between atoms: C_7  and  C_8
REMARK    4  A    between atoms: C_8  and  N_9
REMARK    5  A    between atoms: C_10  and  C_12
REMARK    6  A    between atoms: C_12  and  C_13
REMARK    7  A    between atoms: C_13  and  N_14
REMARK                            x       y       z     vdW  Elec       q    Type
REMARK                         _______ _______ _______ _____ _____    ______ ____
ROOT
ATOM      1  C   UNL     1       3.643   4.653  19.788  0.00  0.00    +0.000 C 
ENDROOT
BRANCH   1   2
ATOM      2  C   UNL     1       3.533   3.985  18.382  0.00  0.00    +0.000 C 
ATOM      3  C   UNL     1       2.238   4.403  17.642  0.00  0.00    +0.000 C 
ATOM      4  C   UNL     1       1.112   3.562  18.240  0.00  0.00    +0.000 C 
ATOM      5  C   UNL     1       1.764   2.301  18.787  0.00  0.00    +0.000 C 
ATOM      6  C   UNL     1       3.262   2.464  18.557  0.00  0.00    +0.000 C 
BRANCH   2  12
ATOM      7  C   UNL     1       6.032   4.069  13.953  0.00  0.00    +0.000 C 
ATOM      8  C   UNL     1       6.037   4.263  15.441  0.00  0.00    +0.000 A 
ATOM      9  C   UNL     1       7.214   4.599  16.111  0.00  0.00    +0.000 A 
ATOM     10  C   UNL     1       7.208   4.751  17.496  0.00  0.00    +0.000 A 
ATOM     11  C   UNL     1       6.029   4.569  18.225  0.00  0.00    +0.000 A 
ATOM     12  C   UNL     1       4.825   4.233  17.585  0.00  0.00    +0.000 A 
ATOM     13  C   UNL     1       4.857   4.080  16.182  0.00  0.00    +0.000 A 
ENDBRANCH   2  12
ENDBRANCH   1   2
BRANCH   1  14
ATOM     14  N   UNL     1       3.182   6.033  19.873  0.00  0.00    +0.000 N 
ATOM     15  C   UNL     1       1.988   6.336  20.502  0.00  0.00    +0.000 C 
ATOM     16  O   UNL     1       1.266   5.495  21.025  0.00  0.00    +0.000 OA
ATOM     17  H   UNL     1       3.556   6.712  19.223  0.00  0.00    +0.000 HD
BRANCH  15  18
ATOM     18  C   UNL     1       1.666   7.814  20.499  0.00  0.00    +0.000 C 
BRANCH  18  19
ATOM     19  C   UNL     1       0.294   8.075  21.116  0.00  0.00    +0.000 C 
BRANCH  19  20
ATOM     20  N   UNL     1      -0.014   9.498  21.183  0.00  0.00    +0.000 N 
ATOM     21  C   UNL     1      -0.305  10.271  20.096  0.00  0.00    +0.000 C 
ATOM     22  O   UNL     1      -0.343   9.910  18.930  0.00  0.00    +0.000 OA
ATOM     23  C   UNL     1      -0.549  11.679  20.552  0.00  0.00    +0.000 C 
ATOM     24  C   UNL     1      -0.353  11.634  22.056  0.00  0.00    +0.000 C 
ATOM     25  C   UNL     1       0.039  10.215  22.341  0.00  0.00    +0.000 C 
ATOM     26  O   UNL     1       0.361   9.804  23.442  0.00  0.00    +0.000 OA
ENDBRANCH  19  20
ENDBRANCH  18  19
ENDBRANCH  15  18
ENDBRANCH   1  14
TORSDOF 6
ENDMDL
