MODEL 1
REMARK VINA RESULT:      -8.4      0.000      0.000
REMARK  Name = 
REMARK  9 active torsions:
REMARK  status: ('A' for Active; 'I' for Inactive)
REMARK    1  A    between atoms: C_5  and  C_6
REMARK    2  A    between atoms: C_6  and  S_7
REMARK    3  A    between atoms: S_7  and  C_8
REMARK    4  A    between atoms: N_16  and  C_17
REMARK    5  A    between atoms: C_17  and  C_18
REMARK    6  A    between atoms: C_18  and  C_19
REMARK    7  A    between atoms: C_19  and  C_20
REMARK    8  A    between atoms: C_20  and  C_21
REMARK    9  A    between atoms: C_21  and  C_22
REMARK                            x       y       z     vdW  Elec       q    Type
REMARK                         _______ _______ _______ _____ _____    ______ ____
ROOT
ATOM      1  C   UNL     1       2.467   8.145  18.267  0.00  0.00    +0.000 A 
ATOM      2  C   UNL     1       1.840   7.321  19.196  0.00  0.00    +0.000 A 
ATOM      3  C   UNL     1       2.377   6.073  19.519  0.00  0.00    +0.000 A 
ATOM      4  C   UNL     1       1.745   5.260  20.473  0.00  0.00    +0.000 A 
ATOM      5  C   UNL     1       2.282   4.022  20.820  0.00  0.00    +0.000 A 
ATOM      6  C   UNL     1       3.445   3.578  20.206  0.00  0.00    +0.000 A 
ATOM      7  C   UNL     1       4.081   4.371  19.246  0.00  0.00    +0.000 A 
ATOM      8  C   UNL     1       3.575   5.637  18.891  0.00  0.00    +0.000 A 
ATOM      9  N   UNL     1       4.178   6.469  17.982  0.00  0.00    +0.000 N 
ATOM     10  C   UNL     1       3.637   7.683  17.678  0.00  0.00    +0.000 A 
ENDROOT
BRANCH   1  11
ATOM     11  S   UNL     1       1.773   9.775  18.030  0.00  0.00    +0.000 S 
BRANCH  11  12
ATOM     12  C   UNL     1       0.419   9.876  19.251  0.00  0.00    +0.000 C 
BRANCH  12  17
ATOM     13 CL   UNL     1      -4.704  11.784  16.689  0.00  0.00    +0.000 Cl
ATOM     14  C   UNL     1      -3.257  11.224  17.428  0.00  0.00    +0.000 A 
ATOM     15  C   UNL     1      -2.861  11.744  18.658  0.00  0.00    +0.000 A 
ATOM     16  C   UNL     1      -1.674  11.300  19.251  0.00  0.00    +0.000 A 
ATOM     17  C   UNL     1      -0.871  10.339  18.616  0.00  0.00    +0.000 A 
ATOM     18  C   UNL     1      -1.294   9.812  17.385  0.00  0.00    +0.000 A 
ATOM     19  C   UNL     1      -2.481  10.257  16.792  0.00  0.00    +0.000 A 
ENDBRANCH  12  17
ENDBRANCH  11  12
ENDBRANCH   1  11
BRANCH   9  20
ATOM     20  C   UNL     1       5.463   6.103  17.309  0.00  0.00    +0.000 C 
BRANCH  20  21
ATOM     21  C   UNL     1       6.282   7.366  17.097  0.00  0.00    +0.000 C 
BRANCH  21  22
ATOM     22  C   UNL     1       7.637   7.355  17.826  0.00  0.00    +0.000 C 
BRANCH  22  23
ATOM     23  C   UNL     1       8.215   8.770  17.767  0.00  0.00    +0.000 C 
BRANCH  23  24
ATOM     24  C   UNL     1       9.043   9.229  18.977  0.00  0.00    +0.000 C 
BRANCH  24  25
ATOM     25  C   UNL     1       8.986  10.780  19.092  0.00  0.00    +0.000 C 
ATOM     26  C   UNL     1       9.609  11.321  20.397  0.00  0.00    +0.000 C 
ATOM     27  C   UNL     1      11.110  11.572  20.320  0.00  0.00    +0.000 C 
ATOM     28  C   UNL     1      11.430  12.499  19.162  0.00  0.00    +0.000 C 
ATOM     29  C   UNL     1      11.005  11.849  17.853  0.00  0.00    +0.000 C 
ATOM     30  C   UNL     1       9.516  11.508  17.840  0.00  0.00    +0.000 C 
ENDBRANCH  24  25
ENDBRANCH  23  24
ENDBRANCH  22  23
ENDBRANCH  21  22
ENDBRANCH  20  21
ENDBRANCH   9  20
TORSDOF 9
ENDMDL
MODEL 2
REMARK VINA RESULT:      -8.1      1.423      1.767
REMARK  Name = 
REMARK  9 active torsions:
REMARK  status: ('A' for Active; 'I' for Inactive)
REMARK    1  A    between atoms: C_5  and  C_6
REMARK    2  A    between atoms: C_6  and  S_7
REMARK    3  A    between atoms: S_7  and  C_8
REMARK    4  A    between atoms: N_16  and  C_17
REMARK    5  A    between atoms: C_17  and  C_18
REMARK    6  A    between atoms: C_18  and  C_19
REMARK    7  A    between atoms: C_19  and  C_20
REMARK    8  A    between atoms: C_20  and  C_21
REMARK    9  A    between atoms: C_21  and  C_22
REMARK                            x       y       z     vdW  Elec       q    Type
REMARK                         _______ _______ _______ _____ _____    ______ ____
ROOT
ATOM      1  C   UNL     1       2.906   7.171  18.265  0.00  0.00    +0.000 A 
ATOM      2  C   UNL     1       2.075   6.057  18.341  0.00  0.00    +0.000 A 
ATOM      3  C   UNL     1       2.565   4.782  18.052  0.00  0.00    +0.000 A 
ATOM      4  C   UNL     1       1.720   3.665  18.152  0.00  0.00    +0.000 A 
ATOM      5  C   UNL     1       2.201   2.384  17.888  0.00  0.00    +0.000 A 
ATOM      6  C   UNL     1       3.525   2.209  17.506  0.00  0.00    +0.000 A 
ATOM      7  C   UNL     1       4.376   3.312  17.392  0.00  0.00    +0.000 A 
ATOM      8  C   UNL     1       3.924   4.617  17.675  0.00  0.00    +0.000 A 
ATOM      9  N   UNL     1       4.726   5.728  17.613  0.00  0.00    +0.000 N 
ATOM     10  C   UNL     1       4.229   6.966  17.896  0.00  0.00    +0.000 A 
ENDROOT
BRANCH   1  11
ATOM     11  S   UNL     1       2.217   8.734  18.788  0.00  0.00    +0.000 S 
BRANCH  11  12
ATOM     12  C   UNL     1       0.994   9.148  17.495  0.00  0.00    +0.000 C 
BRANCH  12  17
ATOM     13 CL   UNL     1      -3.532  12.469  19.717  0.00  0.00    +0.000 Cl
ATOM     14  C   UNL     1      -2.237  11.541  19.072  0.00  0.00    +0.000 A 
ATOM     15  C   UNL     1      -2.451  10.736  17.956  0.00  0.00    +0.000 A 
ATOM     16  C   UNL     1      -1.400   9.968  17.442  0.00  0.00    +0.000 A 
ATOM     17  C   UNL     1      -0.132   9.993  18.043  0.00  0.00    +0.000 A 
ATOM     18  C   UNL     1       0.071  10.825  19.156  0.00  0.00    +0.000 A 
ATOM     19  C   UNL     1      -0.979  11.592  19.671  0.00  0.00    +0.000 A 
ENDBRANCH  12  17
ENDBRANCH  11  12
ENDBRANCH   1  11
BRANCH   9  20
ATOM     20  C   UNL     1       6.178   5.635  17.264  0.00  0.00    +0.000 C 
BRANCH  20  21
ATOM     21  C   UNL     1       6.734   7.041  17.105  0.00  0.00    +0.000 C 
BRANCH  21  22
ATOM     22  C   UNL     1       7.894   7.361  18.065  0.00  0.00    +0.000 C 
BRANCH  22  23
ATOM     23  C   UNL     1       8.160   8.866  17.997  0.00  0.00    +0.000 C 
BRANCH  23  24
ATOM     24  C   UNL     1       9.167   9.436  19.009  0.00  0.00    +0.000 C 
BRANCH  24  25
ATOM     25  C   UNL     1       9.115  10.991  18.980  0.00  0.00    +0.000 C 
ATOM     26  C   UNL     1       9.516  11.643  20.321  0.00  0.00    +0.000 C 
ATOM     27  C   UNL     1      11.012  11.885  20.478  0.00  0.00    +0.000 C 
ATOM     28  C   UNL     1      11.538  12.708  19.317  0.00  0.00    +0.000 C 
ATOM     29  C   UNL     1      11.330  11.947  18.015  0.00  0.00    +0.000 C 
ATOM     30  C   UNL     1       9.860  11.607  17.779  0.00  0.00    +0.000 C 
ENDBRANCH  24  25
ENDBRANCH  23  24
ENDBRANCH  22  23
ENDBRANCH  21  22
ENDBRANCH  20  21
ENDBRANCH   9  20
TORSDOF 9
ENDMDL
MODEL 3
REMARK VINA RESULT:      -8.1      2.405      3.000
REMARK  Name = 
REMARK  9 active torsions:
REMARK  status: ('A' for Active; 'I' for Inactive)
REMARK    1  A    between atoms: C_5  and  C_6
REMARK    2  A    between atoms: C_6  and  S_7
REMARK    3  A    between atoms: S_7  and  C_8
REMARK    4  A    between atoms: N_16  and  C_17
REMARK    5  A    between atoms: C_17  and  C_18
REMARK    6  A    between atoms: C_18  and  C_19
REMARK    7  A    between atoms: C_19  and  C_20
REMARK    8  A    between atoms: C_20  and  C_21
REMARK    9  A    between atoms: C_21  and  C_22
REMARK                            x       y       z     vdW  Elec       q    Type
REMARK                         _______ _______ _______ _____ _____    ______ ____
ROOT
ATOM      1  C   UNL     1       2.500   7.363  18.256  0.00  0.00    +0.000 A 
ATOM      2  C   UNL     1       1.870   6.146  18.498  0.00  0.00    +0.000 A 
ATOM      3  C   UNL     1       2.470   4.945  18.116  0.00  0.00    +0.000 A 
ATOM      4  C   UNL     1       1.834   3.723  18.384  0.00  0.00    +0.000 A 
ATOM      5  C   UNL     1       2.431   2.516  18.027  0.00  0.00    +0.000 A 
ATOM      6  C   UNL     1       3.662   2.518  17.385  0.00  0.00    +0.000 A 
ATOM      7  C   UNL     1       4.305   3.727  17.100  0.00  0.00    +0.000 A 
ATOM      8  C   UNL     1       3.736   4.962  17.470  0.00  0.00    +0.000 A 
ATOM      9  N   UNL     1       4.340   6.174  17.247  0.00  0.00    +0.000 N 
ATOM     10  C   UNL     1       3.737   7.337  17.625  0.00  0.00    +0.000 A 
ENDROOT
BRANCH   1  11
ATOM     11  S   UNL     1       1.712   8.828  18.908  0.00  0.00    +0.000 S 
BRANCH  11  12
ATOM     12  C   UNL     1       1.385   8.428  20.660  0.00  0.00    +0.000 C 
BRANCH  12  17
ATOM     13 CL   UNL     1      -2.244  12.520  23.217  0.00  0.00    +0.000 Cl
ATOM     14  C   UNL     1      -1.193  11.366  22.499  0.00  0.00    +0.000 A 
ATOM     15  C   UNL     1      -0.713  11.574  21.208  0.00  0.00    +0.000 A 
ATOM     16  C   UNL     1       0.129  10.626  20.618  0.00  0.00    +0.000 A 
ATOM     17  C   UNL     1       0.491   9.458  21.309  0.00  0.00    +0.000 A 
ATOM     18  C   UNL     1       0.013   9.273  22.616  0.00  0.00    +0.000 A 
ATOM     19  C   UNL     1      -0.830  10.221  23.206  0.00  0.00    +0.000 A 
ENDBRANCH  12  17
ENDBRANCH  11  12
ENDBRANCH   1  11
BRANCH   9  20
ATOM     20  C   UNL     1       5.690   6.276  16.611  0.00  0.00    +0.000 C 
BRANCH  20  21
ATOM     21  C   UNL     1       6.707   6.651  17.677  0.00  0.00    +0.000 C 
BRANCH  21  22
ATOM     22  C   UNL     1       7.851   7.540  17.159  0.00  0.00    +0.000 C 
BRANCH  22  23
ATOM     23  C   UNL     1       8.213   8.533  18.264  0.00  0.00    +0.000 C 
BRANCH  23  24
ATOM     24  C   UNL     1       8.127  10.026  17.907  0.00  0.00    +0.000 C 
BRANCH  24  25
ATOM     25  C   UNL     1       9.440  10.743  18.336  0.00  0.00    +0.000 C 
ATOM     26  C   UNL     1       9.476  12.238  17.951  0.00  0.00    +0.000 C 
ATOM     27  C   UNL     1       8.852  13.168  18.984  0.00  0.00    +0.000 C 
ATOM     28  C   UNL     1       9.502  12.960  20.339  0.00  0.00    +0.000 C 
ATOM     29  C   UNL     1       9.267  11.531  20.807  0.00  0.00    +0.000 C 
ATOM     30  C   UNL     1       9.813  10.507  19.814  0.00  0.00    +0.000 C 
ENDBRANCH  24  25
ENDBRANCH  23  24
ENDBRANCH  22  23
ENDBRANCH  21  22
ENDBRANCH  20  21
ENDBRANCH   9  20
TORSDOF 9
ENDMDL
MODEL 4
REMARK VINA RESULT:      -8.1      4.071      8.850
REMARK  Name = 
REMARK  9 active torsions:
REMARK  status: ('A' for Active; 'I' for Inactive)
REMARK    1  A    between atoms: C_5  and  C_6
REMARK    2  A    between atoms: C_6  and  S_7
REMARK    3  A    between atoms: S_7  and  C_8
REMARK    4  A    between atoms: N_16  and  C_17
REMARK    5  A    between atoms: C_17  and  C_18
REMARK    6  A    between atoms: C_18  and  C_19
REMARK    7  A    between atoms: C_19  and  C_20
REMARK    8  A    between atoms: C_20  and  C_21
REMARK    9  A    between atoms: C_21  and  C_22
REMARK                            x       y       z     vdW  Elec       q    Type
REMARK                         _______ _______ _______ _____ _____    ______ ____
ROOT
ATOM      1  C   UNL     1       5.491   5.129  19.320  0.00  0.00    +0.000 A 
ATOM      2  C   UNL     1       5.128   3.807  19.086  0.00  0.00    +0.000 A 
ATOM      3  C   UNL     1       3.783   3.446  18.977  0.00  0.00    +0.000 A 
ATOM      4  C   UNL     1       3.431   2.112  18.721  0.00  0.00    +0.000 A 
ATOM      5  C   UNL     1       2.095   1.741  18.588  0.00  0.00    +0.000 A 
ATOM      6  C   UNL     1       1.097   2.697  18.726  0.00  0.00    +0.000 A 
ATOM      7  C   UNL     1       1.430   4.029  18.992  0.00  0.00    +0.000 A 
ATOM      8  C   UNL     1       2.773   4.437  19.109  0.00  0.00    +0.000 A 
ATOM      9  N   UNL     1       3.156   5.736  19.333  0.00  0.00    +0.000 N 
ATOM     10  C   UNL     1       4.474   6.068  19.440  0.00  0.00    +0.000 A 
ENDROOT
BRANCH   1  11
ATOM     11  S   UNL     1       7.238   5.505  19.305  0.00  0.00    +0.000 S 
BRANCH  11  12
ATOM     12  C   UNL     1       7.486   6.460  17.768  0.00  0.00    +0.000 C 
BRANCH  12  17
ATOM     13 CL   UNL     1       4.981   3.775  12.975  0.00  0.00    +0.000 Cl
ATOM     14  C   UNL     1       5.681   4.527  14.353  0.00  0.00    +0.000 A 
ATOM     15  C   UNL     1       5.156   5.725  14.830  0.00  0.00    +0.000 A 
ATOM     16  C   UNL     1       5.737   6.345  15.941  0.00  0.00    +0.000 A 
ATOM     17  C   UNL     1       6.851   5.777  16.579  0.00  0.00    +0.000 A 
ATOM     18  C   UNL     1       7.355   4.559  16.097  0.00  0.00    +0.000 A 
ATOM     19  C   UNL     1       6.775   3.939  14.986  0.00  0.00    +0.000 A 
ENDBRANCH  12  17
ENDBRANCH  11  12
ENDBRANCH   1  11
BRANCH   9  20
ATOM     20  C   UNL     1       2.158   6.844  19.442  0.00  0.00    +0.000 C 
BRANCH  20  21
ATOM     21  C   UNL     1       2.266   7.723  18.206  0.00  0.00    +0.000 C 
BRANCH  21  22
ATOM     22  C   UNL     1       1.942   9.204  18.469  0.00  0.00    +0.000 C 
BRANCH  22  23
ATOM     23  C   UNL     1       0.576   9.505  17.851  0.00  0.00    +0.000 C 
BRANCH  23  24
ATOM     24  C   UNL     1      -0.451  10.208  18.752  0.00  0.00    +0.000 C 
BRANCH  24  25
ATOM     25  C   UNL     1      -1.309  11.189  17.902  0.00  0.00    +0.000 C 
ATOM     26  C   UNL     1      -2.282  10.474  16.938  0.00  0.00    +0.000 C 
ATOM     27  C   UNL     1      -3.632  10.126  17.553  0.00  0.00    +0.000 C 
ATOM     28  C   UNL     1      -4.284  11.369  18.131  0.00  0.00    +0.000 C 
ATOM     29  C   UNL     1      -3.408  11.939  19.239  0.00  0.00    +0.000 C 
ATOM     30  C   UNL     1      -2.005  12.280  18.740  0.00  0.00    +0.000 C 
ENDBRANCH  24  25
ENDBRANCH  23  24
ENDBRANCH  22  23
ENDBRANCH  21  22
ENDBRANCH  20  21
ENDBRANCH   9  20
TORSDOF 9
ENDMDL
MODEL 5
REMARK VINA RESULT:      -8.0      4.656      9.023
REMARK  Name = 
REMARK  9 active torsions:
REMARK  status: ('A' for Active; 'I' for Inactive)
REMARK    1  A    between atoms: C_5  and  C_6
REMARK    2  A    between atoms: C_6  and  S_7
REMARK    3  A    between atoms: S_7  and  C_8
REMARK    4  A    between atoms: N_16  and  C_17
REMARK    5  A    between atoms: C_17  and  C_18
REMARK    6  A    between atoms: C_18  and  C_19
REMARK    7  A    between atoms: C_19  and  C_20
REMARK    8  A    between atoms: C_20  and  C_21
REMARK    9  A    between atoms: C_21  and  C_22
REMARK                            x       y       z     vdW  Elec       q    Type
REMARK                         _______ _______ _______ _____ _____    ______ ____
ROOT
ATOM      1  C   UNL     1       5.317   4.923  18.464  0.00  0.00    +0.000 A 
ATOM      2  C   UNL     1       4.950   3.889  19.319  0.00  0.00    +0.000 A 
ATOM      3  C   UNL     1       3.633   3.770  19.768  0.00  0.00    +0.000 A 
ATOM      4  C   UNL     1       3.271   2.711  20.615  0.00  0.00    +0.000 A 
ATOM      5  C   UNL     1       1.956   2.567  21.053  0.00  0.00    +0.000 A 
ATOM      6  C   UNL     1       0.994   3.489  20.661  0.00  0.00    +0.000 A 
ATOM      7  C   UNL     1       1.340   4.556  19.827  0.00  0.00    +0.000 A 
ATOM      8  C   UNL     1       2.656   4.714  19.350  0.00  0.00    +0.000 A 
ATOM      9  N   UNL     1       3.041   5.721  18.501  0.00  0.00    +0.000 N 
ATOM     10  C   UNL     1       4.333   5.823  18.076  0.00  0.00    +0.000 A 
ENDROOT
BRANCH   1  11
ATOM     11  S   UNL     1       6.992   4.904  17.841  0.00  0.00    +0.000 S 
BRANCH  11  12
ATOM     12  C   UNL     1       6.929   5.930  16.332  0.00  0.00    +0.000 C 
BRANCH  12  17
ATOM     13 CL   UNL     1       5.682   2.579  11.467  0.00  0.00    +0.000 Cl
ATOM     14  C   UNL     1       6.025   3.550  12.843  0.00  0.00    +0.000 A 
ATOM     15  C   UNL     1       7.181   4.326  12.873  0.00  0.00    +0.000 A 
ATOM     16  C   UNL     1       7.468   5.102  14.001  0.00  0.00    +0.000 A 
ATOM     17  C   UNL     1       6.606   5.104  15.109  0.00  0.00    +0.000 A 
ATOM     18  C   UNL     1       5.435   4.331  15.054  0.00  0.00    +0.000 A 
ATOM     19  C   UNL     1       5.149   3.553  13.927  0.00  0.00    +0.000 A 
ENDBRANCH  12  17
ENDBRANCH  11  12
ENDBRANCH   1  11
BRANCH   9  20
ATOM     20  C   UNL     1       2.066   6.730  17.982  0.00  0.00    +0.000 C 
BRANCH  20  21
ATOM     21  C   UNL     1       2.346   8.068  18.646  0.00  0.00    +0.000 C 
BRANCH  21  22
ATOM     22  C   UNL     1       1.510   8.318  19.914  0.00  0.00    +0.000 C 
BRANCH  22  23
ATOM     23  C   UNL     1       1.003   9.761  19.867  0.00  0.00    +0.000 C 
BRANCH  23  24
ATOM     24  C   UNL     1      -0.520   9.957  19.807  0.00  0.00    +0.000 C 
BRANCH  24  25
ATOM     25  C   UNL     1      -0.893  10.774  18.536  0.00  0.00    +0.000 C 
ATOM     26  C   UNL     1      -1.507   9.912  17.412  0.00  0.00    +0.000 C 
ATOM     27  C   UNL     1      -3.018   9.735  17.510  0.00  0.00    +0.000 C 
ATOM     28  C   UNL     1      -3.703  11.088  17.569  0.00  0.00    +0.000 C 
ATOM     29  C   UNL     1      -3.247  11.840  18.811  0.00  0.00    +0.000 C 
ATOM     30  C   UNL     1      -1.732  12.031  18.840  0.00  0.00    +0.000 C 
ENDBRANCH  24  25
ENDBRANCH  23  24
ENDBRANCH  22  23
ENDBRANCH  21  22
ENDBRANCH  20  21
ENDBRANCH   9  20
TORSDOF 9
ENDMDL
MODEL 6
REMARK VINA RESULT:      -8.0      1.784      2.139
REMARK  Name = 
REMARK  9 active torsions:
REMARK  status: ('A' for Active; 'I' for Inactive)
REMARK    1  A    between atoms: C_5  and  C_6
REMARK    2  A    between atoms: C_6  and  S_7
REMARK    3  A    between atoms: S_7  and  C_8
REMARK    4  A    between atoms: N_16  and  C_17
REMARK    5  A    between atoms: C_17  and  C_18
REMARK    6  A    between atoms: C_18  and  C_19
REMARK    7  A    between atoms: C_19  and  C_20
REMARK    8  A    between atoms: C_20  and  C_21
REMARK    9  A    between atoms: C_21  and  C_22
REMARK                            x       y       z     vdW  Elec       q    Type
REMARK                         _______ _______ _______ _____ _____    ______ ____
ROOT
ATOM      1  C   UNL     1       2.664   7.487  17.896  0.00  0.00    +0.000 A 
ATOM      2  C   UNL     1       1.927   6.320  18.073  0.00  0.00    +0.000 A 
ATOM      3  C   UNL     1       2.533   5.069  17.948  0.00  0.00    +0.000 A 
ATOM      4  C   UNL     1       1.782   3.900  18.149  0.00  0.00    +0.000 A 
ATOM      5  C   UNL     1       2.379   2.645  18.048  0.00  0.00    +0.000 A 
ATOM      6  C   UNL     1       3.727   2.545  17.731  0.00  0.00    +0.000 A 
ATOM      7  C   UNL     1       4.487   3.700  17.517  0.00  0.00    +0.000 A 
ATOM      8  C   UNL     1       3.916   4.982  17.634  0.00  0.00    +0.000 A 
ATOM      9  N   UNL     1       4.624   6.147  17.470  0.00  0.00    +0.000 N 
ATOM     10  C   UNL     1       4.014   7.360  17.593  0.00  0.00    +0.000 A 
ENDROOT
BRANCH   1  11
ATOM     11  S   UNL     1       1.826   9.033  18.214  0.00  0.00    +0.000 S 
BRANCH  11  12
ATOM     12  C   UNL     1       1.337   8.933  19.971  0.00  0.00    +0.000 C 
BRANCH  12  17
ATOM     13 CL   UNL     1      -2.578  13.295  21.420  0.00  0.00    +0.000 Cl
ATOM     14  C   UNL     1      -1.479  12.038  21.013  0.00  0.00    +0.000 A 
ATOM     15  C   UNL     1      -0.574  11.574  21.965  0.00  0.00    +0.000 A 
ATOM     16  C   UNL     1       0.332  10.563  21.628  0.00  0.00    +0.000 A 
ATOM     17  C   UNL     1       0.345  10.012  20.336  0.00  0.00    +0.000 A 
ATOM     18  C   UNL     1      -0.587  10.478  19.395  0.00  0.00    +0.000 A 
ATOM     19  C   UNL     1      -1.492  11.490  19.731  0.00  0.00    +0.000 A 
ENDBRANCH  12  17
ENDBRANCH  11  12
ENDBRANCH   1  11
BRANCH   9  20
ATOM     20  C   UNL     1       6.091   6.143  17.179  0.00  0.00    +0.000 C 
BRANCH  20  21
ATOM     21  C   UNL     1       6.759   7.218  18.021  0.00  0.00    +0.000 C 
BRANCH  21  22
ATOM     22  C   UNL     1       8.021   7.817  17.374  0.00  0.00    +0.000 C 
BRANCH  22  23
ATOM     23  C   UNL     1       8.144   9.269  17.838  0.00  0.00    +0.000 C 
BRANCH  23  24
ATOM     24  C   UNL     1       9.116   9.545  18.996  0.00  0.00    +0.000 C 
BRANCH  24  25
ATOM     25  C   UNL     1       9.196  11.076  19.260  0.00  0.00    +0.000 C 
ATOM     26  C   UNL     1      10.237  11.460  20.334  0.00  0.00    +0.000 C 
ATOM     27  C   UNL     1      11.646  11.672  19.795  0.00  0.00    +0.000 C 
ATOM     28  C   UNL     1      11.635  12.704  18.682  0.00  0.00    +0.000 C 
ATOM     29  C   UNL     1      10.773  12.206  17.530  0.00  0.00    +0.000 C 
ATOM     30  C   UNL     1       9.340  11.914  17.973  0.00  0.00    +0.000 C 
ENDBRANCH  24  25
ENDBRANCH  23  24
ENDBRANCH  22  23
ENDBRANCH  21  22
ENDBRANCH  20  21
ENDBRANCH   9  20
TORSDOF 9
ENDMDL
MODEL 7
REMARK VINA RESULT:      -8.0      2.404      3.960
REMARK  Name = 
REMARK  9 active torsions:
REMARK  status: ('A' for Active; 'I' for Inactive)
REMARK    1  A    between atoms: C_5  and  C_6
REMARK    2  A    between atoms: C_6  and  S_7
REMARK    3  A    between atoms: S_7  and  C_8
REMARK    4  A    between atoms: N_16  and  C_17
REMARK    5  A    between atoms: C_17  and  C_18
REMARK    6  A    between atoms: C_18  and  C_19
REMARK    7  A    between atoms: C_19  and  C_20
REMARK    8  A    between atoms: C_20  and  C_21
REMARK    9  A    between atoms: C_21  and  C_22
REMARK                            x       y       z     vdW  Elec       q    Type
REMARK                         _______ _______ _______ _____ _____    ______ ____
ROOT
ATOM      1  C   UNL     1       3.675   4.898  18.493  0.00  0.00    +0.000 A 
ATOM      2  C   UNL     1       3.688   4.505  17.159  0.00  0.00    +0.000 A 
ATOM      3  C   UNL     1       4.877   4.508  16.427  0.00  0.00    +0.000 A 
ATOM      4  C   UNL     1       4.880   4.090  15.087  0.00  0.00    +0.000 A 
ATOM      5  C   UNL     1       6.063   4.068  14.351  0.00  0.00    +0.000 A 
ATOM      6  C   UNL     1       7.251   4.479  14.942  0.00  0.00    +0.000 A 
ATOM      7  C   UNL     1       7.263   4.909  16.272  0.00  0.00    +0.000 A 
ATOM      8  C   UNL     1       6.087   4.921  17.048  0.00  0.00    +0.000 A 
ATOM      9  N   UNL     1       6.050   5.299  18.366  0.00  0.00    +0.000 N 
ATOM     10  C   UNL     1       4.878   5.291  19.064  0.00  0.00    +0.000 A 
ENDROOT
BRANCH   1  11
ATOM     11  S   UNL     1       2.130   4.725  19.374  0.00  0.00    +0.000 S 
BRANCH  11  12
ATOM     12  C   UNL     1       2.224   5.969  20.708  0.00  0.00    +0.000 C 
BRANCH  12  17
ATOM     13 CL   UNL     1       0.495  11.408  18.739  0.00  0.00    +0.000 Cl
ATOM     14  C   UNL     1       1.006   9.869  19.309  0.00  0.00    +0.000 A 
ATOM     15  C   UNL     1       1.744   9.032  18.475  0.00  0.00    +0.000 A 
ATOM     16  C   UNL     1       2.145   7.773  18.934  0.00  0.00    +0.000 A 
ATOM     17  C   UNL     1       1.804   7.337  20.225  0.00  0.00    +0.000 A 
ATOM     18  C   UNL     1       1.076   8.201  21.057  0.00  0.00    +0.000 A 
ATOM     19  C   UNL     1       0.674   9.460  20.599  0.00  0.00    +0.000 A 
ENDBRANCH  12  17
ENDBRANCH  11  12
ENDBRANCH   1  11
BRANCH   9  20
ATOM     20  C   UNL     1       7.285   5.706  19.105  0.00  0.00    +0.000 C 
BRANCH  20  21
ATOM     21  C   UNL     1       7.998   6.787  18.308  0.00  0.00    +0.000 C 
BRANCH  21  22
ATOM     22  C   UNL     1       7.126   8.023  18.023  0.00  0.00    +0.000 C 
BRANCH  22  23
ATOM     23  C   UNL     1       8.057   9.190  17.690  0.00  0.00    +0.000 C 
BRANCH  23  24
ATOM     24  C   UNL     1       9.006   9.656  18.806  0.00  0.00    +0.000 C 
BRANCH  24  25
ATOM     25  C   UNL     1       9.292  11.178  18.648  0.00  0.00    +0.000 C 
ATOM     26  C   UNL     1       9.260  11.949  19.985  0.00  0.00    +0.000 C 
ATOM     27  C   UNL     1      10.590  11.970  20.730  0.00  0.00    +0.000 C 
ATOM     28  C   UNL     1      11.686  12.517  19.834  0.00  0.00    +0.000 C 
ATOM     29  C   UNL     1      11.854  11.614  18.620  0.00  0.00    +0.000 C 
ATOM     30  C   UNL     1      10.558  11.482  17.822  0.00  0.00    +0.000 C 
ENDBRANCH  24  25
ENDBRANCH  23  24
ENDBRANCH  22  23
ENDBRANCH  21  22
ENDBRANCH  20  21
ENDBRANCH   9  20
TORSDOF 9
ENDMDL
MODEL 8
REMARK VINA RESULT:      -8.0      3.920      8.327
REMARK  Name = 
REMARK  9 active torsions:
REMARK  status: ('A' for Active; 'I' for Inactive)
REMARK    1  A    between atoms: C_5  and  C_6
REMARK    2  A    between atoms: C_6  and  S_7
REMARK    3  A    between atoms: S_7  and  C_8
REMARK    4  A    between atoms: N_16  and  C_17
REMARK    5  A    between atoms: C_17  and  C_18
REMARK    6  A    between atoms: C_18  and  C_19
REMARK    7  A    between atoms: C_19  and  C_20
REMARK    8  A    between atoms: C_20  and  C_21
REMARK    9  A    between atoms: C_21  and  C_22
REMARK                            x       y       z     vdW  Elec       q    Type
REMARK                         _______ _______ _______ _____ _____    ______ ____
ROOT
ATOM      1  C   UNL     1       4.140   4.581  17.086  0.00  0.00    +0.000 A 
ATOM      2  C   UNL     1       3.603   3.429  17.652  0.00  0.00    +0.000 A 
ATOM      3  C   UNL     1       2.741   3.508  18.748  0.00  0.00    +0.000 A 
ATOM      4  C   UNL     1       2.190   2.340  19.296  0.00  0.00    +0.000 A 
ATOM      5  C   UNL     1       1.313   2.406  20.376  0.00  0.00    +0.000 A 
ATOM      6  C   UNL     1       0.990   3.638  20.928  0.00  0.00    +0.000 A 
ATOM      7  C   UNL     1       1.538   4.811  20.401  0.00  0.00    +0.000 A 
ATOM      8  C   UNL     1       2.410   4.777  19.295  0.00  0.00    +0.000 A 
ATOM      9  N   UNL     1       2.948   5.900  18.716  0.00  0.00    +0.000 N 
ATOM     10  C   UNL     1       3.789   5.802  17.648  0.00  0.00    +0.000 A 
ENDROOT
BRANCH   1  11
ATOM     11  S   UNL     1       5.118   4.376  15.605  0.00  0.00    +0.000 S 
BRANCH  11  12
ATOM     12  C   UNL     1       6.832   4.200  16.211  0.00  0.00    +0.000 C 
BRANCH  12  17
ATOM     13 CL   UNL     1       8.720   9.097  19.194  0.00  0.00    +0.000 Cl
ATOM     14  C   UNL     1       8.162   7.707  18.352  0.00  0.00    +0.000 A 
ATOM     15  C   UNL     1       8.181   6.463  18.978  0.00  0.00    +0.000 A 
ATOM     16  C   UNL     1       7.742   5.330  18.286  0.00  0.00    +0.000 A 
ATOM     17  C   UNL     1       7.288   5.429  16.961  0.00  0.00    +0.000 A 
ATOM     18  C   UNL     1       7.258   6.694  16.351  0.00  0.00    +0.000 A 
ATOM     19  C   UNL     1       7.697   7.827  17.043  0.00  0.00    +0.000 A 
ENDBRANCH  12  17
ENDBRANCH  11  12
ENDBRANCH   1  11
BRANCH   9  20
ATOM     20  C   UNL     1       2.617   7.274  19.205  0.00  0.00    +0.000 C 
BRANCH  20  21
ATOM     21  C   UNL     1       1.691   7.941  18.200  0.00  0.00    +0.000 C 
BRANCH  21  22
ATOM     22  C   UNL     1       1.981   9.438  17.990  0.00  0.00    +0.000 C 
BRANCH  22  23
ATOM     23  C   UNL     1       0.778  10.228  18.508  0.00  0.00    +0.000 C 
BRANCH  23  24
ATOM     24  C   UNL     1       0.118   9.716  19.798  0.00  0.00    +0.000 C 
BRANCH  24  25
ATOM     25  C   UNL     1       0.666  10.511  21.018  0.00  0.00    +0.000 C 
ATOM     26  C   UNL     1       0.404  12.031  20.927  0.00  0.00    +0.000 C 
ATOM     27  C   UNL     1      -0.944  12.470  21.487  0.00  0.00    +0.000 C 
ATOM     28  C   UNL     1      -1.098  11.995  22.920  0.00  0.00    +0.000 C 
ATOM     29  C   UNL     1      -1.057  10.474  22.963  0.00  0.00    +0.000 C 
ATOM     30  C   UNL     1       0.241   9.920  22.377  0.00  0.00    +0.000 C 
ENDBRANCH  24  25
ENDBRANCH  23  24
ENDBRANCH  22  23
ENDBRANCH  21  22
ENDBRANCH  20  21
ENDBRANCH   9  20
TORSDOF 9
ENDMDL
MODEL 9
REMARK VINA RESULT:      -7.9      2.159      2.295
REMARK  Name = 
REMARK  9 active torsions:
REMARK  status: ('A' for Active; 'I' for Inactive)
REMARK    1  A    between atoms: C_5  and  C_6
REMARK    2  A    between atoms: C_6  and  S_7
REMARK    3  A    between atoms: S_7  and  C_8
REMARK    4  A    between atoms: N_16  and  C_17
REMARK    5  A    between atoms: C_17  and  C_18
REMARK    6  A    between atoms: C_18  and  C_19
REMARK    7  A    between atoms: C_19  and  C_20
REMARK    8  A    between atoms: C_20  and  C_21
REMARK    9  A    between atoms: C_21  and  C_22
REMARK                            x       y       z     vdW  Elec       q    Type
REMARK                         _______ _______ _______ _____ _____    ______ ____
ROOT
ATOM      1  C   UNL     1       2.641   7.323  17.874  0.00  0.00    +0.000 A 
ATOM      2  C   UNL     1       1.872   6.181  18.071  0.00  0.00    +0.000 A 
ATOM      3  C   UNL     1       2.469   4.921  18.129  0.00  0.00    +0.000 A 
ATOM      4  C   UNL     1       1.683   3.778  18.349  0.00  0.00    +0.000 A 
ATOM      5  C   UNL     1       2.269   2.517  18.430  0.00  0.00    +0.000 A 
ATOM      6  C   UNL     1       3.642   2.382  18.275  0.00  0.00    +0.000 A 
ATOM      7  C   UNL     1       4.438   3.508  18.044  0.00  0.00    +0.000 A 
ATOM      8  C   UNL     1       3.877   4.799  17.981  0.00  0.00    +0.000 A 
ATOM      9  N   UNL     1       4.616   5.940  17.792  0.00  0.00    +0.000 N 
ATOM     10  C   UNL     1       4.014   7.163  17.736  0.00  0.00    +0.000 A 
ENDROOT
BRANCH   1  11
ATOM     11  S   UNL     1       1.795   8.895  17.955  0.00  0.00    +0.000 S 
BRANCH  11  12
ATOM     12  C   UNL     1       1.389   9.104  19.723  0.00  0.00    +0.000 C 
BRANCH  12  17
ATOM     13 CL   UNL     1      -1.276  14.426  20.732  0.00  0.00    +0.000 Cl
ATOM     14  C   UNL     1      -0.503  12.915  20.462  0.00  0.00    +0.000 A 
ATOM     15  C   UNL     1       0.525  12.820  19.527  0.00  0.00    +0.000 A 
ATOM     16  C   UNL     1       1.142  11.586  19.296  0.00  0.00    +0.000 A 
ATOM     17  C   UNL     1       0.732  10.437  19.990  0.00  0.00    +0.000 A 
ATOM     18  C   UNL     1      -0.294  10.554  20.942  0.00  0.00    +0.000 A 
ATOM     19  C   UNL     1      -0.911  11.788  21.173  0.00  0.00    +0.000 A 
ENDBRANCH  12  17
ENDBRANCH  11  12
ENDBRANCH   1  11
BRANCH   9  20
ATOM     20  C   UNL     1       6.106   5.903  17.669  0.00  0.00    +0.000 C 
BRANCH  20  21
ATOM     21  C   UNL     1       6.588   7.250  17.152  0.00  0.00    +0.000 C 
BRANCH  21  22
ATOM     22  C   UNL     1       8.002   7.626  17.628  0.00  0.00    +0.000 C 
BRANCH  22  23
ATOM     23  C   UNL     1       8.042   9.141  17.836  0.00  0.00    +0.000 C 
BRANCH  23  24
ATOM     24  C   UNL     1       8.900   9.656  19.002  0.00  0.00    +0.000 C 
BRANCH  24  25
ATOM     25  C   UNL     1       9.251  11.154  18.772  0.00  0.00    +0.000 C 
ATOM     26  C   UNL     1       9.373  11.964  20.082  0.00  0.00    +0.000 C 
ATOM     27  C   UNL     1      10.759  11.932  20.714  0.00  0.00    +0.000 C 
ATOM     28  C   UNL     1      11.804  12.391  19.714  0.00  0.00    +0.000 C 
ATOM     29  C   UNL     1      11.822  11.447  18.520  0.00  0.00    +0.000 C 
ATOM     30  C   UNL     1      10.458  11.364  17.836  0.00  0.00    +0.000 C 
ENDBRANCH  24  25
ENDBRANCH  23  24
ENDBRANCH  22  23
ENDBRANCH  21  22
ENDBRANCH  20  21
ENDBRANCH   9  20
TORSDOF 9
ENDMDL
