MODEL 1
REMARK VINA RESULT:      -7.8      0.000      0.000
REMARK  Name = 
REMARK  7 active torsions:
REMARK  status: ('A' for Active; 'I' for Inactive)
REMARK    1  A    between atoms: C_1  and  C_2
REMARK    2  A    between atoms: C_2  and  C_3
REMARK    3  A    between atoms: C_6  and  C_7
REMARK    4  A    between atoms: C_7  and  N_8
REMARK    5  A    between atoms: C_10  and  C_11
REMARK    6  A    between atoms: C_13  and  C_14
REMARK    7  A    between atoms: C_14  and  C_15
REMARK                            x       y       z     vdW  Elec       q    Type
REMARK                         _______ _______ _______ _____ _____    ______ ____
ROOT
ATOM      1  N   UNL     1       4.052   5.115  18.638  0.00  0.00    +0.000 N 
ATOM      2  N   UNL     1       3.991   6.431  18.311  0.00  0.00    +0.000 NA
ATOM      3  C   UNL     1       2.693   6.694  18.446  0.00  0.00    +0.000 A 
ATOM      4  C   UNL     1       2.118   8.035  18.224  0.00  0.00    +0.000 C 
ATOM      5  N   UNL     1       1.923   5.615  18.761  0.00  0.00    +0.000 NA
ATOM      6  C   UNL     1       2.786   4.617  18.877  0.00  0.00    +0.000 A 
ENDROOT
BRANCH   6   7
ATOM      7  C   UNL     1       2.403   3.175  19.163  0.00  0.00    +0.000 C 
ATOM      8  C   UNL     1       2.389   2.365  17.858  0.00  0.00    +0.000 C 
ATOM      9  C   UNL     1       1.015   3.097  19.825  0.00  0.00    +0.000 C 
ATOM     10  C   UNL     1       1.312   3.308  21.294  0.00  0.00    +0.000 C 
ATOM     11  C   UNL     1       2.647   2.619  21.479  0.00  0.00    +0.000 C 
ATOM     12  N   UNL     1       3.300   2.545  20.161  0.00  0.00    +0.000 NA
ATOM     13  H   UNL     1       3.415   1.558  19.928  0.00  0.00    +0.000 HD
ENDBRANCH   6   7
BRANCH   1  14
ATOM     14  C   UNL     1       5.320   4.418  18.481  0.00  0.00    +0.000 C 
BRANCH  14  18
ATOM     15  C   UNL     1       6.757   4.546  14.388  0.00  0.00    +0.000 A 
ATOM     16  C   UNL     1       5.493   4.023  14.683  0.00  0.00    +0.000 A 
ATOM     17  C   UNL     1       5.039   3.949  16.001  0.00  0.00    +0.000 A 
ATOM     18  C   UNL     1       5.840   4.406  17.061  0.00  0.00    +0.000 A 
ATOM     19  C   UNL     1       7.122   4.896  16.764  0.00  0.00    +0.000 A 
ATOM     20  C   UNL     1       7.575   4.968  15.444  0.00  0.00    +0.000 A 
BRANCH  15  22
ATOM     21  C   UNL     1       6.612   3.628  12.062  0.00  0.00    +0.000 C 
ATOM     22  C   UNL     1       7.215   4.700  12.958  0.00  0.00    +0.000 C 
ENDBRANCH  15  22
ENDBRANCH  14  18
ENDBRANCH   1  14
TORSDOF 4
ENDMDL
MODEL 2
REMARK VINA RESULT:      -7.8      0.244      1.079
REMARK  Name = 
REMARK  7 active torsions:
REMARK  status: ('A' for Active; 'I' for Inactive)
REMARK    1  A    between atoms: C_1  and  C_2
REMARK    2  A    between atoms: C_2  and  C_3
REMARK    3  A    between atoms: C_6  and  C_7
REMARK    4  A    between atoms: C_7  and  N_8
REMARK    5  A    between atoms: C_10  and  C_11
REMARK    6  A    between atoms: C_13  and  C_14
REMARK    7  A    between atoms: C_14  and  C_15
REMARK                            x       y       z     vdW  Elec       q    Type
REMARK                         _______ _______ _______ _____ _____    ______ ____
ROOT
ATOM      1  N   UNL     1       4.037   5.112  18.472  0.00  0.00    +0.000 N 
ATOM      2  N   UNL     1       3.979   6.434  18.170  0.00  0.00    +0.000 NA
ATOM      3  C   UNL     1       2.702   6.723  18.418  0.00  0.00    +0.000 A 
ATOM      4  C   UNL     1       2.141   8.079  18.265  0.00  0.00    +0.000 C 
ATOM      5  N   UNL     1       1.937   5.656  18.782  0.00  0.00    +0.000 NA
ATOM      6  C   UNL     1       2.784   4.638  18.810  0.00  0.00    +0.000 A 
ENDROOT
BRANCH   6   7
ATOM      7  C   UNL     1       2.393   3.200  19.107  0.00  0.00    +0.000 C 
ATOM      8  C   UNL     1       2.326   2.392  17.802  0.00  0.00    +0.000 C 
ATOM      9  C   UNL     1       1.028   3.137  19.816  0.00  0.00    +0.000 C 
ATOM     10  C   UNL     1       1.377   3.341  21.274  0.00  0.00    +0.000 C 
ATOM     11  C   UNL     1       2.709   2.636  21.412  0.00  0.00    +0.000 C 
ATOM     12  N   UNL     1       3.316   2.557  20.073  0.00  0.00    +0.000 NA
ATOM     13  H   UNL     1       3.411   1.569  19.834  0.00  0.00    +0.000 HD
ENDBRANCH   6   7
BRANCH   1  14
ATOM     14  C   UNL     1       5.270   4.391  18.198  0.00  0.00    +0.000 C 
BRANCH  14  18
ATOM     15  C   UNL     1       6.633   4.494  14.079  0.00  0.00    +0.000 A 
ATOM     16  C   UNL     1       7.471   4.916  15.118  0.00  0.00    +0.000 A 
ATOM     17  C   UNL     1       7.026   4.916  16.441  0.00  0.00    +0.000 A 
ATOM     18  C   UNL     1       5.728   4.485  16.760  0.00  0.00    +0.000 A 
ATOM     19  C   UNL     1       4.878   4.096  15.712  0.00  0.00    +0.000 A 
ATOM     20  C   UNL     1       5.325   4.098  14.388  0.00  0.00    +0.000 A 
BRANCH  15  22
ATOM     21  C   UNL     1       6.555   3.220  11.924  0.00  0.00    +0.000 C 
ATOM     22  C   UNL     1       7.141   4.417  12.660  0.00  0.00    +0.000 C 
ENDBRANCH  15  22
ENDBRANCH  14  18
ENDBRANCH   1  14
TORSDOF 4
ENDMDL
MODEL 3
REMARK VINA RESULT:      -7.7      1.014      2.001
REMARK  Name = 
REMARK  7 active torsions:
REMARK  status: ('A' for Active; 'I' for Inactive)
REMARK    1  A    between atoms: C_1  and  C_2
REMARK    2  A    between atoms: C_2  and  C_3
REMARK    3  A    between atoms: C_6  and  C_7
REMARK    4  A    between atoms: C_7  and  N_8
REMARK    5  A    between atoms: C_10  and  C_11
REMARK    6  A    between atoms: C_13  and  C_14
REMARK    7  A    between atoms: C_14  and  C_15
REMARK                            x       y       z     vdW  Elec       q    Type
REMARK                         _______ _______ _______ _____ _____    ______ ____
ROOT
ATOM      1  N   UNL     1       3.880   5.031  19.411  0.00  0.00    +0.000 N 
ATOM      2  N   UNL     1       3.858   6.336  19.039  0.00  0.00    +0.000 NA
ATOM      3  C   UNL     1       2.610   6.693  19.336  0.00  0.00    +0.000 A 
ATOM      4  C   UNL     1       2.096   8.061  19.135  0.00  0.00    +0.000 C 
ATOM      5  N   UNL     1       1.823   5.680  19.798  0.00  0.00    +0.000 NA
ATOM      6  C   UNL     1       2.630   4.630  19.840  0.00  0.00    +0.000 A 
ENDROOT
BRANCH   6   7
ATOM      7  C   UNL     1       2.199   3.229  20.238  0.00  0.00    +0.000 C 
ATOM      8  C   UNL     1       2.592   2.951  21.696  0.00  0.00    +0.000 C 
ATOM      9  C   UNL     1       2.851   2.174  19.325  0.00  0.00    +0.000 C 
ATOM     10  C   UNL     1       1.924   2.117  18.131  0.00  0.00    +0.000 C 
ATOM     11  C   UNL     1       0.557   2.331  18.744  0.00  0.00    +0.000 C 
ATOM     12  N   UNL     1       0.746   3.010  20.036  0.00  0.00    +0.000 NA
ATOM     13  H   UNL     1       0.399   2.389  20.767  0.00  0.00    +0.000 HD
ENDBRANCH   6   7
BRANCH   1  14
ATOM     14  C   UNL     1       5.067   4.244  19.115  0.00  0.00    +0.000 C 
BRANCH  14  18
ATOM     15  C   UNL     1       6.458   4.409  15.008  0.00  0.00    +0.000 A 
ATOM     16  C   UNL     1       7.304   4.771  16.062  0.00  0.00    +0.000 A 
ATOM     17  C   UNL     1       6.852   4.752  17.382  0.00  0.00    +0.000 A 
ATOM     18  C   UNL     1       5.537   4.361  17.682  0.00  0.00    +0.000 A 
ATOM     19  C   UNL     1       4.680   4.033  16.620  0.00  0.00    +0.000 A 
ATOM     20  C   UNL     1       5.135   4.054  15.299  0.00  0.00    +0.000 A 
BRANCH  15  22
ATOM     21  C   UNL     1       6.029   3.568  12.688  0.00  0.00    +0.000 C 
ATOM     22  C   UNL     1       6.971   4.352  13.589  0.00  0.00    +0.000 C 
ENDBRANCH  15  22
ENDBRANCH  14  18
ENDBRANCH   1  14
TORSDOF 4
ENDMDL
MODEL 4
REMARK VINA RESULT:      -7.5      0.973      1.666
REMARK  Name = 
REMARK  7 active torsions:
REMARK  status: ('A' for Active; 'I' for Inactive)
REMARK    1  A    between atoms: C_1  and  C_2
REMARK    2  A    between atoms: C_2  and  C_3
REMARK    3  A    between atoms: C_6  and  C_7
REMARK    4  A    between atoms: C_7  and  N_8
REMARK    5  A    between atoms: C_10  and  C_11
REMARK    6  A    between atoms: C_13  and  C_14
REMARK    7  A    between atoms: C_14  and  C_15
REMARK                            x       y       z     vdW  Elec       q    Type
REMARK                         _______ _______ _______ _____ _____    ______ ____
ROOT
ATOM      1  N   UNL     1       3.807   5.304  19.226  0.00  0.00    +0.000 N 
ATOM      2  N   UNL     1       3.793   6.534  18.653  0.00  0.00    +0.000 NA
ATOM      3  C   UNL     1       2.530   6.916  18.834  0.00  0.00    +0.000 A 
ATOM      4  C   UNL     1       2.017   8.228  18.398  0.00  0.00    +0.000 C 
ATOM      5  N   UNL     1       1.730   5.977  19.415  0.00  0.00    +0.000 NA
ATOM      6  C   UNL     1       2.541   4.958  19.658  0.00  0.00    +0.000 A 
ENDROOT
BRANCH   6   7
ATOM      7  C   UNL     1       2.102   3.631  20.252  0.00  0.00    +0.000 C 
ATOM      8  C   UNL     1       2.377   3.613  21.763  0.00  0.00    +0.000 C 
ATOM      9  C   UNL     1       2.845   2.458  19.586  0.00  0.00    +0.000 C 
ATOM     10  C   UNL     1       2.022   2.174  18.349  0.00  0.00    +0.000 C 
ATOM     11  C   UNL     1       0.605   2.446  18.806  0.00  0.00    +0.000 C 
ATOM     12  N   UNL     1       0.674   3.338  19.976  0.00  0.00    +0.000 NA
ATOM     13  H   UNL     1       0.278   2.837  20.771  0.00  0.00    +0.000 HD
ENDBRANCH   6   7
BRANCH   1  14
ATOM     14  C   UNL     1       5.011   4.497  19.110  0.00  0.00    +0.000 C 
BRANCH  14  18
ATOM     15  C   UNL     1       6.544   4.437  15.051  0.00  0.00    +0.000 A 
ATOM     16  C   UNL     1       5.268   3.939  15.338  0.00  0.00    +0.000 A 
ATOM     17  C   UNL     1       4.783   3.925  16.647  0.00  0.00    +0.000 A 
ATOM     18  C   UNL     1       5.564   4.419  17.705  0.00  0.00    +0.000 A 
ATOM     19  C   UNL     1       6.857   4.885  17.418  0.00  0.00    +0.000 A 
ATOM     20  C   UNL     1       7.341   4.897  16.107  0.00  0.00    +0.000 A 
BRANCH  15  22
ATOM     21  C   UNL     1       6.265   3.585  12.712  0.00  0.00    +0.000 C 
ATOM     22  C   UNL     1       7.035   4.526  13.626  0.00  0.00    +0.000 C 
ENDBRANCH  15  22
ENDBRANCH  14  18
ENDBRANCH   1  14
TORSDOF 4
ENDMDL
MODEL 5
REMARK VINA RESULT:      -7.3      2.932      5.814
REMARK  Name = 
REMARK  7 active torsions:
REMARK  status: ('A' for Active; 'I' for Inactive)
REMARK    1  A    between atoms: C_1  and  C_2
REMARK    2  A    between atoms: C_2  and  C_3
REMARK    3  A    between atoms: C_6  and  C_7
REMARK    4  A    between atoms: C_7  and  N_8
REMARK    5  A    between atoms: C_10  and  C_11
REMARK    6  A    between atoms: C_13  and  C_14
REMARK    7  A    between atoms: C_14  and  C_15
REMARK                            x       y       z     vdW  Elec       q    Type
REMARK                         _______ _______ _______ _____ _____    ______ ____
ROOT
ATOM      1  N   UNL     1       3.935   5.346  18.285  0.00  0.00    +0.000 N 
ATOM      2  N   UNL     1       5.061   6.099  18.378  0.00  0.00    +0.000 NA
ATOM      3  C   UNL     1       5.892   5.283  19.023  0.00  0.00    +0.000 A 
ATOM      4  C   UNL     1       7.286   5.645  19.344  0.00  0.00    +0.000 C 
ATOM      5  N   UNL     1       5.341   4.098  19.410  0.00  0.00    +0.000 NA
ATOM      6  C   UNL     1       4.102   4.144  18.945  0.00  0.00    +0.000 A 
ENDROOT
BRANCH   6   7
ATOM      7  C   UNL     1       3.055   3.066  19.173  0.00  0.00    +0.000 C 
ATOM      8  C   UNL     1       2.845   2.256  17.885  0.00  0.00    +0.000 C 
ATOM      9  C   UNL     1       1.715   3.686  19.608  0.00  0.00    +0.000 C 
ATOM     10  C   UNL     1       1.870   3.849  21.105  0.00  0.00    +0.000 C 
ATOM     11  C   UNL     1       2.691   2.640  21.501  0.00  0.00    +0.000 C 
ATOM     12  N   UNL     1       3.408   2.173  20.303  0.00  0.00    +0.000 NA
ATOM     13  H   UNL     1       3.081   1.229  20.094  0.00  0.00    +0.000 HD
ENDBRANCH   6   7
BRANCH   1  14
ATOM     14  C   UNL     1       2.733   5.959  17.741  0.00  0.00    +0.000 C 
BRANCH  14  18
ATOM     15  C   UNL     1       1.253   9.420  19.900  0.00  0.00    +0.000 A 
ATOM     16  C   UNL     1       1.482   9.485  18.521  0.00  0.00    +0.000 A 
ATOM     17  C   UNL     1       1.989   8.385  17.827  0.00  0.00    +0.000 A 
ATOM     18  C   UNL     1       2.274   7.185  18.499  0.00  0.00    +0.000 A 
ATOM     19  C   UNL     1       2.078   7.135  19.888  0.00  0.00    +0.000 A 
ATOM     20  C   UNL     1       1.570   8.237  20.581  0.00  0.00    +0.000 A 
BRANCH  15  22
ATOM     21  C   UNL     1       0.095  10.157  21.995  0.00  0.00    +0.000 C 
ATOM     22  C   UNL     1       0.628  10.581  20.635  0.00  0.00    +0.000 C 
ENDBRANCH  15  22
ENDBRANCH  14  18
ENDBRANCH   1  14
TORSDOF 4
ENDMDL
MODEL 6
REMARK VINA RESULT:      -7.3      2.283      6.969
REMARK  Name = 
REMARK  7 active torsions:
REMARK  status: ('A' for Active; 'I' for Inactive)
REMARK    1  A    between atoms: C_1  and  C_2
REMARK    2  A    between atoms: C_2  and  C_3
REMARK    3  A    between atoms: C_6  and  C_7
REMARK    4  A    between atoms: C_7  and  N_8
REMARK    5  A    between atoms: C_10  and  C_11
REMARK    6  A    between atoms: C_13  and  C_14
REMARK    7  A    between atoms: C_14  and  C_15
REMARK                            x       y       z     vdW  Elec       q    Type
REMARK                         _______ _______ _______ _____ _____    ______ ____
ROOT
ATOM      1  N   UNL     1       3.148   5.688  17.978  0.00  0.00    +0.000 N 
ATOM      2  N   UNL     1       1.972   5.033  18.147  0.00  0.00    +0.000 NA
ATOM      3  C   UNL     1       2.360   3.759  18.172  0.00  0.00    +0.000 A 
ATOM      4  C   UNL     1       1.422   2.638  18.369  0.00  0.00    +0.000 C 
ATOM      5  N   UNL     1       3.691   3.565  17.953  0.00  0.00    +0.000 NA
ATOM      6  C   UNL     1       4.185   4.788  17.826  0.00  0.00    +0.000 A 
ENDROOT
BRANCH   6   7
ATOM      7  C   UNL     1       5.637   5.101  17.508  0.00  0.00    +0.000 C 
ATOM      8  C   UNL     1       6.355   5.609  18.767  0.00  0.00    +0.000 C 
ATOM      9  C   UNL     1       5.739   6.165  16.399  0.00  0.00    +0.000 C 
ATOM     10  C   UNL     1       5.635   5.358  15.124  0.00  0.00    +0.000 C 
ATOM     11  C   UNL     1       6.356   4.072  15.468  0.00  0.00    +0.000 C 
ATOM     12  N   UNL     1       6.349   3.933  16.934  0.00  0.00    +0.000 NA
ATOM     13  H   UNL     1       7.319   3.947  17.251  0.00  0.00    +0.000 HD
ENDBRANCH   6   7
BRANCH   1  14
ATOM     14  C   UNL     1       3.119   7.127  17.771  0.00  0.00    +0.000 C 
BRANCH  14  18
ATOM     15  C   UNL     1       0.718   9.356  20.618  0.00  0.00    +0.000 A 
ATOM     16  C   UNL     1       1.333   8.155  20.990  0.00  0.00    +0.000 A 
ATOM     17  C   UNL     1       2.079   7.417  20.069  0.00  0.00    +0.000 A 
ATOM     18  C   UNL     1       2.235   7.869  18.748  0.00  0.00    +0.000 A 
ATOM     19  C   UNL     1       1.587   9.056  18.369  0.00  0.00    +0.000 A 
ATOM     20  C   UNL     1       0.841   9.792  19.292  0.00  0.00    +0.000 A 
BRANCH  15  22
ATOM     21  C   UNL     1      -0.016   9.534  23.006  0.00  0.00    +0.000 C 
ATOM     22  C   UNL     1      -0.019  10.193  21.634  0.00  0.00    +0.000 C 
ENDBRANCH  15  22
ENDBRANCH  14  18
ENDBRANCH   1  14
TORSDOF 4
ENDMDL
MODEL 7
REMARK VINA RESULT:      -7.2      2.229      6.892
REMARK  Name = 
REMARK  7 active torsions:
REMARK  status: ('A' for Active; 'I' for Inactive)
REMARK    1  A    between atoms: C_1  and  C_2
REMARK    2  A    between atoms: C_2  and  C_3
REMARK    3  A    between atoms: C_6  and  C_7
REMARK    4  A    between atoms: C_7  and  N_8
REMARK    5  A    between atoms: C_10  and  C_11
REMARK    6  A    between atoms: C_13  and  C_14
REMARK    7  A    between atoms: C_14  and  C_15
REMARK                            x       y       z     vdW  Elec       q    Type
REMARK                         _______ _______ _______ _____ _____    ______ ____
ROOT
ATOM      1  N   UNL     1       3.059   5.645  17.909  0.00  0.00    +0.000 N 
ATOM      2  N   UNL     1       1.873   5.010  18.089  0.00  0.00    +0.000 NA
ATOM      3  C   UNL     1       2.250   3.737  18.201  0.00  0.00    +0.000 A 
ATOM      4  C   UNL     1       1.298   2.636  18.444  0.00  0.00    +0.000 C 
ATOM      5  N   UNL     1       3.584   3.521  18.028  0.00  0.00    +0.000 NA
ATOM      6  C   UNL     1       4.092   4.730  17.839  0.00  0.00    +0.000 A 
ENDROOT
BRANCH   6   7
ATOM      7  C   UNL     1       5.553   5.013  17.538  0.00  0.00    +0.000 C 
ATOM      8  C   UNL     1       6.272   5.483  18.811  0.00  0.00    +0.000 C 
ATOM      9  C   UNL     1       5.691   6.092  16.448  0.00  0.00    +0.000 C 
ATOM     10  C   UNL     1       5.579   5.308  15.158  0.00  0.00    +0.000 C 
ATOM     11  C   UNL     1       6.266   4.000  15.488  0.00  0.00    +0.000 C 
ATOM     12  N   UNL     1       6.243   3.838  16.952  0.00  0.00    +0.000 NA
ATOM     13  H   UNL     1       7.209   3.823  17.277  0.00  0.00    +0.000 HD
ENDBRANCH   6   7
BRANCH   1  14
ATOM     14  C   UNL     1       3.046   7.069  17.613  0.00  0.00    +0.000 C 
BRANCH  14  18
ATOM     15  C   UNL     1       0.689   9.344  20.459  0.00  0.00    +0.000 A 
ATOM     16  C   UNL     1       0.821   9.778  19.135  0.00  0.00    +0.000 A 
ATOM     17  C   UNL     1       1.606   9.068  18.224  0.00  0.00    +0.000 A 
ATOM     18  C   UNL     1       2.273   7.896  18.615  0.00  0.00    +0.000 A 
ATOM     19  C   UNL     1       2.167   7.483  19.953  0.00  0.00    +0.000 A 
ATOM     20  C   UNL     1       1.383   8.196  20.863  0.00  0.00    +0.000 A 
BRANCH  15  22
ATOM     21  C   UNL     1      -0.442   9.258  22.692  0.00  0.00    +0.000 C 
ATOM     22  C   UNL     1      -0.223  10.065  21.421  0.00  0.00    +0.000 C 
ENDBRANCH  15  22
ENDBRANCH  14  18
ENDBRANCH   1  14
TORSDOF 4
ENDMDL
MODEL 8
REMARK VINA RESULT:      -7.2      2.967      6.071
REMARK  Name = 
REMARK  7 active torsions:
REMARK  status: ('A' for Active; 'I' for Inactive)
REMARK    1  A    between atoms: C_1  and  C_2
REMARK    2  A    between atoms: C_2  and  C_3
REMARK    3  A    between atoms: C_6  and  C_7
REMARK    4  A    between atoms: C_7  and  N_8
REMARK    5  A    between atoms: C_10  and  C_11
REMARK    6  A    between atoms: C_13  and  C_14
REMARK    7  A    between atoms: C_14  and  C_15
REMARK                            x       y       z     vdW  Elec       q    Type
REMARK                         _______ _______ _______ _____ _____    ______ ____
ROOT
ATOM      1  N   UNL     1       4.188   5.521  18.214  0.00  0.00    +0.000 N 
ATOM      2  N   UNL     1       5.350   6.215  18.123  0.00  0.00    +0.000 NA
ATOM      3  C   UNL     1       6.183   5.465  18.842  0.00  0.00    +0.000 A 
ATOM      4  C   UNL     1       7.610   5.796  19.022  0.00  0.00    +0.000 C 
ATOM      5  N   UNL     1       5.604   4.387  19.442  0.00  0.00    +0.000 NA
ATOM      6  C   UNL     1       4.341   4.428  19.046  0.00  0.00    +0.000 A 
ENDROOT
BRANCH   6   7
ATOM      7  C   UNL     1       3.264   3.459  19.501  0.00  0.00    +0.000 C 
ATOM      8  C   UNL     1       2.703   3.896  20.863  0.00  0.00    +0.000 C 
ATOM      9  C   UNL     1       3.824   2.029  19.616  0.00  0.00    +0.000 C 
ATOM     10  C   UNL     1       3.710   1.491  18.207  0.00  0.00    +0.000 C 
ATOM     11  C   UNL     1       2.432   2.122  17.697  0.00  0.00    +0.000 C 
ATOM     12  N   UNL     1       2.173   3.325  18.505  0.00  0.00    +0.000 NA
ATOM     13  H   UNL     1       1.290   3.184  18.996  0.00  0.00    +0.000 HD
ENDBRANCH   6   7
BRANCH   1  14
ATOM     14  C   UNL     1       2.982   6.106  17.649  0.00  0.00    +0.000 C 
BRANCH  14  18
ATOM     15  C   UNL     1       1.148   9.252  20.010  0.00  0.00    +0.000 A 
ATOM     16  C   UNL     1       1.391   9.436  18.644  0.00  0.00    +0.000 A 
ATOM     17  C   UNL     1       2.011   8.440  17.887  0.00  0.00    +0.000 A 
ATOM     18  C   UNL     1       2.398   7.227  18.479  0.00  0.00    +0.000 A 
ATOM     19  C   UNL     1       2.185   7.060  19.857  0.00  0.00    +0.000 A 
ATOM     20  C   UNL     1       1.565   8.058  20.613  0.00  0.00    +0.000 A 
BRANCH  15  22
ATOM     21  C   UNL     1      -0.036   9.749  22.160  0.00  0.00    +0.000 C 
ATOM     22  C   UNL     1       0.405  10.294  20.810  0.00  0.00    +0.000 C 
ENDBRANCH  15  22
ENDBRANCH  14  18
ENDBRANCH   1  14
TORSDOF 4
ENDMDL
MODEL 9
REMARK VINA RESULT:      -7.1      0.866      1.715
REMARK  Name = 
REMARK  7 active torsions:
REMARK  status: ('A' for Active; 'I' for Inactive)
REMARK    1  A    between atoms: C_1  and  C_2
REMARK    2  A    between atoms: C_2  and  C_3
REMARK    3  A    between atoms: C_6  and  C_7
REMARK    4  A    between atoms: C_7  and  N_8
REMARK    5  A    between atoms: C_10  and  C_11
REMARK    6  A    between atoms: C_13  and  C_14
REMARK    7  A    between atoms: C_14  and  C_15
REMARK                            x       y       z     vdW  Elec       q    Type
REMARK                         _______ _______ _______ _____ _____    ______ ____
ROOT
ATOM      1  N   UNL     1       4.459   5.286  18.415  0.00  0.00    +0.000 N 
ATOM      2  N   UNL     1       4.235   6.559  18.004  0.00  0.00    +0.000 NA
ATOM      3  C   UNL     1       2.984   6.770  18.411  0.00  0.00    +0.000 A 
ATOM      4  C   UNL     1       2.282   8.053  18.216  0.00  0.00    +0.000 C 
ATOM      5  N   UNL     1       2.382   5.689  18.982  0.00  0.00    +0.000 NA
ATOM      6  C   UNL     1       3.317   4.751  18.979  0.00  0.00    +0.000 A 
ENDROOT
BRANCH   6   7
ATOM      7  C   UNL     1       3.109   3.326  19.463  0.00  0.00    +0.000 C 
ATOM      8  C   UNL     1       4.437   2.744  19.971  0.00  0.00    +0.000 C 
ATOM      9  C   UNL     1       2.562   2.436  18.333  0.00  0.00    +0.000 C 
ATOM     10  C   UNL     1       1.069   2.670  18.389  0.00  0.00    +0.000 C 
ATOM     11  C   UNL     1       0.800   2.838  19.869  0.00  0.00    +0.000 C 
ATOM     12  N   UNL     1       2.064   3.238  20.511  0.00  0.00    +0.000 NA
ATOM     13  H   UNL     1       2.319   2.505  21.174  0.00  0.00    +0.000 HD
ENDBRANCH   6   7
BRANCH   1  14
ATOM     14  C   UNL     1       5.705   4.641  18.030  0.00  0.00    +0.000 C 
BRANCH  14  18
ATOM     15  C   UNL     1       6.325   4.171  13.761  0.00  0.00    +0.000 A 
ATOM     16  C   UNL     1       7.318   4.740  14.567  0.00  0.00    +0.000 A 
ATOM     17  C   UNL     1       7.111   4.924  15.935  0.00  0.00    +0.000 A 
ATOM     18  C   UNL     1       5.902   4.534  16.534  0.00  0.00    +0.000 A 
ATOM     19  C   UNL     1       4.895   3.997  15.717  0.00  0.00    +0.000 A 
ATOM     20  C   UNL     1       5.104   3.815  14.347  0.00  0.00    +0.000 A 
BRANCH  15  22
ATOM     21  C   UNL     1       5.806   2.679  11.817  0.00  0.00    +0.000 C 
ATOM     22  C   UNL     1       6.580   3.898  12.298  0.00  0.00    +0.000 C 
ENDBRANCH  15  22
ENDBRANCH  14  18
ENDBRANCH   1  14
TORSDOF 4
ENDMDL
