MODEL 1
REMARK VINA RESULT:      -7.8      0.000      0.000
REMARK  Name = 
REMARK  6 active torsions:
REMARK  status: ('A' for Active; 'I' for Inactive)
REMARK    1  A    between atoms: C_1  and  C_2
REMARK    2  A    between atoms: C_5  and  N_6
REMARK    3  A    between atoms: N_6  and  S_7
REMARK    4  A    between atoms: S_7  and  C_10
REMARK    5  A    between atoms: C_15  and  C_16
REMARK    6  A    between atoms: C_20  and  C_21
REMARK                            x       y       z     vdW  Elec       q    Type
REMARK                         _______ _______ _______ _____ _____    ______ ____
ROOT
ATOM      1  S   UNL     1       4.920   4.635  17.503  0.00  0.00    +0.000 S 
ATOM      2  O   UNL     1       5.817   4.677  18.633  0.00  0.00    +0.000 OA
ATOM      3  O   UNL     1       4.515   5.836  16.808  0.00  0.00    +0.000 OA
ENDROOT
BRANCH   1   4
ATOM      4  C   UNL     1       3.433   3.820  18.095  0.00  0.00    +0.000 A 
ATOM      5  C   UNL     1       3.238   2.483  17.704  0.00  0.00    +0.000 A 
ATOM      6  C   UNL     1       2.080   1.800  18.073  0.00  0.00    +0.000 A 
ATOM      7  C   UNL     1       1.106   2.442  18.826  0.00  0.00    +0.000 A 
ATOM      8  C   UNL     1       1.286   3.771  19.208  0.00  0.00    +0.000 A 
ATOM      9  C   UNL     1       2.448   4.489  18.852  0.00  0.00    +0.000 A 
BRANCH   9  10
ATOM     10  C   UNL     1       2.512   5.924  19.319  0.00  0.00    +0.000 C 
ATOM     11  F   UNL     1       3.705   6.321  19.827  0.00  0.00    +0.000 F 
ATOM     12  F   UNL     1       2.177   6.815  18.352  0.00  0.00    +0.000 F 
ATOM     13  F   UNL     1       1.633   6.142  20.343  0.00  0.00    +0.000 F 
ENDBRANCH   9  10
ENDBRANCH   1   4
BRANCH   1  14
ATOM     14  N   UNL     1       5.498   3.518  16.342  0.00  0.00    +0.000 N 
ATOM     15  H   UNL     1       6.153   2.911  16.843  0.00  0.00    +0.000 HD
BRANCH  14  20
ATOM     16  C   UNL     1       7.721   5.356  12.225  0.00  0.00    +0.000 C 
ATOM     17  C   UNL     1       7.318   4.993  13.603  0.00  0.00    +0.000 A 
ATOM     18  N   UNL     1       8.024   5.447  14.647  0.00  0.00    +0.000 NA
ATOM     19  O   UNL     1       7.407   4.926  15.762  0.00  0.00    +0.000 OA
ATOM     20  C   UNL     1       6.321   4.196  15.390  0.00  0.00    +0.000 A 
ATOM     21  C   UNL     1       6.235   4.162  14.018  0.00  0.00    +0.000 A 
ATOM     22  C   UNL     1       5.286   3.425  13.154  0.00  0.00    +0.000 C 
ENDBRANCH  14  20
ENDBRANCH   1  14
TORSDOF 4
ENDMDL
MODEL 2
REMARK VINA RESULT:      -7.3      2.782      6.238
REMARK  Name = 
REMARK  6 active torsions:
REMARK  status: ('A' for Active; 'I' for Inactive)
REMARK    1  A    between atoms: C_1  and  C_2
REMARK    2  A    between atoms: C_5  and  N_6
REMARK    3  A    between atoms: N_6  and  S_7
REMARK    4  A    between atoms: S_7  and  C_10
REMARK    5  A    between atoms: C_15  and  C_16
REMARK    6  A    between atoms: C_20  and  C_21
REMARK                            x       y       z     vdW  Elec       q    Type
REMARK                         _______ _______ _______ _____ _____    ______ ____
ROOT
ATOM      1  S   UNL     1       5.238   4.529  18.365  0.00  0.00    +0.000 S 
ATOM      2  O   UNL     1       4.279   5.597  18.513  0.00  0.00    +0.000 OA
ATOM      3  O   UNL     1       6.347   4.368  19.279  0.00  0.00    +0.000 OA
ENDROOT
BRANCH   1   4
ATOM      4  C   UNL     1       5.916   4.714  16.712  0.00  0.00    +0.000 A 
ATOM      5  C   UNL     1       5.536   3.756  15.754  0.00  0.00    +0.000 A 
ATOM      6  C   UNL     1       6.066   3.796  14.465  0.00  0.00    +0.000 A 
ATOM      7  C   UNL     1       6.980   4.783  14.121  0.00  0.00    +0.000 A 
ATOM      8  C   UNL     1       7.372   5.729  15.069  0.00  0.00    +0.000 A 
ATOM      9  C   UNL     1       6.852   5.716  16.380  0.00  0.00    +0.000 A 
BRANCH   9  10
ATOM     10  C   UNL     1       7.367   6.790  17.310  0.00  0.00    +0.000 C 
ATOM     11  F   UNL     1       8.031   6.346  18.406  0.00  0.00    +0.000 F 
ATOM     12  F   UNL     1       8.177   7.686  16.691  0.00  0.00    +0.000 F 
ATOM     13  F   UNL     1       6.335   7.521  17.828  0.00  0.00    +0.000 F 
ENDBRANCH   9  10
ENDBRANCH   1   4
BRANCH   1  14
ATOM     14  N   UNL     1       4.424   3.027  18.248  0.00  0.00    +0.000 N 
ATOM     15  H   UNL     1       3.669   3.173  17.571  0.00  0.00    +0.000 HD
BRANCH  14  20
ATOM     16  C   UNL     1       1.124   2.593  22.014  0.00  0.00    +0.000 C 
ATOM     17  C   UNL     1       2.315   2.575  21.135  0.00  0.00    +0.000 A 
ATOM     18  N   UNL     1       3.478   2.094  21.596  0.00  0.00    +0.000 NA
ATOM     19  O   UNL     1       4.369   2.230  20.556  0.00  0.00    +0.000 OA
ATOM     20  C   UNL     1       3.737   2.756  19.472  0.00  0.00    +0.000 A 
ATOM     21  C   UNL     1       2.430   3.041  19.791  0.00  0.00    +0.000 A 
ATOM     22  C   UNL     1       1.386   3.700  18.977  0.00  0.00    +0.000 C 
ENDBRANCH  14  20
ENDBRANCH   1  14
TORSDOF 4
ENDMDL
MODEL 3
REMARK VINA RESULT:      -7.2      2.991      3.915
REMARK  Name = 
REMARK  6 active torsions:
REMARK  status: ('A' for Active; 'I' for Inactive)
REMARK    1  A    between atoms: C_1  and  C_2
REMARK    2  A    between atoms: C_5  and  N_6
REMARK    3  A    between atoms: N_6  and  S_7
REMARK    4  A    between atoms: S_7  and  C_10
REMARK    5  A    between atoms: C_15  and  C_16
REMARK    6  A    between atoms: C_20  and  C_21
REMARK                            x       y       z     vdW  Elec       q    Type
REMARK                         _______ _______ _______ _____ _____    ______ ____
ROOT
ATOM      1  S   UNL     1       2.517   2.917  17.813  0.00  0.00    +0.000 S 
ATOM      2  O   UNL     1       2.463   3.294  16.421  0.00  0.00    +0.000 OA
ATOM      3  O   UNL     1       1.591   1.962  18.380  0.00  0.00    +0.000 OA
ENDROOT
BRANCH   1   4
ATOM      4  C   UNL     1       2.351   4.449  18.735  0.00  0.00    +0.000 A 
ATOM      5  C   UNL     1       2.461   5.648  18.009  0.00  0.00    +0.000 A 
ATOM      6  C   UNL     1       2.404   6.880  18.661  0.00  0.00    +0.000 A 
ATOM      7  C   UNL     1       2.243   6.927  20.039  0.00  0.00    +0.000 A 
ATOM      8  C   UNL     1       2.145   5.742  20.769  0.00  0.00    +0.000 A 
ATOM      9  C   UNL     1       2.198   4.482  20.137  0.00  0.00    +0.000 A 
BRANCH   9  10
ATOM     10  C   UNL     1       2.090   3.279  21.045  0.00  0.00    +0.000 C 
ATOM     11  F   UNL     1       0.932   2.578  20.952  0.00  0.00    +0.000 F 
ATOM     12  F   UNL     1       3.104   2.393  20.877  0.00  0.00    +0.000 F 
ATOM     13  F   UNL     1       2.140   3.654  22.359  0.00  0.00    +0.000 F 
ENDBRANCH   9  10
ENDBRANCH   1   4
BRANCH   1  14
ATOM     14  N   UNL     1       4.104   2.426  18.222  0.00  0.00    +0.000 N 
ATOM     15  H   UNL     1       4.049   2.089  19.189  0.00  0.00    +0.000 HD
BRANCH  14  20
ATOM     16  C   UNL     1       7.154   6.330  17.376  0.00  0.00    +0.000 C 
ATOM     17  C   UNL     1       6.305   5.268  17.960  0.00  0.00    +0.000 A 
ATOM     18  N   UNL     1       6.174   5.174  19.291  0.00  0.00    +0.000 NA
ATOM     19  O   UNL     1       5.344   4.096  19.502  0.00  0.00    +0.000 OA
ATOM     20  C   UNL     1       4.955   3.571  18.309  0.00  0.00    +0.000 A 
ATOM     21  C   UNL     1       5.572   4.249  17.283  0.00  0.00    +0.000 A 
ATOM     22  C   UNL     1       5.533   3.987  15.827  0.00  0.00    +0.000 C 
ENDBRANCH  14  20
ENDBRANCH   1  14
TORSDOF 4
ENDMDL
MODEL 4
REMARK VINA RESULT:      -7.2      3.137      3.881
REMARK  Name = 
REMARK  6 active torsions:
REMARK  status: ('A' for Active; 'I' for Inactive)
REMARK    1  A    between atoms: C_1  and  C_2
REMARK    2  A    between atoms: C_5  and  N_6
REMARK    3  A    between atoms: N_6  and  S_7
REMARK    4  A    between atoms: S_7  and  C_10
REMARK    5  A    between atoms: C_15  and  C_16
REMARK    6  A    between atoms: C_20  and  C_21
REMARK                            x       y       z     vdW  Elec       q    Type
REMARK                         _______ _______ _______ _____ _____    ______ ____
ROOT
ATOM      1  S   UNL     1       4.080   2.931  18.622  0.00  0.00    +0.000 S 
ATOM      2  O   UNL     1       3.133   1.950  18.149  0.00  0.00    +0.000 OA
ATOM      3  O   UNL     1       5.086   2.606  19.608  0.00  0.00    +0.000 OA
ENDROOT
BRANCH   1   4
ATOM      4  C   UNL     1       3.092   4.280  19.278  0.00  0.00    +0.000 A 
ATOM      5  C   UNL     1       3.244   5.539  18.670  0.00  0.00    +0.000 A 
ATOM      6  C   UNL     1       2.558   6.650  19.158  0.00  0.00    +0.000 A 
ATOM      7  C   UNL     1       1.720   6.518  20.258  0.00  0.00    +0.000 A 
ATOM      8  C   UNL     1       1.572   5.276  20.875  0.00  0.00    +0.000 A 
ATOM      9  C   UNL     1       2.252   4.133  20.402  0.00  0.00    +0.000 A 
BRANCH   9  10
ATOM     10  C   UNL     1       2.012   2.853  21.167  0.00  0.00    +0.000 C 
ATOM     11  F   UNL     1       1.504   1.825  20.442  0.00  0.00    +0.000 F 
ATOM     12  F   UNL     1       3.124   2.388  21.790  0.00  0.00    +0.000 F 
ATOM     13  F   UNL     1       1.086   3.043  22.156  0.00  0.00    +0.000 F 
ENDBRANCH   9  10
ENDBRANCH   1   4
BRANCH   1  14
ATOM     14  N   UNL     1       4.860   3.677  17.294  0.00  0.00    +0.000 N 
ATOM     15  H   UNL     1       5.398   2.934  16.836  0.00  0.00    +0.000 HD
BRANCH  14  20
ATOM     16  C   UNL     1       7.991   7.525  18.099  0.00  0.00    +0.000 C 
ATOM     17  C   UNL     1       7.251   6.243  18.122  0.00  0.00    +0.000 A 
ATOM     18  N   UNL     1       7.601   5.284  18.990  0.00  0.00    +0.000 NA
ATOM     19  O   UNL     1       6.740   4.237  18.747  0.00  0.00    +0.000 OA
ATOM     20  C   UNL     1       5.861   4.580  17.768  0.00  0.00    +0.000 A 
ATOM     21  C   UNL     1       6.162   5.836  17.294  0.00  0.00    +0.000 A 
ATOM     22  C   UNL     1       5.551   6.591  16.178  0.00  0.00    +0.000 C 
ENDBRANCH  14  20
ENDBRANCH   1  14
TORSDOF 4
ENDMDL
MODEL 5
REMARK VINA RESULT:      -7.1      3.033      3.437
REMARK  Name = 
REMARK  6 active torsions:
REMARK  status: ('A' for Active; 'I' for Inactive)
REMARK    1  A    between atoms: C_1  and  C_2
REMARK    2  A    between atoms: C_5  and  N_6
REMARK    3  A    between atoms: N_6  and  S_7
REMARK    4  A    between atoms: S_7  and  C_10
REMARK    5  A    between atoms: C_15  and  C_16
REMARK    6  A    between atoms: C_20  and  C_21
REMARK                            x       y       z     vdW  Elec       q    Type
REMARK                         _______ _______ _______ _____ _____    ______ ____
ROOT
ATOM      1  S   UNL     1       4.801   3.574  19.562  0.00  0.00    +0.000 S 
ATOM      2  O   UNL     1       5.187   2.287  20.088  0.00  0.00    +0.000 OA
ATOM      3  O   UNL     1       4.929   4.785  20.342  0.00  0.00    +0.000 OA
ENDROOT
BRANCH   1   4
ATOM      4  C   UNL     1       3.075   3.407  19.095  0.00  0.00    +0.000 A 
ATOM      5  C   UNL     1       2.759   3.591  17.737  0.00  0.00    +0.000 A 
ATOM      6  C   UNL     1       1.435   3.537  17.303  0.00  0.00    +0.000 A 
ATOM      7  C   UNL     1       0.416   3.306  18.218  0.00  0.00    +0.000 A 
ATOM      8  C   UNL     1       0.718   3.135  19.568  0.00  0.00    +0.000 A 
ATOM      9  C   UNL     1       2.048   3.183  20.037  0.00  0.00    +0.000 A 
BRANCH   9  10
ATOM     10  C   UNL     1       2.236   2.993  21.524  0.00  0.00    +0.000 C 
ATOM     11  F   UNL     1       3.171   2.077  21.882  0.00  0.00    +0.000 F 
ATOM     12  F   UNL     1       2.540   4.145  22.174  0.00  0.00    +0.000 F 
ATOM     13  F   UNL     1       1.088   2.532  22.105  0.00  0.00    +0.000 F 
ENDBRANCH   9  10
ENDBRANCH   1   4
BRANCH   1  14
ATOM     14  N   UNL     1       5.554   3.835  18.048  0.00  0.00    +0.000 N 
ATOM     15  H   UNL     1       6.210   3.057  17.927  0.00  0.00    +0.000 HD
BRANCH  14  20
ATOM     16  C   UNL     1       7.790   8.306  17.527  0.00  0.00    +0.000 C 
ATOM     17  C   UNL     1       7.402   6.925  17.893  0.00  0.00    +0.000 A 
ATOM     18  N   UNL     1       8.174   6.213  18.724  0.00  0.00    +0.000 NA
ATOM     19  O   UNL     1       7.552   4.991  18.847  0.00  0.00    +0.000 OA
ATOM     20  C   UNL     1       6.400   4.985  18.123  0.00  0.00    +0.000 A 
ATOM     21  C   UNL     1       6.269   6.179  17.452  0.00  0.00    +0.000 A 
ATOM     22  C   UNL     1       5.238   6.602  16.479  0.00  0.00    +0.000 C 
ENDBRANCH  14  20
ENDBRANCH   1  14
TORSDOF 4
ENDMDL
MODEL 6
REMARK VINA RESULT:      -7.1      2.821      5.934
REMARK  Name = 
REMARK  6 active torsions:
REMARK  status: ('A' for Active; 'I' for Inactive)
REMARK    1  A    between atoms: C_1  and  C_2
REMARK    2  A    between atoms: C_5  and  N_6
REMARK    3  A    between atoms: N_6  and  S_7
REMARK    4  A    between atoms: S_7  and  C_10
REMARK    5  A    between atoms: C_15  and  C_16
REMARK    6  A    between atoms: C_20  and  C_21
REMARK                            x       y       z     vdW  Elec       q    Type
REMARK                         _______ _______ _______ _____ _____    ______ ____
ROOT
ATOM      1  S   UNL     1       5.676   4.720  18.989  0.00  0.00    +0.000 S 
ATOM      2  O   UNL     1       4.500   5.544  19.133  0.00  0.00    +0.000 OA
ATOM      3  O   UNL     1       6.864   4.941  19.784  0.00  0.00    +0.000 OA
ENDROOT
BRANCH   1   4
ATOM      4  C   UNL     1       6.147   4.845  17.260  0.00  0.00    +0.000 A 
ATOM      5  C   UNL     1       5.761   3.790  16.415  0.00  0.00    +0.000 A 
ATOM      6  C   UNL     1       6.139   3.783  15.072  0.00  0.00    +0.000 A 
ATOM      7  C   UNL     1       6.907   4.823  14.564  0.00  0.00    +0.000 A 
ATOM      8  C   UNL     1       7.304   5.867  15.399  0.00  0.00    +0.000 A 
ATOM      9  C   UNL     1       6.936   5.902  16.760  0.00  0.00    +0.000 A 
BRANCH   9  10
ATOM     10  C   UNL     1       7.440   7.084  17.555  0.00  0.00    +0.000 C 
ATOM     11  F   UNL     1       8.209   6.780  18.630  0.00  0.00    +0.000 F 
ATOM     12  F   UNL     1       8.142   7.970  16.803  0.00  0.00    +0.000 F 
ATOM     13  F   UNL     1       6.400   7.793  18.087  0.00  0.00    +0.000 F 
ENDBRANCH   9  10
ENDBRANCH   1   4
BRANCH   1  14
ATOM     14  N   UNL     1       5.249   3.068  19.121  0.00  0.00    +0.000 N 
ATOM     15  H   UNL     1       5.223   2.710  18.161  0.00  0.00    +0.000 HD
BRANCH  14  20
ATOM     16  C   UNL     1       0.248   2.805  19.549  0.00  0.00    +0.000 C 
ATOM     17  C   UNL     1       1.710   2.859  19.772  0.00  0.00    +0.000 A 
ATOM     18  N   UNL     1       2.198   2.810  21.019  0.00  0.00    +0.000 NA
ATOM     19  O   UNL     1       3.565   2.892  20.881  0.00  0.00    +0.000 OA
ATOM     20  C   UNL     1       3.894   2.955  19.563  0.00  0.00    +0.000 A 
ATOM     21  C   UNL     1       2.749   2.983  18.802  0.00  0.00    +0.000 A 
ATOM     22  C   UNL     1       2.597   3.138  17.338  0.00  0.00    +0.000 C 
ENDBRANCH  14  20
ENDBRANCH   1  14
TORSDOF 4
ENDMDL
MODEL 7
REMARK VINA RESULT:      -7.0      2.918      3.850
REMARK  Name = 
REMARK  6 active torsions:
REMARK  status: ('A' for Active; 'I' for Inactive)
REMARK    1  A    between atoms: C_1  and  C_2
REMARK    2  A    between atoms: C_5  and  N_6
REMARK    3  A    between atoms: N_6  and  S_7
REMARK    4  A    between atoms: S_7  and  C_10
REMARK    5  A    between atoms: C_15  and  C_16
REMARK    6  A    between atoms: C_20  and  C_21
REMARK                            x       y       z     vdW  Elec       q    Type
REMARK                         _______ _______ _______ _____ _____    ______ ____
ROOT
ATOM      1  S   UNL     1       2.529   3.055  17.752  0.00  0.00    +0.000 S 
ATOM      2  O   UNL     1       2.330   3.413  16.368  0.00  0.00    +0.000 OA
ATOM      3  O   UNL     1       1.735   2.033  18.397  0.00  0.00    +0.000 OA
ENDROOT
BRANCH   1   4
ATOM      4  C   UNL     1       2.315   4.578  18.681  0.00  0.00    +0.000 A 
ATOM      5  C   UNL     1       2.329   5.780  17.950  0.00  0.00    +0.000 A 
ATOM      6  C   UNL     1       2.229   7.007  18.604  0.00  0.00    +0.000 A 
ATOM      7  C   UNL     1       2.120   7.048  19.988  0.00  0.00    +0.000 A 
ATOM      8  C   UNL     1       2.118   5.862  20.721  0.00  0.00    +0.000 A 
ATOM      9  C   UNL     1       2.216   4.605  20.088  0.00  0.00    +0.000 A 
BRANCH   9  10
ATOM     10  C   UNL     1       2.213   3.400  20.999  0.00  0.00    +0.000 C 
ATOM     11  F   UNL     1       1.109   2.615  20.926  0.00  0.00    +0.000 F 
ATOM     12  F   UNL     1       3.287   2.591  20.817  0.00  0.00    +0.000 F 
ATOM     13  F   UNL     1       2.255   3.781  22.311  0.00  0.00    +0.000 F 
ENDBRANCH   9  10
ENDBRANCH   1   4
BRANCH   1  14
ATOM     14  N   UNL     1       4.180   2.700  18.030  0.00  0.00    +0.000 N 
ATOM     15  H   UNL     1       4.330   2.845  19.034  0.00  0.00    +0.000 HD
BRANCH  14  20
ATOM     16  C   UNL     1       7.188   6.581  16.957  0.00  0.00    +0.000 C 
ATOM     17  C   UNL     1       6.294   5.401  16.925  0.00  0.00    +0.000 A 
ATOM     18  N   UNL     1       5.938   4.865  15.750  0.00  0.00    +0.000 NA
ATOM     19  O   UNL     1       5.108   3.812  16.064  0.00  0.00    +0.000 OA
ATOM     20  C   UNL     1       4.998   3.698  17.415  0.00  0.00    +0.000 A 
ATOM     21  C   UNL     1       5.698   4.714  18.024  0.00  0.00    +0.000 A 
ATOM     22  C   UNL     1       5.798   5.057  19.460  0.00  0.00    +0.000 C 
ENDBRANCH  14  20
ENDBRANCH   1  14
TORSDOF 4
ENDMDL
MODEL 8
REMARK VINA RESULT:      -7.0      2.936      3.950
REMARK  Name = 
REMARK  6 active torsions:
REMARK  status: ('A' for Active; 'I' for Inactive)
REMARK    1  A    between atoms: C_1  and  C_2
REMARK    2  A    between atoms: C_5  and  N_6
REMARK    3  A    between atoms: N_6  and  S_7
REMARK    4  A    between atoms: S_7  and  C_10
REMARK    5  A    between atoms: C_15  and  C_16
REMARK    6  A    between atoms: C_20  and  C_21
REMARK                            x       y       z     vdW  Elec       q    Type
REMARK                         _______ _______ _______ _____ _____    ______ ____
ROOT
ATOM      1  S   UNL     1       3.234   3.304  17.550  0.00  0.00    +0.000 S 
ATOM      2  O   UNL     1       3.523   3.937  16.286  0.00  0.00    +0.000 OA
ATOM      3  O   UNL     1       2.279   2.224  17.660  0.00  0.00    +0.000 OA
ENDROOT
BRANCH   1   4
ATOM      4  C   UNL     1       2.691   4.624  18.640  0.00  0.00    +0.000 A 
ATOM      5  C   UNL     1       2.836   5.941  18.169  0.00  0.00    +0.000 A 
ATOM      6  C   UNL     1       2.494   7.024  18.978  0.00  0.00    +0.000 A 
ATOM      7  C   UNL     1       2.010   6.805  20.261  0.00  0.00    +0.000 A 
ATOM      8  C   UNL     1       1.874   5.502  20.740  0.00  0.00    +0.000 A 
ATOM      9  C   UNL     1       2.211   4.386  19.945  0.00  0.00    +0.000 A 
BRANCH   9  10
ATOM     10  C   UNL     1       2.027   3.032  20.588  0.00  0.00    +0.000 C 
ATOM     11  F   UNL     1       1.585   3.049  21.870  0.00  0.00    +0.000 F 
ATOM     12  F   UNL     1       1.191   2.221  19.892  0.00  0.00    +0.000 F 
ATOM     13  F   UNL     1       3.216   2.361  20.661  0.00  0.00    +0.000 F 
ENDBRANCH   9  10
ENDBRANCH   1   4
BRANCH   1  14
ATOM     14  N   UNL     1       4.690   2.803  18.298  0.00  0.00    +0.000 N 
ATOM     15  H   UNL     1       4.423   2.473  19.231  0.00  0.00    +0.000 HD
BRANCH  14  20
ATOM     16  C   UNL     1       7.865   6.695  18.110  0.00  0.00    +0.000 C 
ATOM     17  C   UNL     1       6.911   5.633  18.504  0.00  0.00    +0.000 A 
ATOM     18  N   UNL     1       6.518   5.530  19.781  0.00  0.00    +0.000 NA
ATOM     19  O   UNL     1       5.658   4.455  19.814  0.00  0.00    +0.000 OA
ATOM     20  C   UNL     1       5.512   3.942  18.562  0.00  0.00    +0.000 A 
ATOM     21  C   UNL     1       6.323   4.624  17.685  0.00  0.00    +0.000 A 
ATOM     22  C   UNL     1       6.572   4.375  16.248  0.00  0.00    +0.000 C 
ENDBRANCH  14  20
ENDBRANCH   1  14
TORSDOF 4
ENDMDL
MODEL 9
REMARK VINA RESULT:      -7.0      2.948      3.592
REMARK  Name = 
REMARK  6 active torsions:
REMARK  status: ('A' for Active; 'I' for Inactive)
REMARK    1  A    between atoms: C_1  and  C_2
REMARK    2  A    between atoms: C_5  and  N_6
REMARK    3  A    between atoms: N_6  and  S_7
REMARK    4  A    between atoms: S_7  and  C_10
REMARK    5  A    between atoms: C_15  and  C_16
REMARK    6  A    between atoms: C_20  and  C_21
REMARK                            x       y       z     vdW  Elec       q    Type
REMARK                         _______ _______ _______ _____ _____    ______ ____
ROOT
ATOM      1  S   UNL     1       6.232   6.780  16.263  0.00  0.00    +0.000 S 
ATOM      2  O   UNL     1       6.818   7.925  16.916  0.00  0.00    +0.000 OA
ATOM      3  O   UNL     1       5.341   6.920  15.132  0.00  0.00    +0.000 OA
ENDROOT
BRANCH   1   4
ATOM      4  C   UNL     1       5.346   5.891  17.547  0.00  0.00    +0.000 A 
ATOM      5  C   UNL     1       3.961   5.719  17.367  0.00  0.00    +0.000 A 
ATOM      6  C   UNL     1       3.192   5.093  18.347  0.00  0.00    +0.000 A 
ATOM      7  C   UNL     1       3.792   4.639  19.514  0.00  0.00    +0.000 A 
ATOM      8  C   UNL     1       5.162   4.816  19.706  0.00  0.00    +0.000 A 
ATOM      9  C   UNL     1       5.967   5.445  18.733  0.00  0.00    +0.000 A 
BRANCH   9  10
ATOM     10  C   UNL     1       7.433   5.582  19.071  0.00  0.00    +0.000 C 
ATOM     11  F   UNL     1       7.993   6.779  18.765  0.00  0.00    +0.000 F 
ATOM     12  F   UNL     1       7.702   5.341  20.379  0.00  0.00    +0.000 F 
ATOM     13  F   UNL     1       8.182   4.682  18.366  0.00  0.00    +0.000 F 
ENDBRANCH   9  10
ENDBRANCH   1   4
BRANCH   1  14
ATOM     14  N   UNL     1       7.456   5.661  15.838  0.00  0.00    +0.000 N 
ATOM     15  H   UNL     1       8.292   6.223  15.649  0.00  0.00    +0.000 HD
BRANCH  14  20
ATOM     16  C   UNL     1       5.739   2.861  12.034  0.00  0.00    +0.000 C 
ATOM     17  C   UNL     1       6.427   3.844  12.901  0.00  0.00    +0.000 A 
ATOM     18  N   UNL     1       7.290   4.718  12.365  0.00  0.00    +0.000 NA
ATOM     19  O   UNL     1       7.756   5.468  13.422  0.00  0.00    +0.000 OA
ATOM     20  C   UNL     1       7.150   5.070  14.573  0.00  0.00    +0.000 A 
ATOM     21  C   UNL     1       6.321   4.003  14.315  0.00  0.00    +0.000 A 
ATOM     22  C   UNL     1       5.529   3.179  15.254  0.00  0.00    +0.000 C 
ENDBRANCH  14  20
ENDBRANCH   1  14
TORSDOF 4
ENDMDL
