MODEL 1
REMARK VINA RESULT:      -7.5      0.000      0.000
REMARK  Name = 
REMARK  3 active torsions:
REMARK  status: ('A' for Active; 'I' for Inactive)
REMARK    1  A    between atoms: C_2  and  C_5
REMARK    2  A    between atoms: C_8  and  C_9
REMARK    3  A    between atoms: C_9  and  N_10
REMARK                            x       y       z     vdW  Elec       q    Type
REMARK                         _______ _______ _______ _____ _____    ______ ____
ROOT
ATOM      1  N   UNL     1       1.352   8.884  19.414  0.00  0.00    +0.000 N 
ATOM      2  C   UNL     1       1.910   9.162  18.192  0.00  0.00    +0.000 A 
ATOM      3  N   UNL     1       2.692   8.187  17.775  0.00  0.00    +0.000 NA
ATOM      4  C   UNL     1       2.671   7.255  18.782  0.00  0.00    +0.000 A 
ATOM      5  C   UNL     1       1.899   7.704  19.833  0.00  0.00    +0.000 A 
ATOM      6  C   UNL     1       1.646   6.949  21.082  0.00  0.00    +0.000 C 
ATOM      7  C   UNL     1       2.046   5.468  20.885  0.00  0.00    +0.000 C 
ATOM      8  N   UNL     1       3.235   5.249  20.041  0.00  0.00    +0.000 NA
ATOM      9  C   UNL     1       3.130   5.815  18.656  0.00  0.00    +0.000 C 
ATOM     10  C   UNL     1       2.083   5.103  17.768  0.00  0.00    +0.000 C 
ATOM     11  C   UNL     1       2.470   3.685  17.409  0.00  0.00    +0.000 C 
ATOM     12  O   UNL     1       3.763   3.641  16.814  0.00  0.00    +0.000 OA
ATOM     13  C   UNL     1       4.782   4.182  17.657  0.00  0.00    +0.000 C 
ATOM     14  C   UNL     1       4.510   5.649  17.987  0.00  0.00    +0.000 C 
ATOM     15  H   UNL     1       3.433   4.254  19.997  0.00  0.00    +0.000 HD
ENDROOT
BRANCH   1  16
ATOM     16  C   UNL     1       0.357   9.690  20.100  0.00  0.00    +0.000 C 
BRANCH  16  20
ATOM     17  C   UNL     1      -1.918  11.137  17.573  0.00  0.00    +0.000 A 
ATOM     18  C   UNL     1      -1.442  12.384  17.932  0.00  0.00    +0.000 A 
ATOM     19  S   UNL     1      -0.244  12.247  19.148  0.00  0.00    +0.000 S 
ATOM     20  C   UNL     1      -0.425  10.535  19.138  0.00  0.00    +0.000 A 
ATOM     21  N   UNL     1      -1.332  10.084  18.293  0.00  0.00    +0.000 NA
BRANCH  17  23
ATOM     22  F   UNL     1      -2.528  11.129  15.276  0.00  0.00    +0.000 F 
ATOM     23  C   UNL     1      -2.977  10.874  16.536  0.00  0.00    +0.000 C 
ATOM     24  F   UNL     1      -4.079  11.650  16.715  0.00  0.00    +0.000 F 
ATOM     25  F   UNL     1      -3.395   9.581  16.541  0.00  0.00    +0.000 F 
ENDBRANCH  17  23
ENDBRANCH  16  20
ENDBRANCH   1  16
TORSDOF 3
ENDMDL
MODEL 2
REMARK VINA RESULT:      -7.3      5.855      7.541
REMARK  Name = 
REMARK  3 active torsions:
REMARK  status: ('A' for Active; 'I' for Inactive)
REMARK    1  A    between atoms: C_2  and  C_5
REMARK    2  A    between atoms: C_8  and  C_9
REMARK    3  A    between atoms: C_9  and  N_10
REMARK                            x       y       z     vdW  Elec       q    Type
REMARK                         _______ _______ _______ _____ _____    ______ ____
ROOT
ATOM      1  N   UNL     1       4.408   6.118  17.099  0.00  0.00    +0.000 N 
ATOM      2  C   UNL     1       3.610   6.955  17.836  0.00  0.00    +0.000 A 
ATOM      3  N   UNL     1       2.743   6.289  18.570  0.00  0.00    +0.000 NA
ATOM      4  C   UNL     1       2.960   4.968  18.270  0.00  0.00    +0.000 A 
ATOM      5  C   UNL     1       3.943   4.851  17.310  0.00  0.00    +0.000 A 
ATOM      6  C   UNL     1       4.440   3.569  16.758  0.00  0.00    +0.000 C 
ATOM      7  C   UNL     1       3.983   2.401  17.664  0.00  0.00    +0.000 C 
ATOM      8  N   UNL     1       2.640   2.554  18.251  0.00  0.00    +0.000 NA
ATOM      9  C   UNL     1       2.461   3.789  19.084  0.00  0.00    +0.000 C 
ATOM     10  C   UNL     1       3.286   3.785  20.392  0.00  0.00    +0.000 C 
ATOM     11  C   UNL     1       2.809   2.759  21.396  0.00  0.00    +0.000 C 
ATOM     12  O   UNL     1       1.420   2.913  21.666  0.00  0.00    +0.000 OA
ATOM     13  C   UNL     1       0.610   2.801  20.495  0.00  0.00    +0.000 C 
ATOM     14  C   UNL     1       0.968   3.872  19.465  0.00  0.00    +0.000 C 
ATOM     15  H   UNL     1       2.422   1.728  18.800  0.00  0.00    +0.000 HD
ENDROOT
BRANCH   1  16
ATOM     16  C   UNL     1       5.538   6.519  16.279  0.00  0.00    +0.000 C 
BRANCH  16  20
ATOM     17  C   UNL     1       8.052   8.580  18.037  0.00  0.00    +0.000 A 
ATOM     18  C   UNL     1       8.398   7.452  18.758  0.00  0.00    +0.000 A 
ATOM     19  S   UNL     1       7.467   6.105  18.259  0.00  0.00    +0.000 S 
ATOM     20  C   UNL     1       6.646   7.094  17.113  0.00  0.00    +0.000 A 
ATOM     21  N   UNL     1       7.026   8.357  17.105  0.00  0.00    +0.000 NA
BRANCH  17  23
ATOM     22  F   UNL     1       8.906  10.233  19.517  0.00  0.00    +0.000 F 
ATOM     23  C   UNL     1       8.663   9.945  18.208  0.00  0.00    +0.000 C 
ATOM     24  F   UNL     1       7.856  10.933  17.740  0.00  0.00    +0.000 F 
ATOM     25  F   UNL     1       9.853  10.062  17.562  0.00  0.00    +0.000 F 
ENDBRANCH  17  23
ENDBRANCH  16  20
ENDBRANCH   1  16
TORSDOF 3
ENDMDL
MODEL 3
REMARK VINA RESULT:      -7.2      6.116      8.172
REMARK  Name = 
REMARK  3 active torsions:
REMARK  status: ('A' for Active; 'I' for Inactive)
REMARK    1  A    between atoms: C_2  and  C_5
REMARK    2  A    between atoms: C_8  and  C_9
REMARK    3  A    between atoms: C_9  and  N_10
REMARK                            x       y       z     vdW  Elec       q    Type
REMARK                         _______ _______ _______ _____ _____    ______ ____
ROOT
ATOM      1  N   UNL     1       5.964   5.410  18.268  0.00  0.00    +0.000 N 
ATOM      2  C   UNL     1       6.338   4.322  19.014  0.00  0.00    +0.000 A 
ATOM      3  N   UNL     1       5.322   3.808  19.677  0.00  0.00    +0.000 NA
ATOM      4  C   UNL     1       4.253   4.616  19.379  0.00  0.00    +0.000 A 
ATOM      5  C   UNL     1       4.652   5.652  18.560  0.00  0.00    +0.000 A 
ATOM      6  C   UNL     1       3.756   6.708  18.033  0.00  0.00    +0.000 C 
ATOM      7  C   UNL     1       2.281   6.276  18.213  0.00  0.00    +0.000 C 
ATOM      8  N   UNL     1       1.997   5.527  19.449  0.00  0.00    +0.000 NA
ATOM      9  C   UNL     1       2.796   4.268  19.614  0.00  0.00    +0.000 C 
ATOM     10  C   UNL     1       2.443   3.165  18.588  0.00  0.00    +0.000 C 
ATOM     11  C   UNL     1       1.060   2.586  18.786  0.00  0.00    +0.000 C 
ATOM     12  O   UNL     1       0.884   2.122  20.121  0.00  0.00    +0.000 OA
ATOM     13  C   UNL     1       1.083   3.146  21.097  0.00  0.00    +0.000 C 
ATOM     14  C   UNL     1       2.499   3.717  21.024  0.00  0.00    +0.000 C 
ATOM     15  H   UNL     1       1.004   5.317  19.489  0.00  0.00    +0.000 HD
ENDROOT
BRANCH   1  16
ATOM     16  C   UNL     1       6.809   6.135  17.335  0.00  0.00    +0.000 C 
BRANCH  16  20
ATOM     17  C   UNL     1       7.270   5.074  13.825  0.00  0.00    +0.000 A 
ATOM     18  C   UNL     1       6.261   4.151  14.025  0.00  0.00    +0.000 A 
ATOM     19  S   UNL     1       5.641   4.267  15.617  0.00  0.00    +0.000 S 
ATOM     20  C   UNL     1       6.751   5.537  15.960  0.00  0.00    +0.000 A 
ATOM     21  N   UNL     1       7.551   5.852  14.960  0.00  0.00    +0.000 NA
BRANCH  17  23
ATOM     22  F   UNL     1       7.746   6.438  11.938  0.00  0.00    +0.000 F 
ATOM     23  C   UNL     1       8.044   5.257  12.547  0.00  0.00    +0.000 C 
ATOM     24  F   UNL     1       7.779   4.280  11.640  0.00  0.00    +0.000 F 
ATOM     25  F   UNL     1       9.387   5.257  12.752  0.00  0.00    +0.000 F 
ENDBRANCH  17  23
ENDBRANCH  16  20
ENDBRANCH   1  16
TORSDOF 3
ENDMDL
MODEL 4
REMARK VINA RESULT:      -7.1      4.649      7.311
REMARK  Name = 
REMARK  3 active torsions:
REMARK  status: ('A' for Active; 'I' for Inactive)
REMARK    1  A    between atoms: C_2  and  C_5
REMARK    2  A    between atoms: C_8  and  C_9
REMARK    3  A    between atoms: C_9  and  N_10
REMARK                            x       y       z     vdW  Elec       q    Type
REMARK                         _______ _______ _______ _____ _____    ______ ____
ROOT
ATOM      1  N   UNL     1       2.668   7.763  18.752  0.00  0.00    +0.000 N 
ATOM      2  C   UNL     1       2.515   8.415  17.556  0.00  0.00    +0.000 A 
ATOM      3  N   UNL     1       1.572   9.333  17.614  0.00  0.00    +0.000 NA
ATOM      4  C   UNL     1       1.067   9.248  18.887  0.00  0.00    +0.000 A 
ATOM      5  C   UNL     1       1.691   8.234  19.582  0.00  0.00    +0.000 A 
ATOM      6  C   UNL     1       1.402   7.867  20.988  0.00  0.00    +0.000 C 
ATOM      7  C   UNL     1       0.598   9.002  21.667  0.00  0.00    +0.000 C 
ATOM      8  N   UNL     1      -0.380   9.680  20.797  0.00  0.00    +0.000 NA
ATOM      9  C   UNL     1       0.206  10.299  19.563  0.00  0.00    +0.000 C 
ATOM     10  C   UNL     1       1.135  11.502  19.848  0.00  0.00    +0.000 C 
ATOM     11  C   UNL     1       0.399  12.711  20.384  0.00  0.00    +0.000 C 
ATOM     12  O   UNL     1      -0.673  13.082  19.524  0.00  0.00    +0.000 OA
ATOM     13  C   UNL     1      -1.622  12.031  19.332  0.00  0.00    +0.000 C 
ATOM     14  C   UNL     1      -0.970  10.801  18.699  0.00  0.00    +0.000 C 
ATOM     15  H   UNL     1      -0.874  10.383  21.339  0.00  0.00    +0.000 HD
ENDROOT
BRANCH   1  16
ATOM     16  C   UNL     1       3.692   6.781  19.062  0.00  0.00    +0.000 C 
BRANCH  16  20
ATOM     17  C   UNL     1       2.124   3.450  18.737  0.00  0.00    +0.000 A 
ATOM     18  C   UNL     1       2.862   3.271  17.582  0.00  0.00    +0.000 A 
ATOM     19  S   UNL     1       3.857   4.632  17.283  0.00  0.00    +0.000 S 
ATOM     20  C   UNL     1       3.251   5.392  18.704  0.00  0.00    +0.000 A 
ATOM     21  N   UNL     1       2.348   4.688  19.360  0.00  0.00    +0.000 NA
BRANCH  17  23
ATOM     22  F   UNL     1       0.120   2.206  18.444  0.00  0.00    +0.000 F 
ATOM     23  C   UNL     1       1.142   2.461  19.306  0.00  0.00    +0.000 C 
ATOM     24  F   UNL     1       0.572   2.904  20.457  0.00  0.00    +0.000 F 
ATOM     25  F   UNL     1       1.719   1.262  19.583  0.00  0.00    +0.000 F 
ENDBRANCH  17  23
ENDBRANCH  16  20
ENDBRANCH   1  16
TORSDOF 3
ENDMDL
MODEL 5
REMARK VINA RESULT:      -7.0      5.250      7.936
REMARK  Name = 
REMARK  3 active torsions:
REMARK  status: ('A' for Active; 'I' for Inactive)
REMARK    1  A    between atoms: C_2  and  C_5
REMARK    2  A    between atoms: C_8  and  C_9
REMARK    3  A    between atoms: C_9  and  N_10
REMARK                            x       y       z     vdW  Elec       q    Type
REMARK                         _______ _______ _______ _____ _____    ______ ____
ROOT
ATOM      1  N   UNL     1       2.458   7.468  19.072  0.00  0.00    +0.000 N 
ATOM      2  C   UNL     1       2.513   7.929  17.782  0.00  0.00    +0.000 A 
ATOM      3  N   UNL     1       1.775   9.008  17.613  0.00  0.00    +0.000 NA
ATOM      4  C   UNL     1       1.189   9.235  18.833  0.00  0.00    +0.000 A 
ATOM      5  C   UNL     1       1.550   8.250  19.728  0.00  0.00    +0.000 A 
ATOM      6  C   UNL     1       1.110   8.186  21.141  0.00  0.00    +0.000 C 
ATOM      7  C   UNL     1       0.516   9.551  21.563  0.00  0.00    +0.000 C 
ATOM      8  N   UNL     1      -0.250  10.249  20.515  0.00  0.00    +0.000 NA
ATOM      9  C   UNL     1       0.522  10.529  19.260  0.00  0.00    +0.000 C 
ATOM     10  C   UNL     1       1.658  11.562  19.443  0.00  0.00    +0.000 C 
ATOM     11  C   UNL     1       1.154  12.962  19.719  0.00  0.00    +0.000 C 
ATOM     12  O   UNL     1       0.233  13.382  18.719  0.00  0.00    +0.000 OA
ATOM     13  C   UNL     1      -0.897  12.516  18.602  0.00  0.00    +0.000 C 
ATOM     14  C   UNL     1      -0.473  11.096  18.226  0.00  0.00    +0.000 C 
ATOM     15  H   UNL     1      -0.622  11.114  20.896  0.00  0.00    +0.000 HD
ENDROOT
BRANCH   1  16
ATOM     16  C   UNL     1       3.240   6.374  19.620  0.00  0.00    +0.000 C 
BRANCH  16  20
ATOM     17  C   UNL     1       5.639   4.918  17.214  0.00  0.00    +0.000 A 
ATOM     18  C   UNL     1       4.637   4.054  16.816  0.00  0.00    +0.000 A 
ATOM     19  S   UNL     1       3.192   4.363  17.680  0.00  0.00    +0.000 S 
ATOM     20  C   UNL     1       3.975   5.630  18.544  0.00  0.00    +0.000 A 
ATOM     21  N   UNL     1       5.243   5.808  18.226  0.00  0.00    +0.000 NA
BRANCH  17  23
ATOM     22  F   UNL     1       7.525   6.204  16.551  0.00  0.00    +0.000 F 
ATOM     23  C   UNL     1       7.043   4.936  16.671  0.00  0.00    +0.000 C 
ATOM     24  F   UNL     1       7.124   4.376  15.435  0.00  0.00    +0.000 F 
ATOM     25  F   UNL     1       7.914   4.267  17.470  0.00  0.00    +0.000 F 
ENDBRANCH  17  23
ENDBRANCH  16  20
ENDBRANCH   1  16
TORSDOF 3
ENDMDL
MODEL 6
REMARK VINA RESULT:      -6.9      5.848      7.883
REMARK  Name = 
REMARK  3 active torsions:
REMARK  status: ('A' for Active; 'I' for Inactive)
REMARK    1  A    between atoms: C_2  and  C_5
REMARK    2  A    between atoms: C_8  and  C_9
REMARK    3  A    between atoms: C_9  and  N_10
REMARK                            x       y       z     vdW  Elec       q    Type
REMARK                         _______ _______ _______ _____ _____    ______ ____
ROOT
ATOM      1  N   UNL     1       5.046   5.110  16.786  0.00  0.00    +0.000 N 
ATOM      2  C   UNL     1       5.310   3.779  16.987  0.00  0.00    +0.000 A 
ATOM      3  N   UNL     1       4.705   3.314  18.061  0.00  0.00    +0.000 NA
ATOM      4  C   UNL     1       4.052   4.394  18.600  0.00  0.00    +0.000 A 
ATOM      5  C   UNL     1       4.309   5.527  17.858  0.00  0.00    +0.000 A 
ATOM      6  C   UNL     1       3.758   6.872  18.146  0.00  0.00    +0.000 C 
ATOM      7  C   UNL     1       2.580   6.749  19.142  0.00  0.00    +0.000 C 
ATOM      8  N   UNL     1       2.742   5.710  20.175  0.00  0.00    +0.000 NA
ATOM      9  C   UNL     1       2.949   4.324  19.639  0.00  0.00    +0.000 C 
ATOM     10  C   UNL     1       1.710   3.743  18.918  0.00  0.00    +0.000 C 
ATOM     11  C   UNL     1       0.554   3.458  19.851  0.00  0.00    +0.000 C 
ATOM     12  O   UNL     1       0.960   2.623  20.930  0.00  0.00    +0.000 OA
ATOM     13  C   UNL     1       2.026   3.184  21.698  0.00  0.00    +0.000 C 
ATOM     14  C   UNL     1       3.270   3.411  20.840  0.00  0.00    +0.000 C 
ATOM     15  H   UNL     1       1.936   5.728  20.793  0.00  0.00    +0.000 HD
ENDROOT
BRANCH   1  16
ATOM     16  C   UNL     1       5.459   5.897  15.638  0.00  0.00    +0.000 C 
BRANCH  16  20
ATOM     17  C   UNL     1       5.385   3.791  12.601  0.00  0.00    +0.000 A 
ATOM     18  C   UNL     1       6.767   3.826  12.606  0.00  0.00    +0.000 A 
ATOM     19  S   UNL     1       7.346   4.727  13.941  0.00  0.00    +0.000 S 
ATOM     20  C   UNL     1       5.727   5.029  14.443  0.00  0.00    +0.000 A 
ATOM     21  N   UNL     1       4.803   4.507  13.660  0.00  0.00    +0.000 NA
BRANCH  17  23
ATOM     22  F   UNL     1       4.347   3.855  10.464  0.00  0.00    +0.000 F 
ATOM     23  C   UNL     1       4.534   3.091  11.576  0.00  0.00    +0.000 C 
ATOM     24  F   UNL     1       3.295   2.794  12.051  0.00  0.00    +0.000 F 
ATOM     25  F   UNL     1       5.089   1.925  11.153  0.00  0.00    +0.000 F 
ENDBRANCH  17  23
ENDBRANCH  16  20
ENDBRANCH   1  16
TORSDOF 3
ENDMDL
MODEL 7
REMARK VINA RESULT:      -6.8      4.940      7.678
REMARK  Name = 
REMARK  3 active torsions:
REMARK  status: ('A' for Active; 'I' for Inactive)
REMARK    1  A    between atoms: C_2  and  C_5
REMARK    2  A    between atoms: C_8  and  C_9
REMARK    3  A    between atoms: C_9  and  N_10
REMARK                            x       y       z     vdW  Elec       q    Type
REMARK                         _______ _______ _______ _____ _____    ______ ____
ROOT
ATOM      1  N   UNL     1       2.145   7.818  19.175  0.00  0.00    +0.000 N 
ATOM      2  C   UNL     1       2.122   8.297  17.890  0.00  0.00    +0.000 A 
ATOM      3  N   UNL     1       1.412   9.402  17.790  0.00  0.00    +0.000 NA
ATOM      4  C   UNL     1       0.925   9.631  19.053  0.00  0.00    +0.000 A 
ATOM      5  C   UNL     1       1.316   8.621  19.906  0.00  0.00    +0.000 A 
ATOM      6  C   UNL     1       0.978   8.550  21.347  0.00  0.00    +0.000 C 
ATOM      7  C   UNL     1       0.465   9.928  21.828  0.00  0.00    +0.000 C 
ATOM      8  N   UNL     1      -0.351  10.668  20.848  0.00  0.00    +0.000 NA
ATOM      9  C   UNL     1       0.337  10.940  19.544  0.00  0.00    +0.000 C 
ATOM     10  C   UNL     1       1.519  11.931  19.656  0.00  0.00    +0.000 C 
ATOM     11  C   UNL     1       1.087  13.343  19.986  0.00  0.00    +0.000 C 
ATOM     12  O   UNL     1       0.110  13.810  19.061  0.00  0.00    +0.000 OA
ATOM     13  C   UNL     1      -1.055  12.984  19.017  0.00  0.00    +0.000 C 
ATOM     14  C   UNL     1      -0.710  11.557  18.593  0.00  0.00    +0.000 C 
ATOM     15  H   UNL     1      -0.663  11.539  21.267  0.00  0.00    +0.000 HD
ENDROOT
BRANCH   1  16
ATOM     16  C   UNL     1       2.926   6.690  19.650  0.00  0.00    +0.000 C 
BRANCH  16  20
ATOM     17  C   UNL     1       4.388   4.774  16.847  0.00  0.00    +0.000 A 
ATOM     18  C   UNL     1       3.351   3.871  16.991  0.00  0.00    +0.000 A 
ATOM     19  S   UNL     1       2.291   4.360  18.243  0.00  0.00    +0.000 S 
ATOM     20  C   UNL     1       3.268   5.748  18.533  0.00  0.00    +0.000 A 
ATOM     21  N   UNL     1       4.332   5.841  17.759  0.00  0.00    +0.000 NA
BRANCH  17  23
ATOM     22  F   UNL     1       5.084   4.126  14.669  0.00  0.00    +0.000 F 
ATOM     23  C   UNL     1       5.506   4.665  15.846  0.00  0.00    +0.000 C 
ATOM     24  F   UNL     1       6.520   3.875  16.289  0.00  0.00    +0.000 F 
ATOM     25  F   UNL     1       6.047   5.874  15.542  0.00  0.00    +0.000 F 
ENDBRANCH  17  23
ENDBRANCH  16  20
ENDBRANCH   1  16
TORSDOF 3
ENDMDL
MODEL 8
REMARK VINA RESULT:      -6.8      2.983      3.381
REMARK  Name = 
REMARK  3 active torsions:
REMARK  status: ('A' for Active; 'I' for Inactive)
REMARK    1  A    between atoms: C_2  and  C_5
REMARK    2  A    between atoms: C_8  and  C_9
REMARK    3  A    between atoms: C_9  and  N_10
REMARK                            x       y       z     vdW  Elec       q    Type
REMARK                         _______ _______ _______ _____ _____    ______ ____
ROOT
ATOM      1  N   UNL     1       1.170   9.181  19.069  0.00  0.00    +0.000 N 
ATOM      2  C   UNL     1       1.696   9.358  17.816  0.00  0.00    +0.000 A 
ATOM      3  N   UNL     1       2.509   8.377  17.480  0.00  0.00    +0.000 NA
ATOM      4  C   UNL     1       2.540   7.548  18.574  0.00  0.00    +0.000 A 
ATOM      5  C   UNL     1       1.768   8.069  19.590  0.00  0.00    +0.000 A 
ATOM      6  C   UNL     1       1.565   7.432  20.913  0.00  0.00    +0.000 C 
ATOM      7  C   UNL     1       2.019   5.954  20.852  0.00  0.00    +0.000 C 
ATOM      8  N   UNL     1       3.202   5.698  20.011  0.00  0.00    +0.000 NA
ATOM      9  C   UNL     1       3.053   6.120  18.580  0.00  0.00    +0.000 C 
ATOM     10  C   UNL     1       2.020   5.286  17.786  0.00  0.00    +0.000 C 
ATOM     11  C   UNL     1       2.456   3.855  17.559  0.00  0.00    +0.000 C 
ATOM     12  O   UNL     1       3.739   3.801  16.946  0.00  0.00    +0.000 OA
ATOM     13  C   UNL     1       4.750   4.459  17.712  0.00  0.00    +0.000 C 
ATOM     14  C   UNL     1       4.427   5.941  17.903  0.00  0.00    +0.000 C 
ATOM     15  H   UNL     1       3.437   4.711  20.061  0.00  0.00    +0.000 HD
ENDROOT
BRANCH   1  16
ATOM     16  C   UNL     1       0.156  10.013  19.693  0.00  0.00    +0.000 C 
BRANCH  16  20
ATOM     17  C   UNL     1       1.199  13.458  18.853  0.00  0.00    +0.000 A 
ATOM     18  C   UNL     1      -0.065  13.658  18.329  0.00  0.00    +0.000 A 
ATOM     19  S   UNL     1      -1.027  12.255  18.515  0.00  0.00    +0.000 S 
ATOM     20  C   UNL     1       0.290  11.449  19.278  0.00  0.00    +0.000 A 
ATOM     21  N   UNL     1       1.390  12.170  19.379  0.00  0.00    +0.000 NA
BRANCH  17  23
ATOM     22  F   UNL     1       1.880  15.690  19.304  0.00  0.00    +0.000 F 
ATOM     23  C   UNL     1       2.309  14.474  18.864  0.00  0.00    +0.000 C 
ATOM     24  F   UNL     1       2.835  14.677  17.628  0.00  0.00    +0.000 F 
ATOM     25  F   UNL     1       3.334  14.110  19.679  0.00  0.00    +0.000 F 
ENDBRANCH  17  23
ENDBRANCH  16  20
ENDBRANCH   1  16
TORSDOF 3
ENDMDL
MODEL 9
REMARK VINA RESULT:      -6.8      1.464      2.417
REMARK  Name = 
REMARK  3 active torsions:
REMARK  status: ('A' for Active; 'I' for Inactive)
REMARK    1  A    between atoms: C_2  and  C_5
REMARK    2  A    between atoms: C_8  and  C_9
REMARK    3  A    between atoms: C_9  and  N_10
REMARK                            x       y       z     vdW  Elec       q    Type
REMARK                         _______ _______ _______ _____ _____    ______ ____
ROOT
ATOM      1  N   UNL     1       1.572   8.460  20.191  0.00  0.00    +0.000 N 
ATOM      2  C   UNL     1       1.161   7.513  21.094  0.00  0.00    +0.000 A 
ATOM      3  N   UNL     1       1.511   6.298  20.726  0.00  0.00    +0.000 NA
ATOM      4  C   UNL     1       2.144   6.457  19.519  0.00  0.00    +0.000 A 
ATOM      5  C   UNL     1       2.129   7.784  19.143  0.00  0.00    +0.000 A 
ATOM      6  C   UNL     1       2.731   8.319  17.900  0.00  0.00    +0.000 C 
ATOM      7  C   UNL     1       3.687   7.266  17.290  0.00  0.00    +0.000 C 
ATOM      8  N   UNL     1       3.245   5.867  17.429  0.00  0.00    +0.000 NA
ATOM      9  C   UNL     1       3.022   5.421  18.844  0.00  0.00    +0.000 C 
ATOM     10  C   UNL     1       4.319   5.339  19.684  0.00  0.00    +0.000 C 
ATOM     11  C   UNL     1       5.250   4.233  19.238  0.00  0.00    +0.000 C 
ATOM     12  O   UNL     1       4.579   2.979  19.206  0.00  0.00    +0.000 OA
ATOM     13  C   UNL     1       3.441   2.979  18.342  0.00  0.00    +0.000 C 
ATOM     14  C   UNL     1       2.403   4.009  18.788  0.00  0.00    +0.000 C 
ATOM     15  H   UNL     1       3.919   5.259  16.974  0.00  0.00    +0.000 HD
ENDROOT
BRANCH   1  16
ATOM     16  C   UNL     1       1.452   9.899  20.350  0.00  0.00    +0.000 C 
BRANCH  16  20
ATOM     17  C   UNL     1      -1.703  10.568  18.544  0.00  0.00    +0.000 A 
ATOM     18  C   UNL     1      -1.964  11.559  19.472  0.00  0.00    +0.000 A 
ATOM     19  S   UNL     1      -0.686  11.681  20.603  0.00  0.00    +0.000 S 
ATOM     20  C   UNL     1       0.149  10.405  19.804  0.00  0.00    +0.000 A 
ATOM     21  N   UNL     1      -0.487   9.901  18.764  0.00  0.00    +0.000 NA
BRANCH  17  23
ATOM     22  F   UNL     1      -3.511   9.231  17.773  0.00  0.00    +0.000 F 
ATOM     23  C   UNL     1      -2.606  10.181  17.404  0.00  0.00    +0.000 C 
ATOM     24  F   UNL     1      -1.917   9.666  16.352  0.00  0.00    +0.000 F 
ATOM     25  F   UNL     1      -3.324  11.234  16.934  0.00  0.00    +0.000 F 
ENDBRANCH  17  23
ENDBRANCH  16  20
ENDBRANCH   1  16
TORSDOF 3
ENDMDL
