MODEL 1
REMARK VINA RESULT:      -8.6      0.000      0.000
REMARK  Name = 
REMARK  7 active torsions:
REMARK  status: ('A' for Active; 'I' for Inactive)
REMARK    1  A    between atoms: C_2  and  C_3
REMARK    2  A    between atoms: C_3  and  O_4
REMARK    3  A    between atoms: O_4  and  C_5
REMARK    4  A    between atoms: C_5  and  C_7
REMARK    5  A    between atoms: C_7  and  C_8
REMARK    6  A    between atoms: C_8  and  C_9
REMARK    7  A    between atoms: N_15  and  C_16
REMARK                            x       y       z     vdW  Elec       q    Type
REMARK                         _______ _______ _______ _____ _____    ______ ____
ROOT
ATOM      1  O   UNL     1       4.556   4.495  16.172  0.00  0.00    +0.000 OA
ATOM      2  C   UNL     1       4.659   5.490  16.885  0.00  0.00    +0.000 C 
ATOM      3  N   UNL     1       4.082   5.604  18.132  0.00  0.00    +0.000 N 
ATOM      4  H   UNL     1       4.104   6.532  18.557  0.00  0.00    +0.000 HD
ENDROOT
BRANCH   3   5
ATOM      5  C   UNL     1       3.268   4.572  18.796  0.00  0.00    +0.000 C 
ATOM      6  C   UNL     1       4.063   3.259  19.020  0.00  0.00    +0.000 C 
ATOM      7  C   UNL     1       3.202   2.213  19.752  0.00  0.00    +0.000 C 
ATOM      8  C   UNL     1       2.772   2.761  21.121  0.00  0.00    +0.000 C 
ATOM      9  C   UNL     1       1.978   4.063  20.938  0.00  0.00    +0.000 C 
ATOM     10  C   UNL     1       0.720   3.768  20.105  0.00  0.00    +0.000 C 
ATOM     11  C   UNL     1       1.123   3.206  18.731  0.00  0.00    +0.000 C 
ATOM     12  C   UNL     1       1.944   1.919  18.918  0.00  0.00    +0.000 C 
ATOM     13  C   UNL     1       1.979   4.252  17.994  0.00  0.00    +0.000 C 
ATOM     14  C   UNL     1       2.848   5.095  20.198  0.00  0.00    +0.000 C 
ENDBRANCH   3   5
BRANCH   2  15
ATOM     15  C   UNL     1       5.428   6.736  16.408  0.00  0.00    +0.000 C 
BRANCH  15  16
ATOM     16  O   UNL     1       6.853   6.637  16.416  0.00  0.00    +0.000 OA
BRANCH  16  17
ATOM     17  C   UNL     1       7.453   6.974  17.589  0.00  0.00    +0.000 C 
ATOM     18  O   UNL     1       7.646   6.189  18.514  0.00  0.00    +0.000 OA
BRANCH  17  19
ATOM     19  C   UNL     1       7.815   8.434  17.610  0.00  0.00    +0.000 C 
BRANCH  19  20
ATOM     20  C   UNL     1       8.776   8.719  18.762  0.00  0.00    +0.000 C 
BRANCH  20  21
ATOM     21  C   UNL     1       9.027  10.195  18.932  0.00  0.00    +0.000 A 
ATOM     22  C   UNL     1       8.839  11.073  17.856  0.00  0.00    +0.000 A 
ATOM     23  C   UNL     1       9.107  12.435  17.998  0.00  0.00    +0.000 A 
ATOM     24  C   UNL     1       9.565  12.932  19.217  0.00  0.00    +0.000 A 
ATOM     25  C   UNL     1       9.746  12.070  20.296  0.00  0.00    +0.000 A 
ATOM     26  C   UNL     1       9.479  10.706  20.156  0.00  0.00    +0.000 A 
ENDBRANCH  20  21
ENDBRANCH  19  20
ENDBRANCH  17  19
ENDBRANCH  16  17
ENDBRANCH  15  16
ENDBRANCH   2  15
TORSDOF 7
ENDMDL
MODEL 2
REMARK VINA RESULT:      -8.6      1.197      2.026
REMARK  Name = 
REMARK  7 active torsions:
REMARK  status: ('A' for Active; 'I' for Inactive)
REMARK    1  A    between atoms: C_2  and  C_3
REMARK    2  A    between atoms: C_3  and  O_4
REMARK    3  A    between atoms: O_4  and  C_5
REMARK    4  A    between atoms: C_5  and  C_7
REMARK    5  A    between atoms: C_7  and  C_8
REMARK    6  A    between atoms: C_8  and  C_9
REMARK    7  A    between atoms: N_15  and  C_16
REMARK                            x       y       z     vdW  Elec       q    Type
REMARK                         _______ _______ _______ _____ _____    ______ ____
ROOT
ATOM      1  O   UNL     1       6.529   4.097  18.542  0.00  0.00    +0.000 OA
ATOM      2  C   UNL     1       5.979   4.923  17.817  0.00  0.00    +0.000 C 
ATOM      3  N   UNL     1       4.615   5.122  17.775  0.00  0.00    +0.000 N 
ATOM      4  H   UNL     1       4.269   5.719  17.024  0.00  0.00    +0.000 HD
ENDROOT
BRANCH   3   5
ATOM      5  C   UNL     1       3.619   4.391  18.577  0.00  0.00    +0.000 C 
ATOM      6  C   UNL     1       3.485   4.974  20.008  0.00  0.00    +0.000 C 
ATOM      7  C   UNL     1       2.408   4.217  20.809  0.00  0.00    +0.000 C 
ATOM      8  C   UNL     1       1.050   4.345  20.102  0.00  0.00    +0.000 C 
ATOM      9  C   UNL     1       1.146   3.773  18.680  0.00  0.00    +0.000 C 
ATOM     10  C   UNL     1       1.525   2.287  18.762  0.00  0.00    +0.000 C 
ATOM     11  C   UNL     1       2.878   2.131  19.477  0.00  0.00    +0.000 C 
ATOM     12  C   UNL     1       2.789   2.730  20.891  0.00  0.00    +0.000 C 
ATOM     13  C   UNL     1       3.957   2.880  18.675  0.00  0.00    +0.000 C 
ATOM     14  C   UNL     1       2.230   4.533  17.895  0.00  0.00    +0.000 C 
ENDBRANCH   3   5
BRANCH   2  15
ATOM     15  C   UNL     1       6.794   5.796  16.844  0.00  0.00    +0.000 C 
BRANCH  15  16
ATOM     16  O   UNL     1       6.748   7.204  17.073  0.00  0.00    +0.000 OA
BRANCH  16  17
ATOM     17  C   UNL     1       7.724   7.694  17.883  0.00  0.00    +0.000 C 
ATOM     18  O   UNL     1       8.305   7.031  18.738  0.00  0.00    +0.000 OA
BRANCH  17  19
ATOM     19  C   UNL     1       7.967   9.153  17.613  0.00  0.00    +0.000 C 
BRANCH  19  20
ATOM     20  C   UNL     1       8.882   9.740  18.687  0.00  0.00    +0.000 C 
BRANCH  20  21
ATOM     21  C   UNL     1       9.512  11.034  18.243  0.00  0.00    +0.000 A 
ATOM     22  C   UNL     1      10.904  11.138  18.121  0.00  0.00    +0.000 A 
ATOM     23  C   UNL     1      11.494  12.346  17.747  0.00  0.00    +0.000 A 
ATOM     24  C   UNL     1      10.698  13.461  17.491  0.00  0.00    +0.000 A 
ATOM     25  C   UNL     1       9.312  13.366  17.599  0.00  0.00    +0.000 A 
ATOM     26  C   UNL     1       8.720  12.159  17.974  0.00  0.00    +0.000 A 
ENDBRANCH  20  21
ENDBRANCH  19  20
ENDBRANCH  17  19
ENDBRANCH  16  17
ENDBRANCH  15  16
ENDBRANCH   2  15
TORSDOF 7
ENDMDL
MODEL 3
REMARK VINA RESULT:      -8.6      1.088      1.267
REMARK  Name = 
REMARK  7 active torsions:
REMARK  status: ('A' for Active; 'I' for Inactive)
REMARK    1  A    between atoms: C_2  and  C_3
REMARK    2  A    between atoms: C_3  and  O_4
REMARK    3  A    between atoms: O_4  and  C_5
REMARK    4  A    between atoms: C_5  and  C_7
REMARK    5  A    between atoms: C_7  and  C_8
REMARK    6  A    between atoms: C_8  and  C_9
REMARK    7  A    between atoms: N_15  and  C_16
REMARK                            x       y       z     vdW  Elec       q    Type
REMARK                         _______ _______ _______ _____ _____    ______ ____
ROOT
ATOM      1  O   UNL     1       6.297   4.787  17.363  0.00  0.00    +0.000 OA
ATOM      2  C   UNL     1       5.552   5.757  17.467  0.00  0.00    +0.000 C 
ATOM      3  N   UNL     1       4.264   5.687  17.956  0.00  0.00    +0.000 N 
ATOM      4  H   UNL     1       3.693   6.527  17.845  0.00  0.00    +0.000 HD
ENDROOT
BRANCH   3   5
ATOM      5  C   UNL     1       3.590   4.464  18.421  0.00  0.00    +0.000 C 
ATOM      6  C   UNL     1       4.463   3.667  19.426  0.00  0.00    +0.000 C 
ATOM      7  C   UNL     1       3.718   2.415  19.928  0.00  0.00    +0.000 C 
ATOM      8  C   UNL     1       2.419   2.833  20.635  0.00  0.00    +0.000 C 
ATOM      9  C   UNL     1       1.528   3.623  19.666  0.00  0.00    +0.000 C 
ATOM     10  C   UNL     1       1.175   2.729  18.467  0.00  0.00    +0.000 C 
ATOM     11  C   UNL     1       2.460   2.286  17.748  0.00  0.00    +0.000 C 
ATOM     12  C   UNL     1       3.366   1.521  18.728  0.00  0.00    +0.000 C 
ATOM     13  C   UNL     1       3.204   3.535  17.240  0.00  0.00    +0.000 C 
ATOM     14  C   UNL     1       2.288   4.866  19.167  0.00  0.00    +0.000 C 
ENDBRANCH   3   5
BRANCH   2  15
ATOM     15  C   UNL     1       5.998   7.158  17.010  0.00  0.00    +0.000 C 
BRANCH  15  16
ATOM     16  O   UNL     1       7.405   7.354  16.864  0.00  0.00    +0.000 OA
BRANCH  16  17
ATOM     17  C   UNL     1       8.055   7.765  17.986  0.00  0.00    +0.000 C 
ATOM     18  O   UNL     1       8.433   7.010  18.877  0.00  0.00    +0.000 OA
BRANCH  17  19
ATOM     19  C   UNL     1       8.215   9.260  17.999  0.00  0.00    +0.000 C 
BRANCH  19  20
ATOM     20  C   UNL     1       9.110   9.681  19.163  0.00  0.00    +0.000 C 
BRANCH  20  21
ATOM     21  C   UNL     1       9.669  11.067  18.969  0.00  0.00    +0.000 A 
ATOM     22  C   UNL     1       9.301  11.828  17.852  0.00  0.00    +0.000 A 
ATOM     23  C   UNL     1       9.846  13.097  17.649  0.00  0.00    +0.000 A 
ATOM     24  C   UNL     1      10.763  13.616  18.560  0.00  0.00    +0.000 A 
ATOM     25  C   UNL     1      11.128  12.872  19.681  0.00  0.00    +0.000 A 
ATOM     26  C   UNL     1      10.585  11.602  19.886  0.00  0.00    +0.000 A 
ENDBRANCH  20  21
ENDBRANCH  19  20
ENDBRANCH  17  19
ENDBRANCH  16  17
ENDBRANCH  15  16
ENDBRANCH   2  15
TORSDOF 7
ENDMDL
MODEL 4
REMARK VINA RESULT:      -8.5      1.231      2.045
REMARK  Name = 
REMARK  7 active torsions:
REMARK  status: ('A' for Active; 'I' for Inactive)
REMARK    1  A    between atoms: C_2  and  C_3
REMARK    2  A    between atoms: C_3  and  O_4
REMARK    3  A    between atoms: O_4  and  C_5
REMARK    4  A    between atoms: C_5  and  C_7
REMARK    5  A    between atoms: C_7  and  C_8
REMARK    6  A    between atoms: C_8  and  C_9
REMARK    7  A    between atoms: N_15  and  C_16
REMARK                            x       y       z     vdW  Elec       q    Type
REMARK                         _______ _______ _______ _____ _____    ______ ____
ROOT
ATOM      1  O   UNL     1       6.602   4.103  18.162  0.00  0.00    +0.000 OA
ATOM      2  C   UNL     1       5.991   4.729  17.299  0.00  0.00    +0.000 C 
ATOM      3  N   UNL     1       4.615   4.815  17.241  0.00  0.00    +0.000 N 
ATOM      4  H   UNL     1       4.224   5.227  16.393  0.00  0.00    +0.000 HD
ENDROOT
BRANCH   3   5
ATOM      5  C   UNL     1       3.678   4.183  18.185  0.00  0.00    +0.000 C 
ATOM      6  C   UNL     1       3.762   4.817  19.598  0.00  0.00    +0.000 C 
ATOM      7  C   UNL     1       2.743   4.166  20.553  0.00  0.00    +0.000 C 
ATOM      8  C   UNL     1       1.320   4.371  20.011  0.00  0.00    +0.000 C 
ATOM      9  C   UNL     1       1.200   3.751  18.611  0.00  0.00    +0.000 C 
ATOM     10  C   UNL     1       1.483   2.244  18.704  0.00  0.00    +0.000 C 
ATOM     11  C   UNL     1       2.900   2.011  19.256  0.00  0.00    +0.000 C 
ATOM     12  C   UNL     1       3.028   2.658  20.645  0.00  0.00    +0.000 C 
ATOM     13  C   UNL     1       3.921   2.655  18.300  0.00  0.00    +0.000 C 
ATOM     14  C   UNL     1       2.229   4.406  17.671  0.00  0.00    +0.000 C 
ENDBRANCH   3   5
BRANCH   2  15
ATOM     15  C   UNL     1       6.736   5.453  16.162  0.00  0.00    +0.000 C 
BRANCH  15  16
ATOM     16  O   UNL     1       7.655   6.471  16.559  0.00  0.00    +0.000 OA
BRANCH  16  17
ATOM     17  C   UNL     1       7.133   7.453  17.341  0.00  0.00    +0.000 C 
ATOM     18  O   UNL     1       5.937   7.726  17.396  0.00  0.00    +0.000 OA
BRANCH  17  19
ATOM     19  C   UNL     1       8.215   8.172  18.099  0.00  0.00    +0.000 C 
BRANCH  19  20
ATOM     20  C   UNL     1       8.243   9.647  17.701  0.00  0.00    +0.000 C 
BRANCH  20  21
ATOM     21  C   UNL     1       9.278  10.418  18.477  0.00  0.00    +0.000 A 
ATOM     22  C   UNL     1       9.206  10.490  19.874  0.00  0.00    +0.000 A 
ATOM     23  C   UNL     1      10.141  11.236  20.594  0.00  0.00    +0.000 A 
ATOM     24  C   UNL     1      11.156  11.916  19.923  0.00  0.00    +0.000 A 
ATOM     25  C   UNL     1      11.243  11.843  18.534  0.00  0.00    +0.000 A 
ATOM     26  C   UNL     1      10.308  11.098  17.812  0.00  0.00    +0.000 A 
ENDBRANCH  20  21
ENDBRANCH  19  20
ENDBRANCH  17  19
ENDBRANCH  16  17
ENDBRANCH  15  16
ENDBRANCH   2  15
TORSDOF 7
ENDMDL
MODEL 5
REMARK VINA RESULT:      -8.4      1.586      2.162
REMARK  Name = 
REMARK  7 active torsions:
REMARK  status: ('A' for Active; 'I' for Inactive)
REMARK    1  A    between atoms: C_2  and  C_3
REMARK    2  A    between atoms: C_3  and  O_4
REMARK    3  A    between atoms: O_4  and  C_5
REMARK    4  A    between atoms: C_5  and  C_7
REMARK    5  A    between atoms: C_7  and  C_8
REMARK    6  A    between atoms: C_8  and  C_9
REMARK    7  A    between atoms: N_15  and  C_16
REMARK                            x       y       z     vdW  Elec       q    Type
REMARK                         _______ _______ _______ _____ _____    ______ ____
ROOT
ATOM      1  O   UNL     1       6.574   5.290  19.956  0.00  0.00    +0.000 OA
ATOM      2  C   UNL     1       6.570   5.454  18.738  0.00  0.00    +0.000 C 
ATOM      3  N   UNL     1       5.555   5.026  17.909  0.00  0.00    +0.000 N 
ATOM      4  H   UNL     1       5.739   5.078  16.906  0.00  0.00    +0.000 HD
ENDROOT
BRANCH   3   5
ATOM      5  C   UNL     1       4.337   4.321  18.341  0.00  0.00    +0.000 C 
ATOM      6  C   UNL     1       4.635   3.267  19.439  0.00  0.00    +0.000 C 
ATOM      7  C   UNL     1       3.338   2.574  19.901  0.00  0.00    +0.000 C 
ATOM      8  C   UNL     1       2.370   3.618  20.478  0.00  0.00    +0.000 C 
ATOM      9  C   UNL     1       2.050   4.678  19.414  0.00  0.00    +0.000 C 
ATOM     10  C   UNL     1       1.383   3.994  18.210  0.00  0.00    +0.000 C 
ATOM     11  C   UNL     1       2.329   2.935  17.620  0.00  0.00    +0.000 C 
ATOM     12  C   UNL     1       2.672   1.890  18.695  0.00  0.00    +0.000 C 
ATOM     13  C   UNL     1       3.623   3.625  17.151  0.00  0.00    +0.000 C 
ATOM     14  C   UNL     1       3.354   5.355  18.957  0.00  0.00    +0.000 C 
ENDBRANCH   3   5
BRANCH   2  15
ATOM     15  C   UNL     1       7.753   6.132  18.022  0.00  0.00    +0.000 C 
BRANCH  15  16
ATOM     16  O   UNL     1       8.357   7.230  18.706  0.00  0.00    +0.000 OA
BRANCH  16  17
ATOM     17  C   UNL     1       8.154   8.451  18.141  0.00  0.00    +0.000 C 
ATOM     18  O   UNL     1       7.440   8.645  17.161  0.00  0.00    +0.000 OA
BRANCH  17  19
ATOM     19  C   UNL     1       8.942   9.513  18.856  0.00  0.00    +0.000 C 
BRANCH  19  20
ATOM     20  C   UNL     1       8.966  10.796  18.026  0.00  0.00    +0.000 C 
BRANCH  20  21
ATOM     21  C   UNL     1      10.113  11.693  18.412  0.00  0.00    +0.000 A 
ATOM     22  C   UNL     1      10.291  12.928  17.773  0.00  0.00    +0.000 A 
ATOM     23  C   UNL     1      11.374  13.745  18.101  0.00  0.00    +0.000 A 
ATOM     24  C   UNL     1      12.289  13.335  19.069  0.00  0.00    +0.000 A 
ATOM     25  C   UNL     1      12.117  12.113  19.717  0.00  0.00    +0.000 A 
ATOM     26  C   UNL     1      11.034  11.294  19.390  0.00  0.00    +0.000 A 
ENDBRANCH  20  21
ENDBRANCH  19  20
ENDBRANCH  17  19
ENDBRANCH  16  17
ENDBRANCH  15  16
ENDBRANCH   2  15
TORSDOF 7
ENDMDL
MODEL 6
REMARK VINA RESULT:      -8.4      0.901      1.664
REMARK  Name = 
REMARK  7 active torsions:
REMARK  status: ('A' for Active; 'I' for Inactive)
REMARK    1  A    between atoms: C_2  and  C_3
REMARK    2  A    between atoms: C_3  and  O_4
REMARK    3  A    between atoms: O_4  and  C_5
REMARK    4  A    between atoms: C_5  and  C_7
REMARK    5  A    between atoms: C_7  and  C_8
REMARK    6  A    between atoms: C_8  and  C_9
REMARK    7  A    between atoms: N_15  and  C_16
REMARK                            x       y       z     vdW  Elec       q    Type
REMARK                         _______ _______ _______ _____ _____    ______ ____
ROOT
ATOM      1  O   UNL     1       3.839   6.976  17.742  0.00  0.00    +0.000 OA
ATOM      2  C   UNL     1       4.554   6.116  17.234  0.00  0.00    +0.000 C 
ATOM      3  N   UNL     1       4.446   4.768  17.506  0.00  0.00    +0.000 N 
ATOM      4  H   UNL     1       5.195   4.174  17.148  0.00  0.00    +0.000 HD
ENDROOT
BRANCH   3   5
ATOM      5  C   UNL     1       3.475   4.156  18.428  0.00  0.00    +0.000 C 
ATOM      6  C   UNL     1       3.426   4.893  19.792  0.00  0.00    +0.000 C 
ATOM      7  C   UNL     1       2.374   4.258  20.721  0.00  0.00    +0.000 C 
ATOM      8  C   UNL     1       0.985   4.346  20.070  0.00  0.00    +0.000 C 
ATOM      9  C   UNL     1       0.996   3.623  18.715  0.00  0.00    +0.000 C 
ATOM     10  C   UNL     1       1.345   2.143  18.940  0.00  0.00    +0.000 C 
ATOM     11  C   UNL     1       2.728   2.027  19.603  0.00  0.00    +0.000 C 
ATOM     12  C   UNL     1       2.724   2.778  20.946  0.00  0.00    +0.000 C 
ATOM     13  C   UNL     1       3.783   2.655  18.674  0.00  0.00    +0.000 C 
ATOM     14  C   UNL     1       2.057   4.263  17.801  0.00  0.00    +0.000 C 
ENDBRANCH   3   5
BRANCH   2  15
ATOM     15  C   UNL     1       5.684   6.494  16.259  0.00  0.00    +0.000 C 
BRANCH  15  16
ATOM     16  O   UNL     1       6.683   7.380  16.766  0.00  0.00    +0.000 OA
BRANCH  16  17
ATOM     17  C   UNL     1       7.465   6.871  17.754  0.00  0.00    +0.000 C 
ATOM     18  O   UNL     1       7.517   5.679  18.045  0.00  0.00    +0.000 OA
BRANCH  17  19
ATOM     19  C   UNL     1       8.227   7.961  18.455  0.00  0.00    +0.000 C 
BRANCH  19  20
ATOM     20  C   UNL     1       8.070   9.280  17.700  0.00  0.00    +0.000 C 
BRANCH  20  21
ATOM     21  C   UNL     1       8.783  10.412  18.392  0.00  0.00    +0.000 A 
ATOM     22  C   UNL     1       8.871  11.671  17.782  0.00  0.00    +0.000 A 
ATOM     23  C   UNL     1       9.564  12.712  18.403  0.00  0.00    +0.000 A 
ATOM     24  C   UNL     1      10.175  12.503  19.637  0.00  0.00    +0.000 A 
ATOM     25  C   UNL     1      10.087  11.258  20.257  0.00  0.00    +0.000 A 
ATOM     26  C   UNL     1       9.394  10.215  19.638  0.00  0.00    +0.000 A 
ENDBRANCH  20  21
ENDBRANCH  19  20
ENDBRANCH  17  19
ENDBRANCH  16  17
ENDBRANCH  15  16
ENDBRANCH   2  15
TORSDOF 7
ENDMDL
MODEL 7
REMARK VINA RESULT:      -8.3      3.693      6.457
REMARK  Name = 
REMARK  7 active torsions:
REMARK  status: ('A' for Active; 'I' for Inactive)
REMARK    1  A    between atoms: C_2  and  C_3
REMARK    2  A    between atoms: C_3  and  O_4
REMARK    3  A    between atoms: O_4  and  C_5
REMARK    4  A    between atoms: C_5  and  C_7
REMARK    5  A    between atoms: C_7  and  C_8
REMARK    6  A    between atoms: C_8  and  C_9
REMARK    7  A    between atoms: N_15  and  C_16
REMARK                            x       y       z     vdW  Elec       q    Type
REMARK                         _______ _______ _______ _____ _____    ______ ____
ROOT
ATOM      1  O   UNL     1       2.265   3.080  16.838  0.00  0.00    +0.000 OA
ATOM      2  C   UNL     1       2.501   3.191  18.038  0.00  0.00    +0.000 C 
ATOM      3  N   UNL     1       3.613   3.828  18.547  0.00  0.00    +0.000 N 
ATOM      4  H   UNL     1       3.779   3.717  19.548  0.00  0.00    +0.000 HD
ENDROOT
BRANCH   3   5
ATOM      5  C   UNL     1       4.674   4.466  17.749  0.00  0.00    +0.000 C 
ATOM      6  C   UNL     1       4.184   5.771  17.068  0.00  0.00    +0.000 C 
ATOM      7  C   UNL     1       5.324   6.438  16.275  0.00  0.00    +0.000 C 
ATOM      8  C   UNL     1       6.480   6.788  17.224  0.00  0.00    +0.000 C 
ATOM      9  C   UNL     1       6.993   5.516  17.915  0.00  0.00    +0.000 C 
ATOM     10  C   UNL     1       7.507   4.538  16.846  0.00  0.00    +0.000 C 
ATOM     11  C   UNL     1       6.369   4.180  15.875  0.00  0.00    +0.000 C 
ATOM     12  C   UNL     1       5.837   5.459  15.206  0.00  0.00    +0.000 C 
ATOM     13  C   UNL     1       5.231   3.507  16.664  0.00  0.00    +0.000 C 
ATOM     14  C   UNL     1       5.842   4.857  18.696  0.00  0.00    +0.000 C 
ENDBRANCH   3   5
BRANCH   2  15
ATOM     15  C   UNL     1       1.565   2.573  19.095  0.00  0.00    +0.000 C 
BRANCH  15  16
ATOM     16  O   UNL     1       0.822   3.495  19.893  0.00  0.00    +0.000 OA
BRANCH  16  17
ATOM     17  C   UNL     1       1.552   4.205  20.794  0.00  0.00    +0.000 C 
ATOM     18  O   UNL     1       2.367   3.705  21.565  0.00  0.00    +0.000 OA
BRANCH  17  19
ATOM     19  C   UNL     1       1.204   5.666  20.739  0.00  0.00    +0.000 C 
BRANCH  19  20
ATOM     20  C   UNL     1       2.349   6.455  20.105  0.00  0.00    +0.000 C 
BRANCH  20  21
ATOM     21  C   UNL     1       1.907   7.823  19.654  0.00  0.00    +0.000 A 
ATOM     22  C   UNL     1       1.223   8.671  20.535  0.00  0.00    +0.000 A 
ATOM     23  C   UNL     1       0.778   9.924  20.109  0.00  0.00    +0.000 A 
ATOM     24  C   UNL     1       1.014  10.339  18.800  0.00  0.00    +0.000 A 
ATOM     25  C   UNL     1       1.702   9.507  17.919  0.00  0.00    +0.000 A 
ATOM     26  C   UNL     1       2.147   8.254  18.342  0.00  0.00    +0.000 A 
ENDBRANCH  20  21
ENDBRANCH  19  20
ENDBRANCH  17  19
ENDBRANCH  16  17
ENDBRANCH  15  16
ENDBRANCH   2  15
TORSDOF 7
ENDMDL
MODEL 8
REMARK VINA RESULT:      -8.3      3.724      6.665
REMARK  Name = 
REMARK  7 active torsions:
REMARK  status: ('A' for Active; 'I' for Inactive)
REMARK    1  A    between atoms: C_2  and  C_3
REMARK    2  A    between atoms: C_3  and  O_4
REMARK    3  A    between atoms: O_4  and  C_5
REMARK    4  A    between atoms: C_5  and  C_7
REMARK    5  A    between atoms: C_7  and  C_8
REMARK    6  A    between atoms: C_8  and  C_9
REMARK    7  A    between atoms: N_15  and  C_16
REMARK                            x       y       z     vdW  Elec       q    Type
REMARK                         _______ _______ _______ _____ _____    ______ ____
ROOT
ATOM      1  O   UNL     1       2.342   3.167  17.025  0.00  0.00    +0.000 OA
ATOM      2  C   UNL     1       2.942   2.871  18.055  0.00  0.00    +0.000 C 
ATOM      3  N   UNL     1       4.217   3.303  18.353  0.00  0.00    +0.000 N 
ATOM      4  H   UNL     1       4.667   2.864  19.158  0.00  0.00    +0.000 HD
ENDROOT
BRANCH   3   5
ATOM      5  C   UNL     1       5.047   4.171  17.501  0.00  0.00    +0.000 C 
ATOM      6  C   UNL     1       5.386   3.501  16.144  0.00  0.00    +0.000 C 
ATOM      7  C   UNL     1       6.219   4.447  15.257  0.00  0.00    +0.000 C 
ATOM      8  C   UNL     1       5.425   5.732  14.981  0.00  0.00    +0.000 C 
ATOM      9  C   UNL     1       5.074   6.425  16.306  0.00  0.00    +0.000 C 
ATOM     10  C   UNL     1       6.374   6.793  17.038  0.00  0.00    +0.000 C 
ATOM     11  C   UNL     1       7.195   5.522  17.317  0.00  0.00    +0.000 C 
ATOM     12  C   UNL     1       7.519   4.814  15.991  0.00  0.00    +0.000 C 
ATOM     13  C   UNL     1       6.367   4.578  18.208  0.00  0.00    +0.000 C 
ATOM     14  C   UNL     1       4.249   5.466  17.183  0.00  0.00    +0.000 C 
ENDBRANCH   3   5
BRANCH   2  15
ATOM     15  C   UNL     1       2.311   1.935  19.104  0.00  0.00    +0.000 C 
BRANCH  15  16
ATOM     16  O   UNL     1       1.393   2.539  20.015  0.00  0.00    +0.000 OA
BRANCH  16  17
ATOM     17  C   UNL     1       1.960   3.271  21.012  0.00  0.00    +0.000 C 
ATOM     18  O   UNL     1       2.732   2.812  21.849  0.00  0.00    +0.000 OA
BRANCH  17  19
ATOM     19  C   UNL     1       1.490   4.699  20.967  0.00  0.00    +0.000 C 
BRANCH  19  20
ATOM     20  C   UNL     1       2.509   5.563  20.226  0.00  0.00    +0.000 C 
BRANCH  20  21
ATOM     21  C   UNL     1       2.007   6.968  20.016  0.00  0.00    +0.000 A 
ATOM     22  C   UNL     1       1.276   7.615  21.022  0.00  0.00    +0.000 A 
ATOM     23  C   UNL     1       0.776   8.902  20.817  0.00  0.00    +0.000 A 
ATOM     24  C   UNL     1       1.003   9.554  19.606  0.00  0.00    +0.000 A 
ATOM     25  C   UNL     1       1.737   8.923  18.603  0.00  0.00    +0.000 A 
ATOM     26  C   UNL     1       2.238   7.636  18.806  0.00  0.00    +0.000 A 
ENDBRANCH  20  21
ENDBRANCH  19  20
ENDBRANCH  17  19
ENDBRANCH  16  17
ENDBRANCH  15  16
ENDBRANCH   2  15
TORSDOF 7
ENDMDL
MODEL 9
REMARK VINA RESULT:      -8.3      1.236      2.209
REMARK  Name = 
REMARK  7 active torsions:
REMARK  status: ('A' for Active; 'I' for Inactive)
REMARK    1  A    between atoms: C_2  and  C_3
REMARK    2  A    between atoms: C_3  and  O_4
REMARK    3  A    between atoms: O_4  and  C_5
REMARK    4  A    between atoms: C_5  and  C_7
REMARK    5  A    between atoms: C_7  and  C_8
REMARK    6  A    between atoms: C_8  and  C_9
REMARK    7  A    between atoms: N_15  and  C_16
REMARK                            x       y       z     vdW  Elec       q    Type
REMARK                         _______ _______ _______ _____ _____    ______ ____
ROOT
ATOM      1  O   UNL     1       4.802   6.217  18.208  0.00  0.00    +0.000 OA
ATOM      2  C   UNL     1       5.522   5.225  18.289  0.00  0.00    +0.000 C 
ATOM      3  N   UNL     1       5.089   3.997  18.744  0.00  0.00    +0.000 N 
ATOM      4  H   UNL     1       5.813   3.298  18.915  0.00  0.00    +0.000 HD
ENDROOT
BRANCH   3   5
ATOM      5  C   UNL     1       3.722   3.685  19.195  0.00  0.00    +0.000 C 
ATOM      6  C   UNL     1       3.364   4.419  20.513  0.00  0.00    +0.000 C 
ATOM      7  C   UNL     1       1.917   4.107  20.940  0.00  0.00    +0.000 C 
ATOM      8  C   UNL     1       0.943   4.570  19.845  0.00  0.00    +0.000 C 
ATOM      9  C   UNL     1       1.267   3.860  18.523  0.00  0.00    +0.000 C 
ATOM     10  C   UNL     1       1.111   2.343  18.717  0.00  0.00    +0.000 C 
ATOM     11  C   UNL     1       2.068   1.856  19.818  0.00  0.00    +0.000 C 
ATOM     12  C   UNL     1       1.762   2.590  21.134  0.00  0.00    +0.000 C 
ATOM     13  C   UNL     1       3.516   2.160  19.392  0.00  0.00    +0.000 C 
ATOM     14  C   UNL     1       2.718   4.174  18.114  0.00  0.00    +0.000 C 
ENDBRANCH   3   5
BRANCH   2  15
ATOM     15  C   UNL     1       7.015   5.290  17.916  0.00  0.00    +0.000 C 
BRANCH  15  16
ATOM     16  O   UNL     1       7.788   6.286  18.585  0.00  0.00    +0.000 OA
BRANCH  16  17
ATOM     17  C   UNL     1       7.907   7.470  17.927  0.00  0.00    +0.000 C 
ATOM     18  O   UNL     1       7.523   7.659  16.776  0.00  0.00    +0.000 OA
BRANCH  17  19
ATOM     19  C   UNL     1       8.596   8.497  18.782  0.00  0.00    +0.000 C 
BRANCH  19  20
ATOM     20  C   UNL     1       8.636   9.842  18.059  0.00  0.00    +0.000 C 
BRANCH  20  21
ATOM     21  C   UNL     1       9.596  10.802  18.712  0.00  0.00    +0.000 A 
ATOM     22  C   UNL     1       9.634  10.925  20.107  0.00  0.00    +0.000 A 
ATOM     23  C   UNL     1      10.495  11.841  20.714  0.00  0.00    +0.000 A 
ATOM     24  C   UNL     1      11.324  12.643  19.932  0.00  0.00    +0.000 A 
ATOM     25  C   UNL     1      11.301  12.522  18.543  0.00  0.00    +0.000 A 
ATOM     26  C   UNL     1      10.441  11.606  17.934  0.00  0.00    +0.000 A 
ENDBRANCH  20  21
ENDBRANCH  19  20
ENDBRANCH  17  19
ENDBRANCH  16  17
ENDBRANCH  15  16
ENDBRANCH   2  15
TORSDOF 7
ENDMDL
