MODEL 1
REMARK VINA RESULT:      -8.7      0.000      0.000
REMARK  Name = 
REMARK  5 active torsions:
REMARK  status: ('A' for Active; 'I' for Inactive)
REMARK    1  A    between atoms: C_2  and  C_13
REMARK    2  A    between atoms: N_3  and  C_4
REMARK    3  A    between atoms: C_4  and  C_5
REMARK    4  A    between atoms: C_5  and  O_6
REMARK    5  A    between atoms: C_15  and  C_16
REMARK                            x       y       z     vdW  Elec       q    Type
REMARK                         _______ _______ _______ _____ _____    ______ ____
ROOT
ATOM      1  C   UNL     1       2.531   5.533  19.022  0.00  0.00    +0.000 A 
ATOM      2  C   UNL     1       3.592   5.774  18.121  0.00  0.00    +0.000 A 
ATOM      3  C   UNL     1       4.156   4.725  17.380  0.00  0.00    +0.000 A 
ATOM      4  C   UNL     1       3.649   3.431  17.534  0.00  0.00    +0.000 A 
ATOM      5  C   UNL     1       2.614   3.181  18.436  0.00  0.00    +0.000 A 
ATOM      6  C   UNL     1       2.059   4.222  19.188  0.00  0.00    +0.000 A 
ATOM      7 CL   UNL     1       0.825   3.771  20.313  0.00  0.00    +0.000 Cl
ENDROOT
BRANCH   3   8
ATOM      8  C   UNL     1       5.253   4.940  16.389  0.00  0.00    +0.000 A 
ATOM      9  C   UNL     1       5.192   4.171  15.122  0.00  0.00    +0.000 A 
ATOM     10  C   UNL     1       6.188   4.351  14.249  0.00  0.00    +0.000 A 
ATOM     11  C   UNL     1       7.285   5.289  14.551  0.00  0.00    +0.000 A 
ATOM     12  O   UNL     1       8.210   5.448  13.764  0.00  0.00    +0.000 OA
ATOM     13  N   UNL     1       7.182   5.959  15.743  0.00  0.00    +0.000 N 
ATOM     14  N   UNL     1       6.191   5.798  16.668  0.00  0.00    +0.000 NA
ATOM     15  H   UNL     1       7.921   6.613  15.975  0.00  0.00    +0.000 HD
ENDBRANCH   3   8
BRANCH   1  17
ATOM     16  O   UNL     1       1.606   6.624  20.895  0.00  0.00    +0.000 OA
ATOM     17  C   UNL     1       1.986   6.727  19.732  0.00  0.00    +0.000 C 
ATOM     18  N   UNL     1       1.996   7.915  19.041  0.00  0.00    +0.000 N 
ATOM     19  H   UNL     1       2.240   7.928  18.057  0.00  0.00    +0.000 HD
BRANCH  18  20
ATOM     20  C   UNL     1       1.462   9.161  19.566  0.00  0.00    +0.000 C 
BRANCH  20  21
ATOM     21  C   UNL     1       1.157  10.174  18.428  0.00  0.00    +0.000 C 
ATOM     22  C   UNL     1      -0.303  10.090  17.935  0.00  0.00    +0.000 C 
ATOM     23  C   UNL     1      -1.383  10.248  19.002  0.00  0.00    +0.000 C 
ATOM     24  C   UNL     1      -1.723  11.671  19.439  0.00  0.00    +0.000 C 
ATOM     25  C   UNL     1      -0.626  12.728  19.387  0.00  0.00    +0.000 C 
ATOM     26  C   UNL     1       0.740  12.278  19.890  0.00  0.00    +0.000 C 
ATOM     27  C   UNL     1       1.566  11.610  18.797  0.00  0.00    +0.000 C 
BRANCH  21  28
ATOM     28  O   UNL     1       2.003   9.824  17.305  0.00  0.00    +0.000 OA
ATOM     29  H   UNL     1       1.798  10.428  16.570  0.00  0.00    +0.000 HD
ENDBRANCH  21  28
ENDBRANCH  20  21
ENDBRANCH  18  20
ENDBRANCH   1  17
TORSDOF 5
ENDMDL
MODEL 2
REMARK VINA RESULT:      -8.0      2.090      7.118
REMARK  Name = 
REMARK  5 active torsions:
REMARK  status: ('A' for Active; 'I' for Inactive)
REMARK    1  A    between atoms: C_2  and  C_13
REMARK    2  A    between atoms: N_3  and  C_4
REMARK    3  A    between atoms: C_4  and  C_5
REMARK    4  A    between atoms: C_5  and  O_6
REMARK    5  A    between atoms: C_15  and  C_16
REMARK                            x       y       z     vdW  Elec       q    Type
REMARK                         _______ _______ _______ _____ _____    ______ ____
ROOT
ATOM      1  C   UNL     1       2.450   4.894  18.669  0.00  0.00    +0.000 A 
ATOM      2  C   UNL     1       2.288   6.269  18.387  0.00  0.00    +0.000 A 
ATOM      3  C   UNL     1       1.843   7.157  19.377  0.00  0.00    +0.000 A 
ATOM      4  C   UNL     1       1.569   6.669  20.659  0.00  0.00    +0.000 A 
ATOM      5  C   UNL     1       1.707   5.310  20.941  0.00  0.00    +0.000 A 
ATOM      6  C   UNL     1       2.136   4.418  19.952  0.00  0.00    +0.000 A 
ATOM      7 CL   UNL     1       2.210   2.753  20.412  0.00  0.00    +0.000 Cl
ENDROOT
BRANCH   3   8
ATOM      8  C   UNL     1       1.693   8.623  19.133  0.00  0.00    +0.000 A 
ATOM      9  C   UNL     1       1.007   9.424  20.177  0.00  0.00    +0.000 A 
ATOM     10  C   UNL     1       0.857  10.731  19.942  0.00  0.00    +0.000 A 
ATOM     11  C   UNL     1       1.368  11.331  18.697  0.00  0.00    +0.000 A 
ATOM     12  O   UNL     1       1.221  12.525  18.467  0.00  0.00    +0.000 OA
ATOM     13  N   UNL     1       2.018  10.472  17.848  0.00  0.00    +0.000 N 
ATOM     14  N   UNL     1       2.184   9.131  18.040  0.00  0.00    +0.000 NA
ATOM     15  H   UNL     1       2.384  10.859  16.984  0.00  0.00    +0.000 HD
ENDBRANCH   3   8
BRANCH   1  17
ATOM     16  O   UNL     1       2.202   3.267  16.983  0.00  0.00    +0.000 OA
ATOM     17  C   UNL     1       2.960   4.047  17.552  0.00  0.00    +0.000 C 
ATOM     18  N   UNL     1       4.269   4.240  17.180  0.00  0.00    +0.000 N 
ATOM     19  H   UNL     1       4.874   4.834  17.737  0.00  0.00    +0.000 HD
BRANCH  18  20
ATOM     20  C   UNL     1       4.937   3.470  16.143  0.00  0.00    +0.000 C 
BRANCH  20  21
ATOM     21  C   UNL     1       6.102   4.272  15.499  0.00  0.00    +0.000 C 
ATOM     22  C   UNL     1       5.678   5.694  15.074  0.00  0.00    +0.000 C 
ATOM     23  C   UNL     1       5.059   6.565  16.162  0.00  0.00    +0.000 C 
ATOM     24  C   UNL     1       6.019   7.254  17.128  0.00  0.00    +0.000 C 
ATOM     25  C   UNL     1       7.346   6.573  17.443  0.00  0.00    +0.000 C 
ATOM     26  C   UNL     1       7.269   5.069  17.676  0.00  0.00    +0.000 C 
ATOM     27  C   UNL     1       7.364   4.278  16.376  0.00  0.00    +0.000 C 
BRANCH  21  28
ATOM     28  O   UNL     1       6.490   3.567  14.294  0.00  0.00    +0.000 OA
ATOM     29  H   UNL     1       7.092   4.140  13.788  0.00  0.00    +0.000 HD
ENDBRANCH  21  28
ENDBRANCH  20  21
ENDBRANCH  18  20
ENDBRANCH   1  17
TORSDOF 5
ENDMDL
MODEL 3
REMARK VINA RESULT:      -8.0      1.889      2.781
REMARK  Name = 
REMARK  5 active torsions:
REMARK  status: ('A' for Active; 'I' for Inactive)
REMARK    1  A    between atoms: C_2  and  C_13
REMARK    2  A    between atoms: N_3  and  C_4
REMARK    3  A    between atoms: C_4  and  C_5
REMARK    4  A    between atoms: C_5  and  O_6
REMARK    5  A    between atoms: C_15  and  C_16
REMARK                            x       y       z     vdW  Elec       q    Type
REMARK                         _______ _______ _______ _____ _____    ______ ____
ROOT
ATOM      1  C   UNL     1       2.243   8.096  18.689  0.00  0.00    +0.000 A 
ATOM      2  C   UNL     1       3.093   7.602  17.674  0.00  0.00    +0.000 A 
ATOM      3  C   UNL     1       3.746   6.370  17.822  0.00  0.00    +0.000 A 
ATOM      4  C   UNL     1       3.540   5.623  18.986  0.00  0.00    +0.000 A 
ATOM      5  C   UNL     1       2.717   6.112  20.002  0.00  0.00    +0.000 A 
ATOM      6  C   UNL     1       2.075   7.347  19.864  0.00  0.00    +0.000 A 
ATOM      7 CL   UNL     1       1.132   7.867  21.218  0.00  0.00    +0.000 Cl
ENDROOT
BRANCH   3   8
ATOM      8  C   UNL     1       4.625   5.794  16.760  0.00  0.00    +0.000 A 
ATOM      9  C   UNL     1       4.751   4.316  16.704  0.00  0.00    +0.000 A 
ATOM     10  C   UNL     1       5.555   3.808  15.766  0.00  0.00    +0.000 A 
ATOM     11  C   UNL     1       6.268   4.697  14.830  0.00  0.00    +0.000 A 
ATOM     12  O   UNL     1       7.019   4.240  13.977  0.00  0.00    +0.000 OA
ATOM     13  N   UNL     1       6.017   6.037  14.977  0.00  0.00    +0.000 N 
ATOM     14  N   UNL     1       5.214   6.601  15.927  0.00  0.00    +0.000 NA
ATOM     15  H   UNL     1       6.491   6.672  14.344  0.00  0.00    +0.000 HD
ENDBRANCH   3   8
BRANCH   1  17
ATOM     16  O   UNL     1       2.036  10.155  17.561  0.00  0.00    +0.000 OA
ATOM     17  C   UNL     1       1.573   9.400  18.412  0.00  0.00    +0.000 C 
ATOM     18  N   UNL     1       0.413   9.658  19.103  0.00  0.00    +0.000 N 
ATOM     19  H   UNL     1       0.122   9.041  19.853  0.00  0.00    +0.000 HD
BRANCH  18  20
ATOM     20  C   UNL     1      -0.340  10.895  18.987  0.00  0.00    +0.000 C 
BRANCH  20  21
ATOM     21  C   UNL     1       0.154  11.961  20.005  0.00  0.00    +0.000 C 
ATOM     22  C   UNL     1      -0.817  13.154  20.132  0.00  0.00    +0.000 C 
ATOM     23  C   UNL     1      -2.262  12.811  20.480  0.00  0.00    +0.000 C 
ATOM     24  C   UNL     1      -2.575  12.536  21.948  0.00  0.00    +0.000 C 
ATOM     25  C   UNL     1      -1.480  11.939  22.825  0.00  0.00    +0.000 C 
ATOM     26  C   UNL     1      -0.670  10.818  22.185  0.00  0.00    +0.000 C 
ATOM     27  C   UNL     1       0.505  11.347  21.371  0.00  0.00    +0.000 C 
BRANCH  21  28
ATOM     28  O   UNL     1       1.407  12.486  19.501  0.00  0.00    +0.000 OA
ATOM     29  H   UNL     1       1.954  11.737  19.207  0.00  0.00    +0.000 HD
ENDBRANCH  21  28
ENDBRANCH  20  21
ENDBRANCH  18  20
ENDBRANCH   1  17
TORSDOF 5
ENDMDL
MODEL 4
REMARK VINA RESULT:      -7.7      1.689      2.242
REMARK  Name = 
REMARK  5 active torsions:
REMARK  status: ('A' for Active; 'I' for Inactive)
REMARK    1  A    between atoms: C_2  and  C_13
REMARK    2  A    between atoms: N_3  and  C_4
REMARK    3  A    between atoms: C_4  and  C_5
REMARK    4  A    between atoms: C_5  and  O_6
REMARK    5  A    between atoms: C_15  and  C_16
REMARK                            x       y       z     vdW  Elec       q    Type
REMARK                         _______ _______ _______ _____ _____    ______ ____
ROOT
ATOM      1  C   UNL     1       2.733   6.229  18.949  0.00  0.00    +0.000 A 
ATOM      2  C   UNL     1       3.769   6.313  17.992  0.00  0.00    +0.000 A 
ATOM      3  C   UNL     1       4.315   5.153  17.423  0.00  0.00    +0.000 A 
ATOM      4  C   UNL     1       3.815   3.904  17.806  0.00  0.00    +0.000 A 
ATOM      5  C   UNL     1       2.805   3.812  18.765  0.00  0.00    +0.000 A 
ATOM      6  C   UNL     1       2.268   4.966  19.345  0.00  0.00    +0.000 A 
ATOM      7 CL   UNL     1       1.065   4.713  20.562  0.00  0.00    +0.000 Cl
ENDROOT
BRANCH   3   8
ATOM      8  C   UNL     1       5.386   5.196  16.382  0.00  0.00    +0.000 A 
ATOM      9  C   UNL     1       5.157   4.428  15.133  0.00  0.00    +0.000 A 
ATOM     10  C   UNL     1       6.127   4.453  14.214  0.00  0.00    +0.000 A 
ATOM     11  C   UNL     1       7.359   5.227  14.450  0.00  0.00    +0.000 A 
ATOM     12  O   UNL     1       8.261   5.242  13.621  0.00  0.00    +0.000 OA
ATOM     13  N   UNL     1       7.408   5.920  15.633  0.00  0.00    +0.000 N 
ATOM     14  N   UNL     1       6.448   5.914  16.603  0.00  0.00    +0.000 NA
ATOM     15  H   UNL     1       8.243   6.464  15.820  0.00  0.00    +0.000 HD
ENDBRANCH   3   8
BRANCH   1  17
ATOM     16  O   UNL     1       2.076   8.479  18.699  0.00  0.00    +0.000 OA
ATOM     17  C   UNL     1       2.204   7.526  19.463  0.00  0.00    +0.000 C 
ATOM     18  N   UNL     1       1.826   7.559  20.784  0.00  0.00    +0.000 N 
ATOM     19  H   UNL     1       2.031   6.773  21.390  0.00  0.00    +0.000 HD
BRANCH  18  20
ATOM     20  C   UNL     1       1.333   8.750  21.455  0.00  0.00    +0.000 C 
BRANCH  20  21
ATOM     21  C   UNL     1      -0.216   8.846  21.381  0.00  0.00    +0.000 C 
ATOM     22  C   UNL     1      -0.840   9.377  22.689  0.00  0.00    +0.000 C 
ATOM     23  C   UNL     1      -0.313  10.718  23.190  0.00  0.00    +0.000 C 
ATOM     24  C   UNL     1      -0.880  11.974  22.535  0.00  0.00    +0.000 C 
ATOM     25  C   UNL     1      -1.330  11.894  21.080  0.00  0.00    +0.000 C 
ATOM     26  C   UNL     1      -0.401  11.125  20.150  0.00  0.00    +0.000 C 
ATOM     27  C   UNL     1      -0.696   9.629  20.147  0.00  0.00    +0.000 C 
BRANCH  21  28
ATOM     28  O   UNL     1      -0.719   7.502  21.186  0.00  0.00    +0.000 OA
ATOM     29  H   UNL     1      -0.441   7.197  20.305  0.00  0.00    +0.000 HD
ENDBRANCH  21  28
ENDBRANCH  20  21
ENDBRANCH  18  20
ENDBRANCH   1  17
TORSDOF 5
ENDMDL
MODEL 5
REMARK VINA RESULT:      -7.6      3.742      4.818
REMARK  Name = 
REMARK  5 active torsions:
REMARK  status: ('A' for Active; 'I' for Inactive)
REMARK    1  A    between atoms: C_2  and  C_13
REMARK    2  A    between atoms: N_3  and  C_4
REMARK    3  A    between atoms: C_4  and  C_5
REMARK    4  A    between atoms: C_5  and  O_6
REMARK    5  A    between atoms: C_15  and  C_16
REMARK                            x       y       z     vdW  Elec       q    Type
REMARK                         _______ _______ _______ _____ _____    ______ ____
ROOT
ATOM      1  C   UNL     1       1.493   8.581  20.181  0.00  0.00    +0.000 A 
ATOM      2  C   UNL     1       2.046   7.307  20.435  0.00  0.00    +0.000 A 
ATOM      3  C   UNL     1       2.614   6.551  19.399  0.00  0.00    +0.000 A 
ATOM      4  C   UNL     1       2.639   7.079  18.104  0.00  0.00    +0.000 A 
ATOM      5  C   UNL     1       2.078   8.329  17.840  0.00  0.00    +0.000 A 
ATOM      6  C   UNL     1       1.497   9.079  18.868  0.00  0.00    +0.000 A 
ATOM      7 CL   UNL     1       0.785  10.584  18.400  0.00  0.00    +0.000 Cl
ENDROOT
BRANCH   3   8
ATOM      8  C   UNL     1       3.242   5.216  19.630  0.00  0.00    +0.000 A 
ATOM      9  C   UNL     1       2.454   4.210  20.384  0.00  0.00    +0.000 A 
ATOM     10  C   UNL     1       3.029   3.024  20.606  0.00  0.00    +0.000 A 
ATOM     11  C   UNL     1       4.387   2.747  20.103  0.00  0.00    +0.000 A 
ATOM     12  O   UNL     1       4.929   1.669  20.316  0.00  0.00    +0.000 OA
ATOM     13  N   UNL     1       4.973   3.759  19.386  0.00  0.00    +0.000 N 
ATOM     14  N   UNL     1       4.428   4.988  19.146  0.00  0.00    +0.000 NA
ATOM     15  H   UNL     1       5.906   3.595  19.025  0.00  0.00    +0.000 HD
ENDBRANCH   3   8
BRANCH   1  17
ATOM     16  O   UNL     1       1.520   9.237  22.444  0.00  0.00    +0.000 OA
ATOM     17  C   UNL     1       0.946   9.311  21.362  0.00  0.00    +0.000 C 
ATOM     18  N   UNL     1      -0.166  10.089  21.146  0.00  0.00    +0.000 N 
ATOM     19  H   UNL     1      -0.650  10.048  20.256  0.00  0.00    +0.000 HD
BRANCH  18  20
ATOM     20  C   UNL     1      -0.851  10.829  22.193  0.00  0.00    +0.000 C 
BRANCH  20  21
ATOM     21  C   UNL     1      -0.784  12.362  21.946  0.00  0.00    +0.000 C 
ATOM     22  C   UNL     1      -1.377  12.768  20.580  0.00  0.00    +0.000 C 
ATOM     23  C   UNL     1      -2.808  12.314  20.306  0.00  0.00    +0.000 C 
ATOM     24  C   UNL     1      -3.930  13.146  20.923  0.00  0.00    +0.000 C 
ATOM     25  C   UNL     1      -3.660  13.867  22.239  0.00  0.00    +0.000 C 
ATOM     26  C   UNL     1      -2.898  13.058  23.282  0.00  0.00    +0.000 C 
ATOM     27  C   UNL     1      -1.388  13.169  23.107  0.00  0.00    +0.000 C 
BRANCH  21  28
ATOM     28  O   UNL     1       0.617  12.730  21.925  0.00  0.00    +0.000 OA
ATOM     29  H   UNL     1       0.789  13.311  22.687  0.00  0.00    +0.000 HD
ENDBRANCH  21  28
ENDBRANCH  20  21
ENDBRANCH  18  20
ENDBRANCH   1  17
TORSDOF 5
ENDMDL
MODEL 6
REMARK VINA RESULT:      -7.6      1.951      3.084
REMARK  Name = 
REMARK  5 active torsions:
REMARK  status: ('A' for Active; 'I' for Inactive)
REMARK    1  A    between atoms: C_2  and  C_13
REMARK    2  A    between atoms: N_3  and  C_4
REMARK    3  A    between atoms: C_4  and  C_5
REMARK    4  A    between atoms: C_5  and  O_6
REMARK    5  A    between atoms: C_15  and  C_16
REMARK                            x       y       z     vdW  Elec       q    Type
REMARK                         _______ _______ _______ _____ _____    ______ ____
ROOT
ATOM      1  C   UNL     1       2.261   8.208  18.709  0.00  0.00    +0.000 A 
ATOM      2  C   UNL     1       3.116   7.699  17.706  0.00  0.00    +0.000 A 
ATOM      3  C   UNL     1       3.706   6.434  17.840  0.00  0.00    +0.000 A 
ATOM      4  C   UNL     1       3.431   5.670  18.979  0.00  0.00    +0.000 A 
ATOM      5  C   UNL     1       2.603   6.173  19.984  0.00  0.00    +0.000 A 
ATOM      6  C   UNL     1       2.025   7.440  19.860  0.00  0.00    +0.000 A 
ATOM      7 CL   UNL     1       1.068   7.971  21.199  0.00  0.00    +0.000 Cl
ENDROOT
BRANCH   3   8
ATOM      8  C   UNL     1       4.587   5.842  16.789  0.00  0.00    +0.000 A 
ATOM      9  C   UNL     1       4.703   4.363  16.746  0.00  0.00    +0.000 A 
ATOM     10  C   UNL     1       5.510   3.841  15.817  0.00  0.00    +0.000 A 
ATOM     11  C   UNL     1       6.234   4.717  14.878  0.00  0.00    +0.000 A 
ATOM     12  O   UNL     1       6.987   4.247  14.034  0.00  0.00    +0.000 OA
ATOM     13  N   UNL     1       5.992   6.060  15.013  0.00  0.00    +0.000 N 
ATOM     14  N   UNL     1       5.187   6.637  15.952  0.00  0.00    +0.000 NA
ATOM     15  H   UNL     1       6.474   6.686  14.377  0.00  0.00    +0.000 HD
ENDBRANCH   3   8
BRANCH   1  17
ATOM     16  O   UNL     1       1.983  10.175  17.440  0.00  0.00    +0.000 OA
ATOM     17  C   UNL     1       1.661   9.549  18.446  0.00  0.00    +0.000 C 
ATOM     18  N   UNL     1       0.716   9.988  19.342  0.00  0.00    +0.000 N 
ATOM     19  H   UNL     1       0.549   9.472  20.199  0.00  0.00    +0.000 HD
BRANCH  18  20
ATOM     20  C   UNL     1       0.066  11.286  19.261  0.00  0.00    +0.000 C 
BRANCH  20  21
ATOM     21  C   UNL     1       0.548  12.236  20.392  0.00  0.00    +0.000 C 
ATOM     22  C   UNL     1       1.978  12.765  20.153  0.00  0.00    +0.000 C 
ATOM     23  C   UNL     1       2.222  13.466  18.820  0.00  0.00    +0.000 C 
ATOM     24  C   UNL     1       1.778  14.923  18.712  0.00  0.00    +0.000 C 
ATOM     25  C   UNL     1       0.583  15.381  19.540  0.00  0.00    +0.000 C 
ATOM     26  C   UNL     1      -0.596  14.418  19.574  0.00  0.00    +0.000 C 
ATOM     27  C   UNL     1      -0.453  13.369  20.671  0.00  0.00    +0.000 C 
BRANCH  21  28
ATOM     28  O   UNL     1       0.582  11.461  21.616  0.00  0.00    +0.000 OA
ATOM     29  H   UNL     1      -0.183  11.717  22.159  0.00  0.00    +0.000 HD
ENDBRANCH  21  28
ENDBRANCH  20  21
ENDBRANCH  18  20
ENDBRANCH   1  17
TORSDOF 5
ENDMDL
MODEL 7
REMARK VINA RESULT:      -7.6      2.003      2.891
REMARK  Name = 
REMARK  5 active torsions:
REMARK  status: ('A' for Active; 'I' for Inactive)
REMARK    1  A    between atoms: C_2  and  C_13
REMARK    2  A    between atoms: N_3  and  C_4
REMARK    3  A    between atoms: C_4  and  C_5
REMARK    4  A    between atoms: C_5  and  O_6
REMARK    5  A    between atoms: C_15  and  C_16
REMARK                            x       y       z     vdW  Elec       q    Type
REMARK                         _______ _______ _______ _____ _____    ______ ____
ROOT
ATOM      1  C   UNL     1       2.120   8.026  18.841  0.00  0.00    +0.000 A 
ATOM      2  C   UNL     1       2.955   7.412  17.882  0.00  0.00    +0.000 A 
ATOM      3  C   UNL     1       3.533   6.159  18.131  0.00  0.00    +0.000 A 
ATOM      4  C   UNL     1       3.265   5.512  19.342  0.00  0.00    +0.000 A 
ATOM      5  C   UNL     1       2.457   6.120  20.303  0.00  0.00    +0.000 A 
ATOM      6  C   UNL     1       1.891   7.376  20.064  0.00  0.00    +0.000 A 
ATOM      7 CL   UNL     1       0.958   8.046  21.358  0.00  0.00    +0.000 Cl
ENDROOT
BRANCH   3   8
ATOM      8  C   UNL     1       4.393   5.457  17.131  0.00  0.00    +0.000 A 
ATOM      9  C   UNL     1       5.012   6.281  16.063  0.00  0.00    +0.000 A 
ATOM     10  C   UNL     1       5.762   5.644  15.159  0.00  0.00    +0.000 A 
ATOM     11  C   UNL     1       5.960   4.186  15.245  0.00  0.00    +0.000 A 
ATOM     12  O   UNL     1       6.632   3.592  14.411  0.00  0.00    +0.000 OA
ATOM     13  N   UNL     1       5.359   3.568  16.312  0.00  0.00    +0.000 N 
ATOM     14  N   UNL     1       4.577   4.175  17.251  0.00  0.00    +0.000 NA
ATOM     15  H   UNL     1       5.482   2.565  16.398  0.00  0.00    +0.000 HD
ENDBRANCH   3   8
BRANCH   1  17
ATOM     16  O   UNL     1       2.052  10.006  17.565  0.00  0.00    +0.000 OA
ATOM     17  C   UNL     1       1.532   9.343  18.458  0.00  0.00    +0.000 C 
ATOM     18  N   UNL     1       0.379   9.716  19.106  0.00  0.00    +0.000 N 
ATOM     19  H   UNL     1       0.039   9.174  19.892  0.00  0.00    +0.000 HD
BRANCH  18  20
ATOM     20  C   UNL     1      -0.299  10.983  18.886  0.00  0.00    +0.000 C 
BRANCH  20  21
ATOM     21  C   UNL     1       0.241  12.090  19.833  0.00  0.00    +0.000 C 
ATOM     22  C   UNL     1      -0.674  13.332  19.876  0.00  0.00    +0.000 C 
ATOM     23  C   UNL     1      -2.134  13.079  20.239  0.00  0.00    +0.000 C 
ATOM     24  C   UNL     1      -2.462  12.918  21.721  0.00  0.00    +0.000 C 
ATOM     25  C   UNL     1      -1.397  12.331  22.640  0.00  0.00    +0.000 C 
ATOM     26  C   UNL     1      -0.638  11.134  22.081  0.00  0.00    +0.000 C 
ATOM     27  C   UNL     1       0.561  11.554  21.238  0.00  0.00    +0.000 C 
BRANCH  21  28
ATOM     28  O   UNL     1       1.518  12.523  19.301  0.00  0.00    +0.000 OA
ATOM     29  H   UNL     1       1.348  13.119  18.551  0.00  0.00    +0.000 HD
ENDBRANCH  21  28
ENDBRANCH  20  21
ENDBRANCH  18  20
ENDBRANCH   1  17
TORSDOF 5
ENDMDL
MODEL 8
REMARK VINA RESULT:      -7.6      1.886      2.398
REMARK  Name = 
REMARK  5 active torsions:
REMARK  status: ('A' for Active; 'I' for Inactive)
REMARK    1  A    between atoms: C_2  and  C_13
REMARK    2  A    between atoms: N_3  and  C_4
REMARK    3  A    between atoms: C_4  and  C_5
REMARK    4  A    between atoms: C_5  and  O_6
REMARK    5  A    between atoms: C_15  and  C_16
REMARK                            x       y       z     vdW  Elec       q    Type
REMARK                         _______ _______ _______ _____ _____    ______ ____
ROOT
ATOM      1  C   UNL     1       2.849   7.275  18.329  0.00  0.00    +0.000 A 
ATOM      2  C   UNL     1       3.765   7.023  17.285  0.00  0.00    +0.000 A 
ATOM      3  C   UNL     1       4.427   5.790  17.192  0.00  0.00    +0.000 A 
ATOM      4  C   UNL     1       4.161   4.799  18.144  0.00  0.00    +0.000 A 
ATOM      5  C   UNL     1       3.272   5.047  19.190  0.00  0.00    +0.000 A 
ATOM      6  C   UNL     1       2.621   6.281  19.294  0.00  0.00    +0.000 A 
ATOM      7 CL   UNL     1       1.590   6.482  20.668  0.00  0.00    +0.000 Cl
ENDROOT
BRANCH   3   8
ATOM      8  C   UNL     1       5.375   5.468  16.084  0.00  0.00    +0.000 A 
ATOM      9  C   UNL     1       4.904   4.538  15.028  0.00  0.00    +0.000 A 
ATOM     10  C   UNL     1       5.765   4.237  14.051  0.00  0.00    +0.000 A 
ATOM     11  C   UNL     1       7.117   4.824  14.039  0.00  0.00    +0.000 A 
ATOM     12  O   UNL     1       7.918   4.541  13.157  0.00  0.00    +0.000 OA
ATOM     13  N   UNL     1       7.393   5.699  15.059  0.00  0.00    +0.000 N 
ATOM     14  N   UNL     1       6.550   6.027  16.081  0.00  0.00    +0.000 NA
ATOM     15  H   UNL     1       8.315   6.121  15.073  0.00  0.00    +0.000 HD
ENDBRANCH   3   8
BRANCH   1  17
ATOM     16  O   UNL     1       2.031   9.202  17.247  0.00  0.00    +0.000 OA
ATOM     17  C   UNL     1       2.178   8.608  18.311  0.00  0.00    +0.000 C 
ATOM     18  N   UNL     1       1.700   9.074  19.512  0.00  0.00    +0.000 N 
ATOM     19  H   UNL     1       1.922   8.585  20.372  0.00  0.00    +0.000 HD
BRANCH  18  20
ATOM     20  C   UNL     1       1.062  10.370  19.680  0.00  0.00    +0.000 C 
BRANCH  20  21
ATOM     21  C   UNL     1      -0.455  10.223  19.985  0.00  0.00    +0.000 C 
ATOM     22  C   UNL     1      -0.747   9.114  21.018  0.00  0.00    +0.000 C 
ATOM     23  C   UNL     1      -0.013   9.227  22.351  0.00  0.00    +0.000 C 
ATOM     24  C   UNL     1      -0.591  10.193  23.381  0.00  0.00    +0.000 C 
ATOM     25  C   UNL     1      -1.336  11.426  22.883  0.00  0.00    +0.000 C 
ATOM     26  C   UNL     1      -0.688  12.150  21.708  0.00  0.00    +0.000 C 
ATOM     27  C   UNL     1      -1.108  11.562  20.366  0.00  0.00    +0.000 C 
BRANCH  21  28
ATOM     28  O   UNL     1      -1.103   9.832  18.749  0.00  0.00    +0.000 OA
ATOM     29  H   UNL     1      -0.774   8.950  18.500  0.00  0.00    +0.000 HD
ENDBRANCH  21  28
ENDBRANCH  20  21
ENDBRANCH  18  20
ENDBRANCH   1  17
TORSDOF 5
ENDMDL
MODEL 9
REMARK VINA RESULT:      -7.6      3.202      8.459
REMARK  Name = 
REMARK  5 active torsions:
REMARK  status: ('A' for Active; 'I' for Inactive)
REMARK    1  A    between atoms: C_2  and  C_13
REMARK    2  A    between atoms: N_3  and  C_4
REMARK    3  A    between atoms: C_4  and  C_5
REMARK    4  A    between atoms: C_5  and  O_6
REMARK    5  A    between atoms: C_15  and  C_16
REMARK                            x       y       z     vdW  Elec       q    Type
REMARK                         _______ _______ _______ _____ _____    ______ ____
ROOT
ATOM      1  C   UNL     1       1.156  10.281  19.252  0.00  0.00    +0.000 A 
ATOM      2  C   UNL     1       1.595  11.491  18.670  0.00  0.00    +0.000 A 
ATOM      3  C   UNL     1       1.471  12.706  19.360  0.00  0.00    +0.000 A 
ATOM      4  C   UNL     1       0.914  12.708  20.643  0.00  0.00    +0.000 A 
ATOM      5  C   UNL     1       0.460  11.521  21.218  0.00  0.00    +0.000 A 
ATOM      6  C   UNL     1       0.569  10.309  20.527  0.00  0.00    +0.000 A 
ATOM      7 CL   UNL     1      -0.085   8.920  21.324  0.00  0.00    +0.000 Cl
ENDROOT
BRANCH   3   8
ATOM      8  C   UNL     1       1.955  14.002  18.797  0.00  0.00    +0.000 A 
ATOM      9  C   UNL     1       1.217  15.232  19.179  0.00  0.00    +0.000 A 
ATOM     10  C   UNL     1       1.641  16.386  18.655  0.00  0.00    +0.000 A 
ATOM     11  C   UNL     1       2.803  16.412  17.748  0.00  0.00    +0.000 A 
ATOM     12  O   UNL     1       3.188  17.463  17.251  0.00  0.00    +0.000 OA
ATOM     13  N   UNL     1       3.408  15.202  17.523  0.00  0.00    +0.000 N 
ATOM     14  N   UNL     1       3.003  14.000  18.026  0.00  0.00    +0.000 NA
ATOM     15  H   UNL     1       4.212  15.191  16.905  0.00  0.00    +0.000 HD
ENDBRANCH   3   8
BRANCH   1  17
ATOM     16  O   UNL     1       0.813   8.926  17.354  0.00  0.00    +0.000 OA
ATOM     17  C   UNL     1       1.367   9.045  18.443  0.00  0.00    +0.000 C 
ATOM     18  N   UNL     1       2.239   8.114  18.955  0.00  0.00    +0.000 N 
ATOM     19  H   UNL     1       2.604   8.222  19.895  0.00  0.00    +0.000 HD
BRANCH  18  20
ATOM     20  C   UNL     1       2.525   6.839  18.320  0.00  0.00    +0.000 C 
BRANCH  20  21
ATOM     21  C   UNL     1       2.711   5.708  19.370  0.00  0.00    +0.000 C 
ATOM     22  C   UNL     1       1.655   4.591  19.230  0.00  0.00    +0.000 C 
ATOM     23  C   UNL     1       1.546   3.937  17.856  0.00  0.00    +0.000 C 
ATOM     24  C   UNL     1       2.575   2.862  17.515  0.00  0.00    +0.000 C 
ATOM     25  C   UNL     1       3.963   2.963  18.137  0.00  0.00    +0.000 C 
ATOM     26  C   UNL     1       4.569   4.361  18.158  0.00  0.00    +0.000 C 
ATOM     27  C   UNL     1       4.145   5.156  19.388  0.00  0.00    +0.000 C 
BRANCH  21  28
ATOM     28  O   UNL     1       2.525   6.304  20.677  0.00  0.00    +0.000 OA
ATOM     29  H   UNL     1       2.629   7.268  20.589  0.00  0.00    +0.000 HD
ENDBRANCH  21  28
ENDBRANCH  20  21
ENDBRANCH  18  20
ENDBRANCH   1  17
TORSDOF 5
ENDMDL
