MODEL 1
REMARK VINA RESULT:      -8.2      0.000      0.000
REMARK  Name = 
REMARK  4 active torsions:
REMARK  status: ('A' for Active; 'I' for Inactive)
REMARK    1  A    between atoms: C_1  and  O_2
REMARK    2  A    between atoms: O_2  and  C_3
REMARK    3  A    between atoms: C_6  and  C_7
REMARK    4  A    between atoms: C_13  and  C_14
REMARK                            x       y       z     vdW  Elec       q    Type
REMARK                         _______ _______ _______ _____ _____    ______ ____
ROOT
ATOM      1  C   UNL     1       4.433   3.891  18.492  0.00  0.00    +0.000 A 
ATOM      2  C   UNL     1       4.342   2.707  19.218  0.00  0.00    +0.000 A 
ATOM      3  N   UNL     1       3.451   2.794  20.258  0.00  0.00    +0.000 NA
ATOM      4  C   UNL     1       2.995   4.018  20.172  0.00  0.00    +0.000 A 
ATOM      5  C   UNL     1       2.044   4.664  21.031  0.00  0.00    +0.000 A 
ATOM      6  N   UNL     1       1.665   5.898  20.839  0.00  0.00    +0.000 NA
ATOM      7  C   UNL     1       2.202   6.586  19.746  0.00  0.00    +0.000 A 
ATOM      8  C   UNL     1       3.082   6.019  18.893  0.00  0.00    +0.000 A 
ATOM      9  N   UNL     1       3.516   4.723  19.118  0.00  0.00    +0.000 N 
ENDROOT
BRANCH   1  13
ATOM     10  C   UNL     1       6.978   4.926  15.191  0.00  0.00    +0.000 A 
ATOM     11  C   UNL     1       7.445   4.986  16.502  0.00  0.00    +0.000 A 
ATOM     12  C   UNL     1       6.619   4.616  17.569  0.00  0.00    +0.000 A 
ATOM     13  C   UNL     1       5.295   4.210  17.348  0.00  0.00    +0.000 A 
ATOM     14  C   UNL     1       4.827   4.194  16.029  0.00  0.00    +0.000 A 
ATOM     15  C   UNL     1       5.663   4.532  14.956  0.00  0.00    +0.000 A 
BRANCH  10  17
ATOM     16  C   UNL     1       7.536   4.944  12.899  0.00  0.00    +0.000 C 
ATOM     17  O   UNL     1       7.867   5.318  14.232  0.00  0.00    +0.000 OA
ENDBRANCH  10  17
ENDBRANCH   1  13
BRANCH   7  18
ATOM     18  C   UNL     1       1.795   8.009  19.532  0.00  0.00    +0.000 A 
ATOM     19  C   UNL     1       2.001   8.633  18.302  0.00  0.00    +0.000 A 
ATOM     20  C   UNL     1       1.596   9.954  18.132  0.00  0.00    +0.000 A 
ATOM     21  C   UNL     1       0.993  10.623  19.189  0.00  0.00    +0.000 A 
ATOM     22  C   UNL     1       0.819   9.936  20.378  0.00  0.00    +0.000 A 
ATOM     23  N   UNL     1       1.201   8.655  20.572  0.00  0.00    +0.000 NA
ENDBRANCH   7  18
TORSDOF 3
ENDMDL
MODEL 2
REMARK VINA RESULT:      -7.9      0.246      1.001
REMARK  Name = 
REMARK  4 active torsions:
REMARK  status: ('A' for Active; 'I' for Inactive)
REMARK    1  A    between atoms: C_1  and  O_2
REMARK    2  A    between atoms: O_2  and  C_3
REMARK    3  A    between atoms: C_6  and  C_7
REMARK    4  A    between atoms: C_13  and  C_14
REMARK                            x       y       z     vdW  Elec       q    Type
REMARK                         _______ _______ _______ _____ _____    ______ ____
ROOT
ATOM      1  C   UNL     1       4.441   4.041  18.448  0.00  0.00    +0.000 A 
ATOM      2  C   UNL     1       4.354   2.824  19.119  0.00  0.00    +0.000 A 
ATOM      3  N   UNL     1       3.447   2.854  20.149  0.00  0.00    +0.000 NA
ATOM      4  C   UNL     1       2.978   4.076  20.111  0.00  0.00    +0.000 A 
ATOM      5  C   UNL     1       2.008   4.672  20.984  0.00  0.00    +0.000 A 
ATOM      6  N   UNL     1       1.617   5.909  20.842  0.00  0.00    +0.000 NA
ATOM      7  C   UNL     1       2.162   6.651  19.789  0.00  0.00    +0.000 A 
ATOM      8  C   UNL     1       3.061   6.133  18.925  0.00  0.00    +0.000 A 
ATOM      9  N   UNL     1       3.506   4.834  19.097  0.00  0.00    +0.000 N 
ENDROOT
BRANCH   1  13
ATOM     10  C   UNL     1       7.013   5.041  15.158  0.00  0.00    +0.000 A 
ATOM     11  C   UNL     1       5.873   4.264  14.966  0.00  0.00    +0.000 A 
ATOM     12  C   UNL     1       5.023   3.970  16.037  0.00  0.00    +0.000 A 
ATOM     13  C   UNL     1       5.316   4.420  17.333  0.00  0.00    +0.000 A 
ATOM     14  C   UNL     1       6.486   5.166  17.518  0.00  0.00    +0.000 A 
ATOM     15  C   UNL     1       7.321   5.490  16.440  0.00  0.00    +0.000 A 
BRANCH  10  17
ATOM     16  C   UNL     1       7.286   4.662  12.846  0.00  0.00    +0.000 C 
ATOM     17  O   UNL     1       7.773   5.257  14.044  0.00  0.00    +0.000 OA
ENDBRANCH  10  17
ENDBRANCH   1  13
BRANCH   7  18
ATOM     18  C   UNL     1       1.741   8.078  19.634  0.00  0.00    +0.000 A 
ATOM     19  C   UNL     1       1.899   8.740  18.417  0.00  0.00    +0.000 A 
ATOM     20  C   UNL     1       1.482  10.063  18.301  0.00  0.00    +0.000 A 
ATOM     21  C   UNL     1       0.917  10.697  19.399  0.00  0.00    +0.000 A 
ATOM     22  C   UNL     1       0.789   9.974  20.573  0.00  0.00    +0.000 A 
ATOM     23  N   UNL     1       1.183   8.689  20.714  0.00  0.00    +0.000 NA
ENDBRANCH   7  18
TORSDOF 3
ENDMDL
MODEL 3
REMARK VINA RESULT:      -7.8      0.587      1.439
REMARK  Name = 
REMARK  4 active torsions:
REMARK  status: ('A' for Active; 'I' for Inactive)
REMARK    1  A    between atoms: C_1  and  O_2
REMARK    2  A    between atoms: O_2  and  C_3
REMARK    3  A    between atoms: C_6  and  C_7
REMARK    4  A    between atoms: C_13  and  C_14
REMARK                            x       y       z     vdW  Elec       q    Type
REMARK                         _______ _______ _______ _____ _____    ______ ____
ROOT
ATOM      1  C   UNL     1       4.392   3.867  18.556  0.00  0.00    +0.000 A 
ATOM      2  C   UNL     1       4.298   2.630  19.189  0.00  0.00    +0.000 A 
ATOM      3  N   UNL     1       3.383   2.629  20.211  0.00  0.00    +0.000 NA
ATOM      4  C   UNL     1       2.915   3.852  20.207  0.00  0.00    +0.000 A 
ATOM      5  C   UNL     1       1.939   4.422  21.090  0.00  0.00    +0.000 A 
ATOM      6  N   UNL     1       1.551   5.664  20.983  0.00  0.00    +0.000 NA
ATOM      7  C   UNL     1       2.105   6.438  19.958  0.00  0.00    +0.000 A 
ATOM      8  C   UNL     1       3.010   5.945  19.086  0.00  0.00    +0.000 A 
ATOM      9  N   UNL     1       3.453   4.640  19.222  0.00  0.00    +0.000 N 
ENDROOT
BRANCH   1  13
ATOM     10  C   UNL     1       6.964   4.972  15.300  0.00  0.00    +0.000 A 
ATOM     11  C   UNL     1       5.660   4.542  15.068  0.00  0.00    +0.000 A 
ATOM     12  C   UNL     1       4.818   4.215  16.137  0.00  0.00    +0.000 A 
ATOM     13  C   UNL     1       5.277   4.279  17.461  0.00  0.00    +0.000 A 
ATOM     14  C   UNL     1       6.603   4.674  17.676  0.00  0.00    +0.000 A 
ATOM     15  C   UNL     1       7.436   5.035  16.608  0.00  0.00    +0.000 A 
BRANCH  10  17
ATOM     16  C   UNL     1       7.234   4.658  12.978  0.00  0.00    +0.000 C 
ATOM     17  O   UNL     1       7.697   5.256  14.183  0.00  0.00    +0.000 OA
ENDBRANCH  10  17
ENDBRANCH   1  13
BRANCH   7  18
ATOM     18  C   UNL     1       1.687   7.869  19.843  0.00  0.00    +0.000 A 
ATOM     19  C   UNL     1       1.119   8.536  20.927  0.00  0.00    +0.000 A 
ATOM     20  C   UNL     1       0.756   9.874  20.791  0.00  0.00    +0.000 A 
ATOM     21  C   UNL     1       0.970  10.516  19.579  0.00  0.00    +0.000 A 
ATOM     22  C   UNL     1       1.543   9.790  18.549  0.00  0.00    +0.000 A 
ATOM     23  N   UNL     1       1.905   8.492  18.653  0.00  0.00    +0.000 NA
ENDBRANCH   7  18
TORSDOF 3
ENDMDL
MODEL 4
REMARK VINA RESULT:      -7.1      2.513      6.692
REMARK  Name = 
REMARK  4 active torsions:
REMARK  status: ('A' for Active; 'I' for Inactive)
REMARK    1  A    between atoms: C_1  and  O_2
REMARK    2  A    between atoms: O_2  and  C_3
REMARK    3  A    between atoms: C_6  and  C_7
REMARK    4  A    between atoms: C_13  and  C_14
REMARK                            x       y       z     vdW  Elec       q    Type
REMARK                         _______ _______ _______ _____ _____    ______ ____
ROOT
ATOM      1  C   UNL     1       2.230   6.244  19.939  0.00  0.00    +0.000 A 
ATOM      2  C   UNL     1       1.726   5.491  20.996  0.00  0.00    +0.000 A 
ATOM      3  N   UNL     1       2.211   4.208  21.008  0.00  0.00    +0.000 NA
ATOM      4  C   UNL     1       3.010   4.171  19.971  0.00  0.00    +0.000 A 
ATOM      5  C   UNL     1       3.773   3.055  19.489  0.00  0.00    +0.000 A 
ATOM      6  N   UNL     1       4.539   3.145  18.437  0.00  0.00    +0.000 NA
ATOM      7  C   UNL     1       4.617   4.380  17.785  0.00  0.00    +0.000 A 
ATOM      8  C   UNL     1       3.938   5.468  18.210  0.00  0.00    +0.000 A 
ATOM      9  N   UNL     1       3.094   5.365  19.302  0.00  0.00    +0.000 N 
ENDROOT
BRANCH   1  13
ATOM     10  C   UNL     1       1.224  10.277  18.861  0.00  0.00    +0.000 A 
ATOM     11  C   UNL     1       0.918   9.776  20.124  0.00  0.00    +0.000 A 
ATOM     12  C   UNL     1       1.279   8.472  20.478  0.00  0.00    +0.000 A 
ATOM     13  C   UNL     1       1.924   7.628  19.561  0.00  0.00    +0.000 A 
ATOM     14  C   UNL     1       2.188   8.132  18.282  0.00  0.00    +0.000 A 
ATOM     15  C   UNL     1       1.857   9.450  17.937  0.00  0.00    +0.000 A 
BRANCH  10  17
ATOM     16  C   UNL     1      -0.549  11.833  18.915  0.00  0.00    +0.000 C 
ATOM     17  O   UNL     1       0.817  11.559  18.623  0.00  0.00    +0.000 OA
ENDBRANCH  10  17
ENDBRANCH   1  13
BRANCH   7  18
ATOM     18  C   UNL     1       5.471   4.486  16.563  0.00  0.00    +0.000 A 
ATOM     19  C   UNL     1       5.010   4.032  15.328  0.00  0.00    +0.000 A 
ATOM     20  C   UNL     1       5.825   4.162  14.206  0.00  0.00    +0.000 A 
ATOM     21  C   UNL     1       7.079   4.742  14.340  0.00  0.00    +0.000 A 
ATOM     22  C   UNL     1       7.466   5.173  15.597  0.00  0.00    +0.000 A 
ATOM     23  N   UNL     1       6.697   5.061  16.702  0.00  0.00    +0.000 NA
ENDBRANCH   7  18
TORSDOF 3
ENDMDL
MODEL 5
REMARK VINA RESULT:      -7.1      3.877      6.248
REMARK  Name = 
REMARK  4 active torsions:
REMARK  status: ('A' for Active; 'I' for Inactive)
REMARK    1  A    between atoms: C_1  and  O_2
REMARK    2  A    between atoms: O_2  and  C_3
REMARK    3  A    between atoms: C_6  and  C_7
REMARK    4  A    between atoms: C_13  and  C_14
REMARK                            x       y       z     vdW  Elec       q    Type
REMARK                         _______ _______ _______ _____ _____    ______ ____
ROOT
ATOM      1  C   UNL     1       1.098   8.723  20.931  0.00  0.00    +0.000 A 
ATOM      2  C   UNL     1       1.439   9.231  22.181  0.00  0.00    +0.000 A 
ATOM      3  N   UNL     1       0.723  10.356  22.507  0.00  0.00    +0.000 NA
ATOM      4  C   UNL     1      -0.054  10.537  21.469  0.00  0.00    +0.000 A 
ATOM      5  C   UNL     1      -1.005  11.591  21.257  0.00  0.00    +0.000 A 
ATOM      6  N   UNL     1      -1.727  11.663  20.173  0.00  0.00    +0.000 NA
ATOM      7  C   UNL     1      -1.565  10.662  19.210  0.00  0.00    +0.000 A 
ATOM      8  C   UNL     1      -0.702   9.635  19.368  0.00  0.00    +0.000 A 
ATOM      9  N   UNL     1       0.094   9.579  20.500  0.00  0.00    +0.000 N 
ENDROOT
BRANCH   1  13
ATOM     10  C   UNL     1       2.683   5.384  18.746  0.00  0.00    +0.000 A 
ATOM     11  C   UNL     1       2.738   6.673  18.222  0.00  0.00    +0.000 A 
ATOM     12  C   UNL     1       2.249   7.760  18.955  0.00  0.00    +0.000 A 
ATOM     13  C   UNL     1       1.662   7.573  20.215  0.00  0.00    +0.000 A 
ATOM     14  C   UNL     1       1.576   6.267  20.710  0.00  0.00    +0.000 A 
ATOM     15  C   UNL     1       2.097   5.181  19.992  0.00  0.00    +0.000 A 
BRANCH  10  17
ATOM     16  C   UNL     1       2.760   3.078  18.253  0.00  0.00    +0.000 C 
ATOM     17  O   UNL     1       3.182   4.400  17.940  0.00  0.00    +0.000 OA
ENDBRANCH  10  17
ENDBRANCH   1  13
BRANCH   7  18
ATOM     18  C   UNL     1      -2.369  10.749  17.952  0.00  0.00    +0.000 A 
ATOM     19  C   UNL     1      -1.965  10.076  16.799  0.00  0.00    +0.000 A 
ATOM     20  C   UNL     1      -2.745  10.166  15.649  0.00  0.00    +0.000 A 
ATOM     21  C   UNL     1      -3.909  10.921  15.674  0.00  0.00    +0.000 A 
ATOM     22  C   UNL     1      -4.247  11.557  16.856  0.00  0.00    +0.000 A 
ATOM     23  N   UNL     1      -3.511  11.488  17.986  0.00  0.00    +0.000 NA
ENDBRANCH   7  18
TORSDOF 3
ENDMDL
MODEL 6
REMARK VINA RESULT:      -7.1      3.339      6.140
REMARK  Name = 
REMARK  4 active torsions:
REMARK  status: ('A' for Active; 'I' for Inactive)
REMARK    1  A    between atoms: C_1  and  O_2
REMARK    2  A    between atoms: O_2  and  C_3
REMARK    3  A    between atoms: C_6  and  C_7
REMARK    4  A    between atoms: C_13  and  C_14
REMARK                            x       y       z     vdW  Elec       q    Type
REMARK                         _______ _______ _______ _____ _____    ______ ____
ROOT
ATOM      1  C   UNL     1       1.117   8.710  20.885  0.00  0.00    +0.000 A 
ATOM      2  C   UNL     1       1.473   9.217  22.131  0.00  0.00    +0.000 A 
ATOM      3  N   UNL     1       0.766  10.344  22.464  0.00  0.00    +0.000 NA
ATOM      4  C   UNL     1      -0.021  10.529  21.434  0.00  0.00    +0.000 A 
ATOM      5  C   UNL     1      -0.969  11.587  21.232  0.00  0.00    +0.000 A 
ATOM      6  N   UNL     1      -1.702  11.662  20.155  0.00  0.00    +0.000 NA
ATOM      7  C   UNL     1      -1.554  10.661  19.190  0.00  0.00    +0.000 A 
ATOM      8  C   UNL     1      -0.693   9.630  19.340  0.00  0.00    +0.000 A 
ATOM      9  N   UNL     1       0.113   9.570  20.464  0.00  0.00    +0.000 N 
ENDROOT
BRANCH   1  13
ATOM     10  C   UNL     1       2.795   5.313  18.865  0.00  0.00    +0.000 A 
ATOM     11  C   UNL     1       2.179   5.175  20.106  0.00  0.00    +0.000 A 
ATOM     12  C   UNL     1       1.606   6.281  20.742  0.00  0.00    +0.000 A 
ATOM     13  C   UNL     1       1.669   7.558  20.163  0.00  0.00    +0.000 A 
ATOM     14  C   UNL     1       2.327   7.687  18.934  0.00  0.00    +0.000 A 
ATOM     15  C   UNL     1       2.871   6.574  18.280  0.00  0.00    +0.000 A 
BRANCH  10  17
ATOM     16  C   UNL     1       4.238   4.351  17.265  0.00  0.00    +0.000 C 
ATOM     17  O   UNL     1       3.326   4.168  18.342  0.00  0.00    +0.000 OA
ENDBRANCH  10  17
ENDBRANCH   1  13
BRANCH   7  18
ATOM     18  C   UNL     1      -2.369  10.751  17.940  0.00  0.00    +0.000 A 
ATOM     19  C   UNL     1      -1.980  10.077  16.783  0.00  0.00    +0.000 A 
ATOM     20  C   UNL     1      -2.771  10.170  15.641  0.00  0.00    +0.000 A 
ATOM     21  C   UNL     1      -3.932  10.930  15.677  0.00  0.00    +0.000 A 
ATOM     22  C   UNL     1      -4.256  11.567  16.863  0.00  0.00    +0.000 A 
ATOM     23  N   UNL     1      -3.508  11.495  17.986  0.00  0.00    +0.000 NA
ENDBRANCH   7  18
TORSDOF 3
ENDMDL
MODEL 7
REMARK VINA RESULT:      -7.0      2.524      6.644
REMARK  Name = 
REMARK  4 active torsions:
REMARK  status: ('A' for Active; 'I' for Inactive)
REMARK    1  A    between atoms: C_1  and  O_2
REMARK    2  A    between atoms: O_2  and  C_3
REMARK    3  A    between atoms: C_6  and  C_7
REMARK    4  A    between atoms: C_13  and  C_14
REMARK                            x       y       z     vdW  Elec       q    Type
REMARK                         _______ _______ _______ _____ _____    ______ ____
ROOT
ATOM      1  C   UNL     1       2.226   6.294  19.922  0.00  0.00    +0.000 A 
ATOM      2  C   UNL     1       1.723   5.545  20.982  0.00  0.00    +0.000 A 
ATOM      3  N   UNL     1       2.202   4.259  20.994  0.00  0.00    +0.000 NA
ATOM      4  C   UNL     1       2.996   4.217  19.954  0.00  0.00    +0.000 A 
ATOM      5  C   UNL     1       3.751   3.097  19.471  0.00  0.00    +0.000 A 
ATOM      6  N   UNL     1       4.514   3.181  18.415  0.00  0.00    +0.000 NA
ATOM      7  C   UNL     1       4.595   4.414  17.761  0.00  0.00    +0.000 A 
ATOM      8  C   UNL     1       3.923   5.506  18.186  0.00  0.00    +0.000 A 
ATOM      9  N   UNL     1       3.083   5.409  19.283  0.00  0.00    +0.000 N 
ENDROOT
BRANCH   1  13
ATOM     10  C   UNL     1       1.235  10.329  18.841  0.00  0.00    +0.000 A 
ATOM     11  C   UNL     1       0.937   9.833  20.108  0.00  0.00    +0.000 A 
ATOM     12  C   UNL     1       1.293   8.528  20.463  0.00  0.00    +0.000 A 
ATOM     13  C   UNL     1       1.925   7.679  19.543  0.00  0.00    +0.000 A 
ATOM     14  C   UNL     1       2.181   8.178  18.260  0.00  0.00    +0.000 A 
ATOM     15  C   UNL     1       1.856   9.497  17.915  0.00  0.00    +0.000 A 
BRANCH  10  17
ATOM     16  C   UNL     1       1.849  12.604  18.714  0.00  0.00    +0.000 C 
ATOM     17  O   UNL     1       0.833  11.613  18.603  0.00  0.00    +0.000 OA
ENDBRANCH  10  17
ENDBRANCH   1  13
BRANCH   7  18
ATOM     18  C   UNL     1       5.445   4.515  16.535  0.00  0.00    +0.000 A 
ATOM     19  C   UNL     1       6.770   4.940  16.617  0.00  0.00    +0.000 A 
ATOM     20  C   UNL     1       7.538   5.007  15.458  0.00  0.00    +0.000 A 
ATOM     21  C   UNL     1       6.970   4.647  14.244  0.00  0.00    +0.000 A 
ATOM     22  C   UNL     1       5.650   4.230  14.241  0.00  0.00    +0.000 A 
ATOM     23  N   UNL     1       4.881   4.154  15.350  0.00  0.00    +0.000 NA
ENDBRANCH   7  18
TORSDOF 3
ENDMDL
MODEL 8
REMARK VINA RESULT:      -7.0      3.780      6.255
REMARK  Name = 
REMARK  4 active torsions:
REMARK  status: ('A' for Active; 'I' for Inactive)
REMARK    1  A    between atoms: C_1  and  O_2
REMARK    2  A    between atoms: O_2  and  C_3
REMARK    3  A    between atoms: C_6  and  C_7
REMARK    4  A    between atoms: C_13  and  C_14
REMARK                            x       y       z     vdW  Elec       q    Type
REMARK                         _______ _______ _______ _____ _____    ______ ____
ROOT
ATOM      1  C   UNL     1       1.111   8.722  20.865  0.00  0.00    +0.000 A 
ATOM      2  C   UNL     1       1.465   9.247  22.104  0.00  0.00    +0.000 A 
ATOM      3  N   UNL     1       0.755  10.378  22.420  0.00  0.00    +0.000 NA
ATOM      4  C   UNL     1      -0.031  10.546  21.387  0.00  0.00    +0.000 A 
ATOM      5  C   UNL     1      -0.981  11.599  21.169  0.00  0.00    +0.000 A 
ATOM      6  N   UNL     1      -1.713  11.658  20.090  0.00  0.00    +0.000 NA
ATOM      7  C   UNL     1      -1.562  10.643  19.140  0.00  0.00    +0.000 A 
ATOM      8  C   UNL     1      -0.700   9.616  19.305  0.00  0.00    +0.000 A 
ATOM      9  N   UNL     1       0.106   9.574  20.431  0.00  0.00    +0.000 N 
ENDROOT
BRANCH   1  13
ATOM     10  C   UNL     1       2.797   5.299  18.895  0.00  0.00    +0.000 A 
ATOM     11  C   UNL     1       2.178   5.178  20.138  0.00  0.00    +0.000 A 
ATOM     12  C   UNL     1       1.603   6.292  20.757  0.00  0.00    +0.000 A 
ATOM     13  C   UNL     1       1.665   7.560  20.160  0.00  0.00    +0.000 A 
ATOM     14  C   UNL     1       2.325   7.673  18.931  0.00  0.00    +0.000 A 
ATOM     15  C   UNL     1       2.872   6.551  18.293  0.00  0.00    +0.000 A 
BRANCH  10  17
ATOM     16  C   UNL     1       2.595   3.543  17.332  0.00  0.00    +0.000 C 
ATOM     17  O   UNL     1       3.330   4.147  18.390  0.00  0.00    +0.000 OA
ENDBRANCH  10  17
ENDBRANCH   1  13
BRANCH   7  18
ATOM     18  C   UNL     1      -2.377  10.714  17.888  0.00  0.00    +0.000 A 
ATOM     19  C   UNL     1      -3.560  11.450  17.847  0.00  0.00    +0.000 A 
ATOM     20  C   UNL     1      -4.286  11.508  16.660  0.00  0.00    +0.000 A 
ATOM     21  C   UNL     1      -3.816  10.835  15.542  0.00  0.00    +0.000 A 
ATOM     22  C   UNL     1      -2.631  10.129  15.657  0.00  0.00    +0.000 A 
ATOM     23  N   UNL     1      -1.906  10.055  16.795  0.00  0.00    +0.000 NA
ENDBRANCH   7  18
TORSDOF 3
ENDMDL
MODEL 9
REMARK VINA RESULT:      -7.0      2.472      6.531
REMARK  Name = 
REMARK  4 active torsions:
REMARK  status: ('A' for Active; 'I' for Inactive)
REMARK    1  A    between atoms: C_1  and  O_2
REMARK    2  A    between atoms: O_2  and  C_3
REMARK    3  A    between atoms: C_6  and  C_7
REMARK    4  A    between atoms: C_13  and  C_14
REMARK                            x       y       z     vdW  Elec       q    Type
REMARK                         _______ _______ _______ _____ _____    ______ ____
ROOT
ATOM      1  C   UNL     1       2.248   6.149  19.967  0.00  0.00    +0.000 A 
ATOM      2  C   UNL     1       1.781   5.384  21.032  0.00  0.00    +0.000 A 
ATOM      3  N   UNL     1       2.289   4.109  21.028  0.00  0.00    +0.000 NA
ATOM      4  C   UNL     1       3.065   4.090  19.974  0.00  0.00    +0.000 A 
ATOM      5  C   UNL     1       3.836   2.990  19.471  0.00  0.00    +0.000 A 
ATOM      6  N   UNL     1       4.577   3.096  18.402  0.00  0.00    +0.000 NA
ATOM      7  C   UNL     1       4.618   4.334  17.753  0.00  0.00    +0.000 A 
ATOM      8  C   UNL     1       3.930   5.409  18.196  0.00  0.00    +0.000 A 
ATOM      9  N   UNL     1       3.112   5.287  19.307  0.00  0.00    +0.000 N 
ENDROOT
BRANCH   1  13
ATOM     10  C   UNL     1       1.362  10.205  18.871  0.00  0.00    +0.000 A 
ATOM     11  C   UNL     1       2.009   9.348  17.983  0.00  0.00    +0.000 A 
ATOM     12  C   UNL     1       2.264   8.019  18.336  0.00  0.00    +0.000 A 
ATOM     13  C   UNL     1       1.908   7.528  19.601  0.00  0.00    +0.000 A 
ATOM     14  C   UNL     1       1.295   8.412  20.497  0.00  0.00    +0.000 A 
ATOM     15  C   UNL     1       1.008   9.735  20.132  0.00  0.00    +0.000 A 
BRANCH  10  17
ATOM     16  C   UNL     1       2.360  12.233  18.193  0.00  0.00    +0.000 C 
ATOM     17  O   UNL     1       1.173  11.482  18.423  0.00  0.00    +0.000 OA
ENDBRANCH  10  17
ENDBRANCH   1  13
BRANCH   7  18
ATOM     18  C   UNL     1       5.442   4.460  16.512  0.00  0.00    +0.000 A 
ATOM     19  C   UNL     1       4.903   4.156  15.263  0.00  0.00    +0.000 A 
ATOM     20  C   UNL     1       5.693   4.299  14.125  0.00  0.00    +0.000 A 
ATOM     21  C   UNL     1       7.001   4.744  14.258  0.00  0.00    +0.000 A 
ATOM     22  C   UNL     1       7.466   5.031  15.530  0.00  0.00    +0.000 A 
ATOM     23  N   UNL     1       6.722   4.901  16.650  0.00  0.00    +0.000 NA
ENDBRANCH   7  18
TORSDOF 3
ENDMDL
