MODEL 1
REMARK VINA RESULT:      -8.2      0.000      0.000
REMARK  Name = 
REMARK  5 active torsions:
REMARK  status: ('A' for Active; 'I' for Inactive)
REMARK    1  A    between atoms: C_1  and  C_2
REMARK    2  A    between atoms: N_6  and  C_7
REMARK    3  A    between atoms: C_10  and  C_11
REMARK    4  A    between atoms: C_16  and  C_17
REMARK    5  A    between atoms: C_17  and  C_19
REMARK                            x       y       z     vdW  Elec       q    Type
REMARK                         _______ _______ _______ _____ _____    ______ ____
ROOT
ATOM      1  C   UNL     1       0.603   2.414  18.648  0.00  0.00    +0.000 C 
ATOM      2  C   UNL     1       2.013   2.867  18.469  0.00  0.00    +0.000 A 
ATOM      3  C   UNL     1       2.859   2.101  17.680  0.00  0.00    +0.000 A 
ATOM      4  N   UNL     1       4.154   2.376  17.444  0.00  0.00    +0.000 NA
ATOM      5  C   UNL     1       4.633   3.479  18.016  0.00  0.00    +0.000 A 
ATOM      6  N   UNL     1       5.961   3.804  17.753  0.00  0.00    +0.000 N 
ATOM      7  N   UNL     1       3.906   4.264  18.826  0.00  0.00    +0.000 NA
ATOM      8  C   UNL     1       2.602   3.976  19.062  0.00  0.00    +0.000 A 
ATOM      9  H   UNL     1       6.374   3.119  17.136  0.00  0.00    +0.000 HD
ENDROOT
BRANCH   6  10
ATOM     10  C   UNL     1       6.552   5.074  17.755  0.00  0.00    +0.000 A 
ATOM     11  C   UNL     1       7.573   5.354  18.670  0.00  0.00    +0.000 A 
ATOM     12  C   UNL     1       8.119   6.640  18.757  0.00  0.00    +0.000 A 
ATOM     13  C   UNL     1       7.660   7.655  17.915  0.00  0.00    +0.000 A 
ATOM     14  C   UNL     1       6.664   7.385  16.981  0.00  0.00    +0.000 A 
ATOM     15  C   UNL     1       6.113   6.103  16.908  0.00  0.00    +0.000 A 
BRANCH  13  16
ATOM     16  C   UNL     1       8.200   8.980  18.017  0.00  0.00    +0.000 C 
ATOM     17  N   UNL     1       8.636  10.049  18.107  0.00  0.00    +0.000 NA
ENDBRANCH  13  16
ENDBRANCH   6  10
BRANCH   8  18
ATOM     18  C   UNL     1       1.926   4.966  20.003  0.00  0.00    +0.000 C 
ATOM     19 CL   UNL     1       2.390   4.701  21.709  0.00  0.00    +0.000 Cl
BRANCH  18  20
ATOM     20  C   UNL     1       2.008   6.423  19.567  0.00  0.00    +0.000 A 
ATOM     21  C   UNL     1       1.583   7.426  20.460  0.00  0.00    +0.000 A 
ATOM     22  C   UNL     1       1.528   8.765  20.064  0.00  0.00    +0.000 A 
ATOM     23  C   UNL     1       1.890   9.109  18.769  0.00  0.00    +0.000 A 
ATOM     24  F   UNL     1       1.788  10.382  18.368  0.00  0.00    +0.000 F 
ATOM     25  C   UNL     1       2.352   8.147  17.881  0.00  0.00    +0.000 A 
ATOM     26  C   UNL     1       2.427   6.812  18.283  0.00  0.00    +0.000 A 
ENDBRANCH  18  20
ENDBRANCH   8  18
TORSDOF 4
ENDMDL
MODEL 2
REMARK VINA RESULT:      -8.1      0.318      1.014
REMARK  Name = 
REMARK  5 active torsions:
REMARK  status: ('A' for Active; 'I' for Inactive)
REMARK    1  A    between atoms: C_1  and  C_2
REMARK    2  A    between atoms: N_6  and  C_7
REMARK    3  A    between atoms: C_10  and  C_11
REMARK    4  A    between atoms: C_16  and  C_17
REMARK    5  A    between atoms: C_17  and  C_19
REMARK                            x       y       z     vdW  Elec       q    Type
REMARK                         _______ _______ _______ _____ _____    ______ ____
ROOT
ATOM      1  C   UNL     1       0.608   2.316  18.613  0.00  0.00    +0.000 C 
ATOM      2  C   UNL     1       2.006   2.815  18.463  0.00  0.00    +0.000 A 
ATOM      3  C   UNL     1       2.859   2.147  17.598  0.00  0.00    +0.000 A 
ATOM      4  N   UNL     1       4.145   2.472  17.377  0.00  0.00    +0.000 NA
ATOM      5  C   UNL     1       4.607   3.526  18.046  0.00  0.00    +0.000 A 
ATOM      6  N   UNL     1       5.924   3.905  17.803  0.00  0.00    +0.000 N 
ATOM      7  N   UNL     1       3.873   4.215  18.934  0.00  0.00    +0.000 NA
ATOM      8  C   UNL     1       2.577   3.877  19.153  0.00  0.00    +0.000 A 
ATOM      9  H   UNL     1       6.345   3.292  17.120  0.00  0.00    +0.000 HD
ENDROOT
BRANCH   6  10
ATOM     10  C   UNL     1       6.487   5.183  17.919  0.00  0.00    +0.000 A 
ATOM     11  C   UNL     1       6.000   6.223  17.120  0.00  0.00    +0.000 A 
ATOM     12  C   UNL     1       6.602   7.485  17.147  0.00  0.00    +0.000 A 
ATOM     13  C   UNL     1       7.690   7.725  17.989  0.00  0.00    +0.000 A 
ATOM     14  C   UNL     1       8.169   6.708  18.811  0.00  0.00    +0.000 A 
ATOM     15  C   UNL     1       7.572   5.446  18.768  0.00  0.00    +0.000 A 
BRANCH  13  16
ATOM     16  C   UNL     1       8.325   9.011  18.004  0.00  0.00    +0.000 C 
ATOM     17  N   UNL     1       8.842  10.047  18.023  0.00  0.00    +0.000 NA
ENDBRANCH  13  16
ENDBRANCH   6  10
BRANCH   8  18
ATOM     18  C   UNL     1       1.891   4.757  20.191  0.00  0.00    +0.000 C 
ATOM     19 CL   UNL     1       2.408   4.367  21.857  0.00  0.00    +0.000 Cl
BRANCH  18  20
ATOM     20  C   UNL     1       1.909   6.248  19.878  0.00  0.00    +0.000 A 
ATOM     21  C   UNL     1       1.428   7.152  20.846  0.00  0.00    +0.000 A 
ATOM     22  C   UNL     1       1.315   8.515  20.561  0.00  0.00    +0.000 A 
ATOM     23  C   UNL     1       1.675   8.983  19.305  0.00  0.00    +0.000 A 
ATOM     24  F   UNL     1       1.517  10.280  19.009  0.00  0.00    +0.000 F 
ATOM     25  C   UNL     1       2.190   8.121  18.347  0.00  0.00    +0.000 A 
ATOM     26  C   UNL     1       2.323   6.762  18.638  0.00  0.00    +0.000 A 
ENDBRANCH  18  20
ENDBRANCH   8  18
TORSDOF 4
ENDMDL
MODEL 3
REMARK VINA RESULT:      -7.4      4.383      7.257
REMARK  Name = 
REMARK  5 active torsions:
REMARK  status: ('A' for Active; 'I' for Inactive)
REMARK    1  A    between atoms: C_1  and  C_2
REMARK    2  A    between atoms: N_6  and  C_7
REMARK    3  A    between atoms: C_10  and  C_11
REMARK    4  A    between atoms: C_16  and  C_17
REMARK    5  A    between atoms: C_17  and  C_19
REMARK                            x       y       z     vdW  Elec       q    Type
REMARK                         _______ _______ _______ _____ _____    ______ ____
ROOT
ATOM      1  C   UNL     1      -1.848  12.364  22.024  0.00  0.00    +0.000 C 
ATOM      2  C   UNL     1      -0.947  11.185  21.869  0.00  0.00    +0.000 A 
ATOM      3  C   UNL     1      -0.711  10.382  22.975  0.00  0.00    +0.000 A 
ATOM      4  N   UNL     1       0.090   9.301  22.989  0.00  0.00    +0.000 NA
ATOM      5  C   UNL     1       0.679   8.995  21.835  0.00  0.00    +0.000 A 
ATOM      6  N   UNL     1       1.481   7.857  21.815  0.00  0.00    +0.000 N 
ATOM      7  N   UNL     1       0.545   9.729  20.720  0.00  0.00    +0.000 NA
ATOM      8  C   UNL     1      -0.261  10.821  20.718  0.00  0.00    +0.000 A 
ATOM      9  H   UNL     1       1.488   7.417  22.725  0.00  0.00    +0.000 HD
ENDROOT
BRANCH   6  10
ATOM     10  C   UNL     1       1.772   7.028  20.724  0.00  0.00    +0.000 A 
ATOM     11  C   UNL     1       1.572   5.648  20.839  0.00  0.00    +0.000 A 
ATOM     12  C   UNL     1       1.939   4.785  19.800  0.00  0.00    +0.000 A 
ATOM     13  C   UNL     1       2.495   5.299  18.626  0.00  0.00    +0.000 A 
ATOM     14  C   UNL     1       2.674   6.673  18.486  0.00  0.00    +0.000 A 
ATOM     15  C   UNL     1       2.319   7.527  19.533  0.00  0.00    +0.000 A 
BRANCH  13  16
ATOM     16  C   UNL     1       2.893   4.417  17.568  0.00  0.00    +0.000 C 
ATOM     17  N   UNL     1       3.218   3.699  16.719  0.00  0.00    +0.000 NA
ENDBRANCH  13  16
ENDBRANCH   6  10
BRANCH   8  18
ATOM     18  C   UNL     1      -0.299  11.540  19.375  0.00  0.00    +0.000 C 
ATOM     19 CL   UNL     1       1.282  11.499  18.541  0.00  0.00    +0.000 Cl
BRANCH  18  20
ATOM     20  C   UNL     1      -1.472  11.163  18.480  0.00  0.00    +0.000 A 
ATOM     21  C   UNL     1      -1.297  10.143  17.522  0.00  0.00    +0.000 A 
ATOM     22  C   UNL     1      -2.304   9.843  16.601  0.00  0.00    +0.000 A 
ATOM     23  C   UNL     1      -3.489  10.565  16.626  0.00  0.00    +0.000 A 
ATOM     24  F   UNL     1      -4.436  10.317  15.711  0.00  0.00    +0.000 F 
ATOM     25  C   UNL     1      -3.704  11.546  17.584  0.00  0.00    +0.000 A 
ATOM     26  C   UNL     1      -2.707  11.832  18.518  0.00  0.00    +0.000 A 
ENDBRANCH  18  20
ENDBRANCH   8  18
TORSDOF 4
ENDMDL
MODEL 4
REMARK VINA RESULT:      -7.1      2.785      5.405
REMARK  Name = 
REMARK  5 active torsions:
REMARK  status: ('A' for Active; 'I' for Inactive)
REMARK    1  A    between atoms: C_1  and  C_2
REMARK    2  A    between atoms: N_6  and  C_7
REMARK    3  A    between atoms: C_10  and  C_11
REMARK    4  A    between atoms: C_16  and  C_17
REMARK    5  A    between atoms: C_17  and  C_19
REMARK                            x       y       z     vdW  Elec       q    Type
REMARK                         _______ _______ _______ _____ _____    ______ ____
ROOT
ATOM      1  C   UNL     1       4.827   1.517  20.310  0.00  0.00    +0.000 C 
ATOM      2  C   UNL     1       3.920   2.701  20.341  0.00  0.00    +0.000 A 
ATOM      3  C   UNL     1       3.000   2.803  21.374  0.00  0.00    +0.000 A 
ATOM      4  N   UNL     1       2.110   3.801  21.521  0.00  0.00    +0.000 NA
ATOM      5  C   UNL     1       2.143   4.756  20.594  0.00  0.00    +0.000 A 
ATOM      6  N   UNL     1       1.258   5.820  20.747  0.00  0.00    +0.000 N 
ATOM      7  N   UNL     1       2.969   4.729  19.536  0.00  0.00    +0.000 NA
ATOM      8  C   UNL     1       3.860   3.716  19.395  0.00  0.00    +0.000 A 
ATOM      9  H   UNL     1       0.702   5.696  21.581  0.00  0.00    +0.000 HD
ENDROOT
BRANCH   6  10
ATOM     10  C   UNL     1       1.408   7.136  20.292  0.00  0.00    +0.000 A 
ATOM     11  C   UNL     1       0.924   8.191  21.074  0.00  0.00    +0.000 A 
ATOM     12  C   UNL     1       0.977   9.509  20.604  0.00  0.00    +0.000 A 
ATOM     13  C   UNL     1       1.531   9.785  19.353  0.00  0.00    +0.000 A 
ATOM     14  C   UNL     1       2.041   8.749  18.575  0.00  0.00    +0.000 A 
ATOM     15  C   UNL     1       1.973   7.435  19.043  0.00  0.00    +0.000 A 
BRANCH  13  16
ATOM     16  C   UNL     1       1.566  11.131  18.858  0.00  0.00    +0.000 C 
ATOM     17  N   UNL     1       1.602  12.219  18.462  0.00  0.00    +0.000 NA
ENDBRANCH  13  16
ENDBRANCH   6  10
BRANCH   8  18
ATOM     18  C   UNL     1       4.718   3.837  18.141  0.00  0.00    +0.000 C 
ATOM     19 CL   UNL     1       3.762   3.631  16.645  0.00  0.00    +0.000 Cl
BRANCH  18  20
ATOM     20  C   UNL     1       5.643   5.047  18.114  0.00  0.00    +0.000 A 
ATOM     21  C   UNL     1       5.362   6.099  17.219  0.00  0.00    +0.000 A 
ATOM     22  C   UNL     1       6.244   7.172  17.073  0.00  0.00    +0.000 A 
ATOM     23  C   UNL     1       7.416   7.198  17.815  0.00  0.00    +0.000 A 
ATOM     24  F   UNL     1       8.290   8.198  17.639  0.00  0.00    +0.000 F 
ATOM     25  C   UNL     1       7.699   6.197  18.733  0.00  0.00    +0.000 A 
ATOM     26  C   UNL     1       6.808   5.134  18.895  0.00  0.00    +0.000 A 
ENDBRANCH  18  20
ENDBRANCH   8  18
TORSDOF 4
ENDMDL
MODEL 5
REMARK VINA RESULT:      -7.0      4.212      7.280
REMARK  Name = 
REMARK  5 active torsions:
REMARK  status: ('A' for Active; 'I' for Inactive)
REMARK    1  A    between atoms: C_1  and  C_2
REMARK    2  A    between atoms: N_6  and  C_7
REMARK    3  A    between atoms: C_10  and  C_11
REMARK    4  A    between atoms: C_16  and  C_17
REMARK    5  A    between atoms: C_17  and  C_19
REMARK                            x       y       z     vdW  Elec       q    Type
REMARK                         _______ _______ _______ _____ _____    ______ ____
ROOT
ATOM      1  C   UNL     1      -1.514  12.274  21.815  0.00  0.00    +0.000 C 
ATOM      2  C   UNL     1      -0.657  11.064  21.643  0.00  0.00    +0.000 A 
ATOM      3  C   UNL     1      -0.265  10.364  22.774  0.00  0.00    +0.000 A 
ATOM      4  N   UNL     1       0.518   9.270  22.773  0.00  0.00    +0.000 NA
ATOM      5  C   UNL     1       0.925   8.843  21.579  0.00  0.00    +0.000 A 
ATOM      6  N   UNL     1       1.704   7.689  21.550  0.00  0.00    +0.000 N 
ATOM      7  N   UNL     1       0.632   9.472  20.431  0.00  0.00    +0.000 NA
ATOM      8  C   UNL     1      -0.155  10.577  20.443  0.00  0.00    +0.000 A 
ATOM      9  H   UNL     1       1.843   7.337  22.487  0.00  0.00    +0.000 HD
ENDROOT
BRANCH   6  10
ATOM     10  C   UNL     1       1.820   6.755  20.513  0.00  0.00    +0.000 A 
ATOM     11  C   UNL     1       1.379   5.443  20.719  0.00  0.00    +0.000 A 
ATOM     12  C   UNL     1       1.565   4.465  19.736  0.00  0.00    +0.000 A 
ATOM     13  C   UNL     1       2.180   4.796  18.526  0.00  0.00    +0.000 A 
ATOM     14  C   UNL     1       2.598   6.104  18.295  0.00  0.00    +0.000 A 
ATOM     15  C   UNL     1       2.423   7.072  19.287  0.00  0.00    +0.000 A 
BRANCH  13  16
ATOM     16  C   UNL     1       2.393   3.793  17.524  0.00  0.00    +0.000 C 
ATOM     17  N   UNL     1       2.570   2.978  16.720  0.00  0.00    +0.000 NA
ENDBRANCH  13  16
ENDBRANCH   6  10
BRANCH   8  18
ATOM     18  C   UNL     1      -0.387  11.168  19.057  0.00  0.00    +0.000 C 
ATOM     19 CL   UNL     1      -2.116  11.164  18.602  0.00  0.00    +0.000 Cl
BRANCH  18  20
ATOM     20  C   UNL     1       0.309  12.499  18.804  0.00  0.00    +0.000 A 
ATOM     21  C   UNL     1       1.711  12.517  18.659  0.00  0.00    +0.000 A 
ATOM     22  C   UNL     1       2.405  13.723  18.543  0.00  0.00    +0.000 A 
ATOM     23  C   UNL     1       1.705  14.920  18.579  0.00  0.00    +0.000 A 
ATOM     24  F   UNL     1       2.371  16.081  18.523  0.00  0.00    +0.000 F 
ATOM     25  C   UNL     1       0.320  14.931  18.680  0.00  0.00    +0.000 A 
ATOM     26  C   UNL     1      -0.376  13.725  18.775  0.00  0.00    +0.000 A 
ENDBRANCH  18  20
ENDBRANCH   8  18
TORSDOF 4
ENDMDL
MODEL 6
REMARK VINA RESULT:      -6.9      4.462      7.361
REMARK  Name = 
REMARK  5 active torsions:
REMARK  status: ('A' for Active; 'I' for Inactive)
REMARK    1  A    between atoms: C_1  and  C_2
REMARK    2  A    between atoms: N_6  and  C_7
REMARK    3  A    between atoms: C_10  and  C_11
REMARK    4  A    between atoms: C_16  and  C_17
REMARK    5  A    between atoms: C_17  and  C_19
REMARK                            x       y       z     vdW  Elec       q    Type
REMARK                         _______ _______ _______ _____ _____    ______ ____
ROOT
ATOM      1  C   UNL     1       0.553  13.333  18.706  0.00  0.00    +0.000 C 
ATOM      2  C   UNL     1       1.015  11.926  18.528  0.00  0.00    +0.000 A 
ATOM      3  C   UNL     1       2.210  11.700  17.861  0.00  0.00    +0.000 A 
ATOM      4  N   UNL     1       2.740  10.490  17.612  0.00  0.00    +0.000 NA
ATOM      5  C   UNL     1       2.049   9.444  18.061  0.00  0.00    +0.000 A 
ATOM      6  N   UNL     1       2.598   8.182  17.850  0.00  0.00    +0.000 N 
ATOM      7  N   UNL     1       0.865   9.555  18.684  0.00  0.00    +0.000 NA
ATOM      8  C   UNL     1       0.337  10.781  18.926  0.00  0.00    +0.000 A 
ATOM      9  H   UNL     1       3.482   8.261  17.367  0.00  0.00    +0.000 HD
ENDROOT
BRANCH   6  10
ATOM     10  C   UNL     1       2.411   7.023  18.614  0.00  0.00    +0.000 A 
ATOM     11  C   UNL     1       2.397   5.777  17.978  0.00  0.00    +0.000 A 
ATOM     12  C   UNL     1       2.121   4.611  18.700  0.00  0.00    +0.000 A 
ATOM     13  C   UNL     1       1.872   4.679  20.073  0.00  0.00    +0.000 A 
ATOM     14  C   UNL     1       1.909   5.909  20.725  0.00  0.00    +0.000 A 
ATOM     15  C   UNL     1       2.172   7.071  19.996  0.00  0.00    +0.000 A 
BRANCH  13  16
ATOM     16  C   UNL     1       1.566   3.489  20.813  0.00  0.00    +0.000 C 
ATOM     17  N   UNL     1       1.320   2.523  21.403  0.00  0.00    +0.000 NA
ENDBRANCH  13  16
ENDBRANCH   6  10
BRANCH   8  18
ATOM     18  C   UNL     1      -1.010  10.727  19.638  0.00  0.00    +0.000 C 
ATOM     19 CL   UNL     1      -0.989  11.610  21.192  0.00  0.00    +0.000 Cl
BRANCH  18  20
ATOM     20  C   UNL     1      -2.211  11.060  18.762  0.00  0.00    +0.000 A 
ATOM     21  C   UNL     1      -3.184  11.955  19.252  0.00  0.00    +0.000 A 
ATOM     22  C   UNL     1      -4.358  12.200  18.536  0.00  0.00    +0.000 A 
ATOM     23  C   UNL     1      -4.573  11.547  17.331  0.00  0.00    +0.000 A 
ATOM     24  F   UNL     1      -5.721  11.738  16.669  0.00  0.00    +0.000 F 
ATOM     25  C   UNL     1      -3.614  10.692  16.805  0.00  0.00    +0.000 A 
ATOM     26  C   UNL     1      -2.430  10.463  17.509  0.00  0.00    +0.000 A 
ENDBRANCH  18  20
ENDBRANCH   8  18
TORSDOF 4
ENDMDL
MODEL 7
REMARK VINA RESULT:      -6.9      4.740      7.674
REMARK  Name = 
REMARK  5 active torsions:
REMARK  status: ('A' for Active; 'I' for Inactive)
REMARK    1  A    between atoms: C_1  and  C_2
REMARK    2  A    between atoms: N_6  and  C_7
REMARK    3  A    between atoms: C_10  and  C_11
REMARK    4  A    between atoms: C_16  and  C_17
REMARK    5  A    between atoms: C_17  and  C_19
REMARK                            x       y       z     vdW  Elec       q    Type
REMARK                         _______ _______ _______ _____ _____    ______ ____
ROOT
ATOM      1  C   UNL     1      -0.280  13.872  18.794  0.00  0.00    +0.000 C 
ATOM      2  C   UNL     1       0.386  12.543  18.665  0.00  0.00    +0.000 A 
ATOM      3  C   UNL     1       1.740  12.506  18.369  0.00  0.00    +0.000 A 
ATOM      4  N   UNL     1       2.466  11.386  18.206  0.00  0.00    +0.000 NA
ATOM      5  C   UNL     1       1.810  10.237  18.356  0.00  0.00    +0.000 A 
ATOM      6  N   UNL     1       2.549   9.063  18.231  0.00  0.00    +0.000 N 
ATOM      7  N   UNL     1       0.493  10.166  18.605  0.00  0.00    +0.000 NA
ATOM      8  C   UNL     1      -0.231  11.302  18.763  0.00  0.00    +0.000 A 
ATOM      9  H   UNL     1       3.518   9.278  18.039  0.00  0.00    +0.000 HD
ENDROOT
BRANCH   6  10
ATOM     10  C   UNL     1       2.296   7.819  18.823  0.00  0.00    +0.000 A 
ATOM     11  C   UNL     1       1.795   7.771  20.129  0.00  0.00    +0.000 A 
ATOM     12  C   UNL     1       1.619   6.545  20.780  0.00  0.00    +0.000 A 
ATOM     13  C   UNL     1       1.926   5.351  20.122  0.00  0.00    +0.000 A 
ATOM     14  C   UNL     1       2.399   5.382  18.812  0.00  0.00    +0.000 A 
ATOM     15  C   UNL     1       2.586   6.611  18.174  0.00  0.00    +0.000 A 
BRANCH  13  16
ATOM     16  C   UNL     1       1.768   4.094  20.792  0.00  0.00    +0.000 C 
ATOM     17  N   UNL     1       1.636   3.082  21.341  0.00  0.00    +0.000 NA
ENDBRANCH  13  16
ENDBRANCH   6  10
BRANCH   8  18
ATOM     18  C   UNL     1      -1.708  11.044  19.037  0.00  0.00    +0.000 C 
ATOM     19 CL   UNL     1      -2.417  12.269  20.127  0.00  0.00    +0.000 Cl
BRANCH  18  20
ATOM     20  C   UNL     1      -2.549  10.766  17.798  0.00  0.00    +0.000 A 
ATOM     21  C   UNL     1      -2.087   9.822  16.859  0.00  0.00    +0.000 A 
ATOM     22  C   UNL     1      -2.763   9.620  15.653  0.00  0.00    +0.000 A 
ATOM     23  C   UNL     1      -3.900  10.364  15.374  0.00  0.00    +0.000 A 
ATOM     24  F   UNL     1      -4.520  10.212  14.197  0.00  0.00    +0.000 F 
ATOM     25  C   UNL     1      -4.400  11.271  16.298  0.00  0.00    +0.000 A 
ATOM     26  C   UNL     1      -3.738  11.459  17.513  0.00  0.00    +0.000 A 
ENDBRANCH  18  20
ENDBRANCH   8  18
TORSDOF 4
ENDMDL
MODEL 8
REMARK VINA RESULT:      -6.8      4.176      7.281
REMARK  Name = 
REMARK  5 active torsions:
REMARK  status: ('A' for Active; 'I' for Inactive)
REMARK    1  A    between atoms: C_1  and  C_2
REMARK    2  A    between atoms: N_6  and  C_7
REMARK    3  A    between atoms: C_10  and  C_11
REMARK    4  A    between atoms: C_16  and  C_17
REMARK    5  A    between atoms: C_17  and  C_19
REMARK                            x       y       z     vdW  Elec       q    Type
REMARK                         _______ _______ _______ _____ _____    ______ ____
ROOT
ATOM      1  C   UNL     1      -1.536  12.349  21.499  0.00  0.00    +0.000 C 
ATOM      2  C   UNL     1      -0.674  11.133  21.444  0.00  0.00    +0.000 A 
ATOM      3  C   UNL     1      -0.407  10.455  22.624  0.00  0.00    +0.000 A 
ATOM      4  N   UNL     1       0.364   9.358  22.729  0.00  0.00    +0.000 NA
ATOM      5  C   UNL     1       0.891   8.903  21.594  0.00  0.00    +0.000 A 
ATOM      6  N   UNL     1       1.660   7.745  21.672  0.00  0.00    +0.000 N 
ATOM      7  N   UNL     1       0.724   9.508  20.408  0.00  0.00    +0.000 NA
ATOM      8  C   UNL     1      -0.052  10.617  20.314  0.00  0.00    +0.000 A 
ATOM      9  H   UNL     1       1.698   7.413  22.625  0.00  0.00    +0.000 HD
ENDROOT
BRANCH   6  10
ATOM     10  C   UNL     1       1.878   6.788  20.672  0.00  0.00    +0.000 A 
ATOM     11  C   UNL     1       2.381   7.194  19.431  0.00  0.00    +0.000 A 
ATOM     12  C   UNL     1       2.522   6.277  18.384  0.00  0.00    +0.000 A 
ATOM     13  C   UNL     1       2.178   4.937  18.575  0.00  0.00    +0.000 A 
ATOM     14  C   UNL     1       1.702   4.512  19.813  0.00  0.00    +0.000 A 
ATOM     15  C   UNL     1       1.550   5.436  20.850  0.00  0.00    +0.000 A 
BRANCH  13  16
ATOM     16  C   UNL     1       2.300   3.997  17.498  0.00  0.00    +0.000 C 
ATOM     17  N   UNL     1       2.397   3.245  16.623  0.00  0.00    +0.000 NA
ENDBRANCH  13  16
ENDBRANCH   6  10
BRANCH   8  18
ATOM     18  C   UNL     1      -0.133  11.178  18.899  0.00  0.00    +0.000 C 
ATOM     19 CL   UNL     1      -1.816  11.268  18.304  0.00  0.00    +0.000 Cl
BRANCH  18  20
ATOM     20  C   UNL     1       0.666  12.455  18.670  0.00  0.00    +0.000 A 
ATOM     21  C   UNL     1       2.058  12.359  18.471  0.00  0.00    +0.000 A 
ATOM     22  C   UNL     1       2.849  13.507  18.375  0.00  0.00    +0.000 A 
ATOM     23  C   UNL     1       2.257  14.756  18.484  0.00  0.00    +0.000 A 
ATOM     24  F   UNL     1       3.018  15.857  18.446  0.00  0.00    +0.000 F 
ATOM     25  C   UNL     1       0.883  14.880  18.639  0.00  0.00    +0.000 A 
ATOM     26  C   UNL     1       0.089  13.735  18.714  0.00  0.00    +0.000 A 
ENDBRANCH  18  20
ENDBRANCH   8  18
TORSDOF 4
ENDMDL
MODEL 9
REMARK VINA RESULT:      -6.7      4.568      7.422
REMARK  Name = 
REMARK  5 active torsions:
REMARK  status: ('A' for Active; 'I' for Inactive)
REMARK    1  A    between atoms: C_1  and  C_2
REMARK    2  A    between atoms: N_6  and  C_7
REMARK    3  A    between atoms: C_10  and  C_11
REMARK    4  A    between atoms: C_16  and  C_17
REMARK    5  A    between atoms: C_17  and  C_19
REMARK                            x       y       z     vdW  Elec       q    Type
REMARK                         _______ _______ _______ _____ _____    ______ ____
ROOT
ATOM      1  C   UNL     1       0.478  13.511  18.779  0.00  0.00    +0.000 C 
ATOM      2  C   UNL     1       0.932  12.100  18.605  0.00  0.00    +0.000 A 
ATOM      3  C   UNL     1       2.133  11.866  17.951  0.00  0.00    +0.000 A 
ATOM      4  N   UNL     1       2.656  10.651  17.707  0.00  0.00    +0.000 NA
ATOM      5  C   UNL     1       1.952   9.611  18.148  0.00  0.00    +0.000 A 
ATOM      6  N   UNL     1       2.494   8.345  17.942  0.00  0.00    +0.000 N 
ATOM      7  N   UNL     1       0.762   9.731  18.757  0.00  0.00    +0.000 NA
ATOM      8  C   UNL     1       0.240  10.960  18.994  0.00  0.00    +0.000 A 
ATOM      9  H   UNL     1       3.384   8.418  17.469  0.00  0.00    +0.000 HD
ENDROOT
BRANCH   6  10
ATOM     10  C   UNL     1       2.289   7.187  18.703  0.00  0.00    +0.000 A 
ATOM     11  C   UNL     1       2.020   7.305  20.072  0.00  0.00    +0.000 A 
ATOM     12  C   UNL     1       1.902   6.165  20.875  0.00  0.00    +0.000 A 
ATOM     13  C   UNL     1       2.034   4.894  20.313  0.00  0.00    +0.000 A 
ATOM     14  C   UNL     1       2.275   4.760  18.948  0.00  0.00    +0.000 A 
ATOM     15  C   UNL     1       2.406   5.902  18.154  0.00  0.00    +0.000 A 
BRANCH  13  16
ATOM     16  C   UNL     1       1.937   3.724  21.137  0.00  0.00    +0.000 C 
ATOM     17  N   UNL     1       1.864   2.783  21.807  0.00  0.00    +0.000 NA
ENDBRANCH  13  16
ENDBRANCH   6  10
BRANCH   8  18
ATOM     18  C   UNL     1      -1.115  10.917  19.691  0.00  0.00    +0.000 C 
ATOM     19 CL   UNL     1      -1.106  11.804  21.242  0.00  0.00    +0.000 Cl
BRANCH  18  20
ATOM     20  C   UNL     1      -2.303  11.253  18.800  0.00  0.00    +0.000 A 
ATOM     21  C   UNL     1      -3.365  12.009  19.338  0.00  0.00    +0.000 A 
ATOM     22  C   UNL     1      -4.527  12.242  18.599  0.00  0.00    +0.000 A 
ATOM     23  C   UNL     1      -4.640  11.715  17.320  0.00  0.00    +0.000 A 
ATOM     24  F   UNL     1      -5.773  11.890  16.629  0.00  0.00    +0.000 F 
ATOM     25  C   UNL     1      -3.594  11.002  16.750  0.00  0.00    +0.000 A 
ATOM     26  C   UNL     1      -2.424  10.787  17.481  0.00  0.00    +0.000 A 
ENDBRANCH  18  20
ENDBRANCH   8  18
TORSDOF 4
ENDMDL
