MODEL 1
REMARK VINA RESULT:      -7.4      0.000      0.000
REMARK  Name = 
REMARK  9 active torsions:
REMARK  status: ('A' for Active; 'I' for Inactive)
REMARK    1  A    between atoms: C_1  and  C_2
REMARK    2  A    between atoms: C_2  and  C_3
REMARK    3  A    between atoms: C_2  and  C_4
REMARK    4  A    between atoms: C_2  and  C_5
REMARK    5  A    between atoms: C_5  and  C_6
REMARK    6  A    between atoms: C_6  and  N_7
REMARK    7  A    between atoms: C_10  and  C_11
REMARK    8  A    between atoms: C_11  and  N_12
REMARK    9  A    between atoms: C_13  and  C_15
REMARK                            x       y       z     vdW  Elec       q    Type
REMARK                         _______ _______ _______ _____ _____    ______ ____
ROOT
ATOM      1  N   UNL     1       1.518   5.253  20.344  0.00  0.00    +0.000 NA
ATOM      2  C   UNL     1       2.055   5.316  18.976  0.00  0.00    +0.000 C 
ATOM      3  C   UNL     1       1.721   4.055  18.180  0.00  0.00    +0.000 C 
ATOM      4  C   UNL     1       2.248   2.792  18.867  0.00  0.00    +0.000 C 
ATOM      5  C   UNL     1       1.681   2.759  20.292  0.00  0.00    +0.000 C 
ATOM      6  C   UNL     1       1.979   4.050  21.062  0.00  0.00    +0.000 C 
ENDROOT
BRANCH   1   7
ATOM      7  C   UNL     1       1.899   6.454  21.122  0.00  0.00    +0.000 C 
BRANCH   7   8
ATOM      8  C   UNL     1       1.652   7.778  20.376  0.00  0.00    +0.000 C 
BRANCH   8  10
ATOM      9  C   UNL     1       1.590   9.243  22.453  0.00  0.00    +0.000 C 
ATOM     10  C   UNL     1       0.846   8.844  21.167  0.00  0.00    +0.000 C 
ATOM     11  C   UNL     1      -0.559   8.333  21.520  0.00  0.00    +0.000 C 
ATOM     12  C   UNL     1       0.702  10.099  20.284  0.00  0.00    +0.000 C 
ENDBRANCH   8  10
ENDBRANCH   7   8
ENDBRANCH   1   7
BRANCH   4  13
ATOM     13  C   UNL     1       3.783   2.723  18.886  0.00  0.00    +0.000 C 
BRANCH  13  14
ATOM     14  N   UNL     1       4.379   3.137  17.632  0.00  0.00    +0.000 N 
ATOM     15  C   UNL     1       5.521   3.913  17.626  0.00  0.00    +0.000 C 
ATOM     16  O   UNL     1       6.069   4.320  18.645  0.00  0.00    +0.000 OA
ATOM     17  H   UNL     1       4.137   2.613  16.798  0.00  0.00    +0.000 HD
BRANCH  15  18
ATOM     18  C   UNL     1       6.112   4.231  16.313  0.00  0.00    +0.000 A 
ATOM     19  C   UNL     1       7.051   5.251  16.238  0.00  0.00    +0.000 A 
ATOM     20  N   UNL     1       7.644   5.648  15.084  0.00  0.00    +0.000 NA
ATOM     21  C   UNL     1       7.256   5.009  13.955  0.00  0.00    +0.000 A 
ATOM     22  C   UNL     1       6.313   3.993  13.934  0.00  0.00    +0.000 A 
ATOM     23 BR   UNL     1       5.813   3.180  12.306  0.00  0.00    +0.000 Br
ATOM     24  C   UNL     1       5.730   3.589  15.131  0.00  0.00    +0.000 A 
ENDBRANCH  15  18
ENDBRANCH  13  14
ENDBRANCH   4  13
TORSDOF 6
ENDMDL
MODEL 2
REMARK VINA RESULT:      -7.4      1.222      1.650
REMARK  Name = 
REMARK  9 active torsions:
REMARK  status: ('A' for Active; 'I' for Inactive)
REMARK    1  A    between atoms: C_1  and  C_2
REMARK    2  A    between atoms: C_2  and  C_3
REMARK    3  A    between atoms: C_2  and  C_4
REMARK    4  A    between atoms: C_2  and  C_5
REMARK    5  A    between atoms: C_5  and  C_6
REMARK    6  A    between atoms: C_6  and  N_7
REMARK    7  A    between atoms: C_10  and  C_11
REMARK    8  A    between atoms: C_11  and  N_12
REMARK    9  A    between atoms: C_13  and  C_15
REMARK                            x       y       z     vdW  Elec       q    Type
REMARK                         _______ _______ _______ _____ _____    ______ ____
ROOT
ATOM      1  N   UNL     1       1.996   6.078  18.981  0.00  0.00    +0.000 NA
ATOM      2  C   UNL     1       2.281   5.236  17.809  0.00  0.00    +0.000 C 
ATOM      3  C   UNL     1       1.707   3.830  17.971  0.00  0.00    +0.000 C 
ATOM      4  C   UNL     1       2.244   3.137  19.227  0.00  0.00    +0.000 C 
ATOM      5  C   UNL     1       1.942   4.041  20.430  0.00  0.00    +0.000 C 
ATOM      6  C   UNL     1       2.479   5.463  20.232  0.00  0.00    +0.000 C 
ENDROOT
BRANCH   1   7
ATOM      7  C   UNL     1       2.607   7.419  18.837  0.00  0.00    +0.000 C 
BRANCH   7   8
ATOM      8  C   UNL     1       1.841   8.348  17.876  0.00  0.00    +0.000 C 
BRANCH   8  10
ATOM      9  C   UNL     1       1.942  10.851  18.312  0.00  0.00    +0.000 C 
ATOM     10  C   UNL     1       1.139   9.560  18.547  0.00  0.00    +0.000 C 
ATOM     11  C   UNL     1       0.955   9.334  20.056  0.00  0.00    +0.000 C 
ATOM     12  C   UNL     1      -0.251   9.732  17.906  0.00  0.00    +0.000 C 
ENDBRANCH   8  10
ENDBRANCH   7   8
ENDBRANCH   1   7
BRANCH   4  13
ATOM     13  C   UNL     1       3.746   2.827  19.138  0.00  0.00    +0.000 C 
BRANCH  13  14
ATOM     14  N   UNL     1       4.331   3.239  17.878  0.00  0.00    +0.000 N 
ATOM     15  C   UNL     1       5.484   3.999  17.859  0.00  0.00    +0.000 C 
ATOM     16  O   UNL     1       6.052   4.393  18.872  0.00  0.00    +0.000 OA
ATOM     17  H   UNL     1       4.070   2.722  17.045  0.00  0.00    +0.000 HD
BRANCH  15  18
ATOM     18  C   UNL     1       6.060   4.314  16.539  0.00  0.00    +0.000 A 
ATOM     19  C   UNL     1       7.025   5.310  16.459  0.00  0.00    +0.000 A 
ATOM     20  N   UNL     1       7.609   5.703  15.298  0.00  0.00    +0.000 NA
ATOM     21  C   UNL     1       7.186   5.086  14.170  0.00  0.00    +0.000 A 
ATOM     22  C   UNL     1       6.216   4.095  14.155  0.00  0.00    +0.000 A 
ATOM     23 BR   UNL     1       5.668   3.312  12.528  0.00  0.00    +0.000 Br
ATOM     24  C   UNL     1       5.642   3.694  15.358  0.00  0.00    +0.000 A 
ENDBRANCH  15  18
ENDBRANCH  13  14
ENDBRANCH   4  13
TORSDOF 6
ENDMDL
MODEL 3
REMARK VINA RESULT:      -7.0      0.863      1.330
REMARK  Name = 
REMARK  9 active torsions:
REMARK  status: ('A' for Active; 'I' for Inactive)
REMARK    1  A    between atoms: C_1  and  C_2
REMARK    2  A    between atoms: C_2  and  C_3
REMARK    3  A    between atoms: C_2  and  C_4
REMARK    4  A    between atoms: C_2  and  C_5
REMARK    5  A    between atoms: C_5  and  C_6
REMARK    6  A    between atoms: C_6  and  N_7
REMARK    7  A    between atoms: C_10  and  C_11
REMARK    8  A    between atoms: C_11  and  N_12
REMARK    9  A    between atoms: C_13  and  C_15
REMARK                            x       y       z     vdW  Elec       q    Type
REMARK                         _______ _______ _______ _____ _____    ______ ____
ROOT
ATOM      1  N   UNL     1       1.638   6.129  19.891  0.00  0.00    +0.000 NA
ATOM      2  C   UNL     1       2.213   6.006  18.543  0.00  0.00    +0.000 C 
ATOM      3  C   UNL     1       1.874   4.659  17.906  0.00  0.00    +0.000 C 
ATOM      4  C   UNL     1       2.355   3.486  18.764  0.00  0.00    +0.000 C 
ATOM      5  C   UNL     1       1.748   3.647  20.165  0.00  0.00    +0.000 C 
ATOM      6  C   UNL     1       2.053   5.021  20.771  0.00  0.00    +0.000 C 
ENDROOT
BRANCH   1   7
ATOM      7  C   UNL     1       2.023   7.413  20.520  0.00  0.00    +0.000 C 
BRANCH   7   8
ATOM      8  C   UNL     1       1.567   8.652  19.726  0.00  0.00    +0.000 C 
BRANCH   8  10
ATOM      9  C   UNL     1      -0.622   9.893  19.367  0.00  0.00    +0.000 C 
ATOM     10  C   UNL     1       0.448   9.494  20.396  0.00  0.00    +0.000 C 
ATOM     11  C   UNL     1       1.021  10.755  21.062  0.00  0.00    +0.000 C 
ATOM     12  C   UNL     1      -0.224   8.631  21.482  0.00  0.00    +0.000 C 
ENDBRANCH   8  10
ENDBRANCH   7   8
ENDBRANCH   1   7
BRANCH   4  13
ATOM     13  C   UNL     1       3.886   3.392  18.838  0.00  0.00    +0.000 C 
BRANCH  13  14
ATOM     14  N   UNL     1       4.520   3.514  17.540  0.00  0.00    +0.000 N 
ATOM     15  C   UNL     1       5.332   4.595  17.261  0.00  0.00    +0.000 C 
ATOM     16  O   UNL     1       5.539   5.510  18.050  0.00  0.00    +0.000 OA
ATOM     17  H   UNL     1       4.605   2.676  16.976  0.00  0.00    +0.000 HD
BRANCH  15  18
ATOM     18  C   UNL     1       6.001   4.610  15.947  0.00  0.00    +0.000 A 
ATOM     19  C   UNL     1       7.117   5.420  15.781  0.00  0.00    +0.000 A 
ATOM     20  N   UNL     1       7.800   5.535  14.614  0.00  0.00    +0.000 NA
ATOM     21  C   UNL     1       7.325   4.826  13.564  0.00  0.00    +0.000 A 
ATOM     22  C   UNL     1       6.208   4.007  13.633  0.00  0.00    +0.000 A 
ATOM     23 BR   UNL     1       5.600   3.079  12.107  0.00  0.00    +0.000 Br
ATOM     24  C   UNL     1       5.532   3.890  14.845  0.00  0.00    +0.000 A 
ENDBRANCH  15  18
ENDBRANCH  13  14
ENDBRANCH   4  13
TORSDOF 6
ENDMDL
MODEL 4
REMARK VINA RESULT:      -7.0      5.221      7.141
REMARK  Name = 
REMARK  9 active torsions:
REMARK  status: ('A' for Active; 'I' for Inactive)
REMARK    1  A    between atoms: C_1  and  C_2
REMARK    2  A    between atoms: C_2  and  C_3
REMARK    3  A    between atoms: C_2  and  C_4
REMARK    4  A    between atoms: C_2  and  C_5
REMARK    5  A    between atoms: C_5  and  C_6
REMARK    6  A    between atoms: C_6  and  N_7
REMARK    7  A    between atoms: C_10  and  C_11
REMARK    8  A    between atoms: C_11  and  N_12
REMARK    9  A    between atoms: C_13  and  C_15
REMARK                            x       y       z     vdW  Elec       q    Type
REMARK                         _______ _______ _______ _____ _____    ______ ____
ROOT
ATOM      1  N   UNL     1       5.017   4.454  18.140  0.00  0.00    +0.000 NA
ATOM      2  C   UNL     1       5.819   4.653  16.923  0.00  0.00    +0.000 C 
ATOM      3  C   UNL     1       7.315   4.664  17.229  0.00  0.00    +0.000 C 
ATOM      4  C   UNL     1       7.680   5.744  18.251  0.00  0.00    +0.000 C 
ATOM      5  C   UNL     1       6.822   5.518  19.503  0.00  0.00    +0.000 C 
ATOM      6  C   UNL     1       5.326   5.459  19.175  0.00  0.00    +0.000 C 
ENDROOT
BRANCH   1   7
ATOM      7  C   UNL     1       3.568   4.505  17.839  0.00  0.00    +0.000 C 
BRANCH   7   8
ATOM      8  C   UNL     1       2.676   4.527  19.095  0.00  0.00    +0.000 C 
BRANCH   8  10
ATOM      9  C   UNL     1       0.886   2.780  18.638  0.00  0.00    +0.000 C 
ATOM     10  C   UNL     1       2.092   3.152  19.517  0.00  0.00    +0.000 C 
ATOM     11  C   UNL     1       1.673   3.154  20.995  0.00  0.00    +0.000 C 
ATOM     12  C   UNL     1       3.182   2.080  19.320  0.00  0.00    +0.000 C 
ENDBRANCH   8  10
ENDBRANCH   7   8
ENDBRANCH   1   7
BRANCH   4  13
ATOM     13  C   UNL     1       7.488   7.167  17.705  0.00  0.00    +0.000 C 
BRANCH  13  14
ATOM     14  N   UNL     1       8.427   8.116  18.268  0.00  0.00    +0.000 N 
ATOM     15  C   UNL     1       8.274   9.469  18.039  0.00  0.00    +0.000 C 
ATOM     16  O   UNL     1       7.384   9.941  17.340  0.00  0.00    +0.000 OA
ATOM     17  H   UNL     1       8.991   7.811  19.054  0.00  0.00    +0.000 HD
BRANCH  15  18
ATOM     18  C   UNL     1       9.224  10.376  18.708  0.00  0.00    +0.000 A 
ATOM     19  C   UNL     1       9.186  10.473  20.093  0.00  0.00    +0.000 A 
ATOM     20  N   UNL     1       9.993  11.290  20.815  0.00  0.00    +0.000 NA
ATOM     21  C   UNL     1      10.856  12.060  20.113  0.00  0.00    +0.000 A 
ATOM     22  C   UNL     1      10.950  12.043  18.730  0.00  0.00    +0.000 A 
ATOM     23 BR   UNL     1      12.164  13.177  17.835  0.00  0.00    +0.000 Br
ATOM     24  C   UNL     1      10.125  11.185  18.009  0.00  0.00    +0.000 A 
ENDBRANCH  15  18
ENDBRANCH  13  14
ENDBRANCH   4  13
TORSDOF 6
ENDMDL
MODEL 5
REMARK VINA RESULT:      -6.9      3.796      8.222
REMARK  Name = 
REMARK  9 active torsions:
REMARK  status: ('A' for Active; 'I' for Inactive)
REMARK    1  A    between atoms: C_1  and  C_2
REMARK    2  A    between atoms: C_2  and  C_3
REMARK    3  A    between atoms: C_2  and  C_4
REMARK    4  A    between atoms: C_2  and  C_5
REMARK    5  A    between atoms: C_5  and  C_6
REMARK    6  A    between atoms: C_6  and  N_7
REMARK    7  A    between atoms: C_10  and  C_11
REMARK    8  A    between atoms: C_11  and  N_12
REMARK    9  A    between atoms: C_13  and  C_15
REMARK                            x       y       z     vdW  Elec       q    Type
REMARK                         _______ _______ _______ _____ _____    ______ ____
ROOT
ATOM      1  N   UNL     1       3.255   3.219  18.306  0.00  0.00    +0.000 NA
ATOM      2  C   UNL     1       3.606   3.321  19.731  0.00  0.00    +0.000 C 
ATOM      3  C   UNL     1       2.384   3.635  20.592  0.00  0.00    +0.000 C 
ATOM      4  C   UNL     1       1.694   4.929  20.153  0.00  0.00    +0.000 C 
ATOM      5  C   UNL     1       1.350   4.798  18.663  0.00  0.00    +0.000 C 
ATOM      6  C   UNL     1       2.575   4.434  17.817  0.00  0.00    +0.000 C 
ENDROOT
BRANCH   1   7
ATOM      7  C   UNL     1       4.456   2.974  17.477  0.00  0.00    +0.000 C 
BRANCH   7   8
ATOM      8  C   UNL     1       4.549   3.887  16.239  0.00  0.00    +0.000 C 
BRANCH   8  10
ATOM      9  C   UNL     1       6.698   4.398  14.980  0.00  0.00    +0.000 C 
ATOM     10  C   UNL     1       5.812   4.789  16.174  0.00  0.00    +0.000 C 
ATOM     11  C   UNL     1       6.627   4.701  17.474  0.00  0.00    +0.000 C 
ATOM     12  C   UNL     1       5.356   6.248  15.981  0.00  0.00    +0.000 C 
ENDBRANCH   8  10
ENDBRANCH   7   8
ENDBRANCH   1   7
BRANCH   4  13
ATOM     13  C   UNL     1       2.554   6.177  20.408  0.00  0.00    +0.000 C 
BRANCH  13  14
ATOM     14  N   UNL     1       1.835   7.220  21.112  0.00  0.00    +0.000 N 
ATOM     15  C   UNL     1       1.432   8.359  20.446  0.00  0.00    +0.000 C 
ATOM     16  O   UNL     1       1.676   8.576  19.264  0.00  0.00    +0.000 OA
ATOM     17  H   UNL     1       1.379   6.972  21.984  0.00  0.00    +0.000 HD
BRANCH  15  18
ATOM     18  C   UNL     1       0.638   9.340  21.210  0.00  0.00    +0.000 A 
ATOM     19  C   UNL     1       0.648   9.264  22.596  0.00  0.00    +0.000 A 
ATOM     20  N   UNL     1      -0.060  10.094  23.403  0.00  0.00    +0.000 NA
ATOM     21  C   UNL     1      -0.829  11.023  22.787  0.00  0.00    +0.000 A 
ATOM     22  C   UNL     1      -0.913  11.160  21.410  0.00  0.00    +0.000 A 
ATOM     23 BR   UNL     1      -2.036  12.466  20.641  0.00  0.00    +0.000 Br
ATOM     24  C   UNL     1      -0.165  10.309  20.601  0.00  0.00    +0.000 A 
ENDBRANCH  15  18
ENDBRANCH  13  14
ENDBRANCH   4  13
TORSDOF 6
ENDMDL
MODEL 6
REMARK VINA RESULT:      -6.9      4.651      6.524
REMARK  Name = 
REMARK  9 active torsions:
REMARK  status: ('A' for Active; 'I' for Inactive)
REMARK    1  A    between atoms: C_1  and  C_2
REMARK    2  A    between atoms: C_2  and  C_3
REMARK    3  A    between atoms: C_2  and  C_4
REMARK    4  A    between atoms: C_2  and  C_5
REMARK    5  A    between atoms: C_5  and  C_6
REMARK    6  A    between atoms: C_6  and  N_7
REMARK    7  A    between atoms: C_10  and  C_11
REMARK    8  A    between atoms: C_11  and  N_12
REMARK    9  A    between atoms: C_13  and  C_15
REMARK                            x       y       z     vdW  Elec       q    Type
REMARK                         _______ _______ _______ _____ _____    ______ ____
ROOT
ATOM      1  N   UNL     1       4.302   4.338  18.261  0.00  0.00    +0.000 NA
ATOM      2  C   UNL     1       4.590   5.692  18.758  0.00  0.00    +0.000 C 
ATOM      3  C   UNL     1       4.446   6.740  17.656  0.00  0.00    +0.000 C 
ATOM      4  C   UNL     1       5.357   6.441  16.463  0.00  0.00    +0.000 C 
ATOM      5  C   UNL     1       5.042   5.021  15.973  0.00  0.00    +0.000 C 
ATOM      6  C   UNL     1       5.141   3.987  17.099  0.00  0.00    +0.000 C 
ENDROOT
BRANCH   1   7
ATOM      7  C   UNL     1       4.503   3.325  19.322  0.00  0.00    +0.000 C 
BRANCH   7   8
ATOM      8  C   UNL     1       3.502   3.445  20.488  0.00  0.00    +0.000 C 
BRANCH   8  10
ATOM      9  C   UNL     1       1.961   1.925  19.154  0.00  0.00    +0.000 C 
ATOM     10  C   UNL     1       2.028   3.110  20.132  0.00  0.00    +0.000 C 
ATOM     11  C   UNL     1       1.311   4.324  19.523  0.00  0.00    +0.000 C 
ATOM     12  C   UNL     1       1.296   2.708  21.427  0.00  0.00    +0.000 C 
ENDBRANCH   8  10
ENDBRANCH   7   8
ENDBRANCH   1   7
BRANCH   4  13
ATOM     13  C   UNL     1       6.849   6.585  16.804  0.00  0.00    +0.000 C 
BRANCH  13  14
ATOM     14  N   UNL     1       7.234   7.956  17.071  0.00  0.00    +0.000 N 
ATOM     15  C   UNL     1       8.097   8.248  18.108  0.00  0.00    +0.000 C 
ATOM     16  O   UNL     1       8.554   7.401  18.868  0.00  0.00    +0.000 OA
ATOM     17  H   UNL     1       7.113   8.634  16.326  0.00  0.00    +0.000 HD
BRANCH  15  18
ATOM     18  C   UNL     1       8.502   9.656  18.270  0.00  0.00    +0.000 A 
ATOM     19  C   UNL     1       7.886  10.618  17.480  0.00  0.00    +0.000 A 
ATOM     20  N   UNL     1       8.192  11.939  17.523  0.00  0.00    +0.000 NA
ATOM     21  C   UNL     1       9.176  12.304  18.378  0.00  0.00    +0.000 A 
ATOM     22  C   UNL     1       9.857  11.410  19.190  0.00  0.00    +0.000 A 
ATOM     23 BR   UNL     1      11.237  12.007  20.329  0.00  0.00    +0.000 Br
ATOM     24  C   UNL     1       9.516  10.061  19.143  0.00  0.00    +0.000 A 
ENDBRANCH  15  18
ENDBRANCH  13  14
ENDBRANCH   4  13
TORSDOF 6
ENDMDL
MODEL 7
REMARK VINA RESULT:      -6.8      3.272      6.578
REMARK  Name = 
REMARK  9 active torsions:
REMARK  status: ('A' for Active; 'I' for Inactive)
REMARK    1  A    between atoms: C_1  and  C_2
REMARK    2  A    between atoms: C_2  and  C_3
REMARK    3  A    between atoms: C_2  and  C_4
REMARK    4  A    between atoms: C_2  and  C_5
REMARK    5  A    between atoms: C_5  and  C_6
REMARK    6  A    between atoms: C_6  and  N_7
REMARK    7  A    between atoms: C_10  and  C_11
REMARK    8  A    between atoms: C_11  and  N_12
REMARK    9  A    between atoms: C_13  and  C_15
REMARK                            x       y       z     vdW  Elec       q    Type
REMARK                         _______ _______ _______ _____ _____    ______ ____
ROOT
ATOM      1  N   UNL     1       3.287   2.801  17.600  0.00  0.00    +0.000 NA
ATOM      2  C   UNL     1       3.563   2.236  18.930  0.00  0.00    +0.000 C 
ATOM      3  C   UNL     1       2.275   1.868  19.665  0.00  0.00    +0.000 C 
ATOM      4  C   UNL     1       1.343   3.073  19.819  0.00  0.00    +0.000 C 
ATOM      5  C   UNL     1       1.081   3.648  18.420  0.00  0.00    +0.000 C 
ATOM      6  C   UNL     1       2.382   3.964  17.673  0.00  0.00    +0.000 C 
ENDROOT
BRANCH   1   7
ATOM      7  C   UNL     1       4.538   3.207  16.922  0.00  0.00    +0.000 C 
BRANCH   7   8
ATOM      8  C   UNL     1       4.605   4.712  16.599  0.00  0.00    +0.000 C 
BRANCH   8  10
ATOM      9  C   UNL     1       5.864   6.878  17.033  0.00  0.00    +0.000 C 
ATOM     10  C   UNL     1       6.001   5.367  16.781  0.00  0.00    +0.000 C 
ATOM     11  C   UNL     1       6.895   5.127  15.554  0.00  0.00    +0.000 C 
ATOM     12  C   UNL     1       6.679   4.732  18.010  0.00  0.00    +0.000 C 
ENDBRANCH   8  10
ENDBRANCH   7   8
ENDBRANCH   1   7
BRANCH   4  13
ATOM     13  C   UNL     1       1.913   4.150  20.755  0.00  0.00    +0.000 C 
BRANCH  13  14
ATOM     14  N   UNL     1       1.557   5.494  20.347  0.00  0.00    +0.000 N 
ATOM     15  C   UNL     1       2.521   6.351  19.855  0.00  0.00    +0.000 C 
ATOM     16  O   UNL     1       3.708   6.056  19.765  0.00  0.00    +0.000 OA
ATOM     17  H   UNL     1       0.582   5.683  20.143  0.00  0.00    +0.000 HD
BRANCH  15  18
ATOM     18  C   UNL     1       2.070   7.675  19.389  0.00  0.00    +0.000 A 
ATOM     19  C   UNL     1       2.421   8.082  18.109  0.00  0.00    +0.000 A 
ATOM     20  N   UNL     1       2.084   9.286  17.580  0.00  0.00    +0.000 NA
ATOM     21  C   UNL     1       1.387  10.124  18.383  0.00  0.00    +0.000 A 
ATOM     22  C   UNL     1       1.009   9.808  19.679  0.00  0.00    +0.000 A 
ATOM     23 BR   UNL     1       0.065  11.054  20.735  0.00  0.00    +0.000 Br
ATOM     24  C   UNL     1       1.350   8.562  20.196  0.00  0.00    +0.000 A 
ENDBRANCH  15  18
ENDBRANCH  13  14
ENDBRANCH   4  13
TORSDOF 6
ENDMDL
MODEL 8
REMARK VINA RESULT:      -6.8      5.310      7.176
REMARK  Name = 
REMARK  9 active torsions:
REMARK  status: ('A' for Active; 'I' for Inactive)
REMARK    1  A    between atoms: C_1  and  C_2
REMARK    2  A    between atoms: C_2  and  C_3
REMARK    3  A    between atoms: C_2  and  C_4
REMARK    4  A    between atoms: C_2  and  C_5
REMARK    5  A    between atoms: C_5  and  C_6
REMARK    6  A    between atoms: C_6  and  N_7
REMARK    7  A    between atoms: C_10  and  C_11
REMARK    8  A    between atoms: C_11  and  N_12
REMARK    9  A    between atoms: C_13  and  C_15
REMARK                            x       y       z     vdW  Elec       q    Type
REMARK                         _______ _______ _______ _____ _____    ______ ____
ROOT
ATOM      1  N   UNL     1       5.532   4.522  18.824  0.00  0.00    +0.000 NA
ATOM      2  C   UNL     1       5.394   5.038  17.454  0.00  0.00    +0.000 C 
ATOM      3  C   UNL     1       6.747   5.141  16.751  0.00  0.00    +0.000 C 
ATOM      4  C   UNL     1       7.725   6.029  17.524  0.00  0.00    +0.000 C 
ATOM      5  C   UNL     1       7.840   5.474  18.950  0.00  0.00    +0.000 C 
ATOM      6  C   UNL     1       6.472   5.328  19.625  0.00  0.00    +0.000 C 
ENDROOT
BRANCH   1   7
ATOM      7  C   UNL     1       4.222   4.483  19.514  0.00  0.00    +0.000 C 
BRANCH   7   8
ATOM      8  C   UNL     1       3.336   3.296  19.091  0.00  0.00    +0.000 C 
BRANCH   8  10
ATOM      9  C   UNL     1       1.585   4.457  17.659  0.00  0.00    +0.000 C 
ATOM     10  C   UNL     1       1.827   3.622  18.928  0.00  0.00    +0.000 C 
ATOM     11  C   UNL     1       1.282   4.373  20.153  0.00  0.00    +0.000 C 
ATOM     12  C   UNL     1       1.056   2.295  18.786  0.00  0.00    +0.000 C 
ENDBRANCH   8  10
ENDBRANCH   7   8
ENDBRANCH   1   7
BRANCH   4  13
ATOM     13  C   UNL     1       7.298   7.505  17.544  0.00  0.00    +0.000 C 
BRANCH  13  14
ATOM     14  N   UNL     1       8.296   8.370  18.141  0.00  0.00    +0.000 N 
ATOM     15  C   UNL     1       8.240   9.736  17.948  0.00  0.00    +0.000 C 
ATOM     16  O   UNL     1       7.392  10.288  17.254  0.00  0.00    +0.000 OA
ATOM     17  H   UNL     1       8.830   8.006  18.923  0.00  0.00    +0.000 HD
BRANCH  15  18
ATOM     18  C   UNL     1       9.245  10.556  18.649  0.00  0.00    +0.000 A 
ATOM     19  C   UNL     1       9.222  10.590  20.036  0.00  0.00    +0.000 A 
ATOM     20  N   UNL     1      10.079  11.325  20.788  0.00  0.00    +0.000 NA
ATOM     21  C   UNL     1      10.980  12.078  20.114  0.00  0.00    +0.000 A 
ATOM     22  C   UNL     1      11.064  12.120  18.731  0.00  0.00    +0.000 A 
ATOM     23 BR   UNL     1      12.333  13.223  17.878  0.00  0.00    +0.000 Br
ATOM     24  C   UNL     1      10.186  11.344  17.979  0.00  0.00    +0.000 A 
ENDBRANCH  15  18
ENDBRANCH  13  14
ENDBRANCH   4  13
TORSDOF 6
ENDMDL
MODEL 9
REMARK VINA RESULT:      -6.7      3.224      7.513
REMARK  Name = 
REMARK  9 active torsions:
REMARK  status: ('A' for Active; 'I' for Inactive)
REMARK    1  A    between atoms: C_1  and  C_2
REMARK    2  A    between atoms: C_2  and  C_3
REMARK    3  A    between atoms: C_2  and  C_4
REMARK    4  A    between atoms: C_2  and  C_5
REMARK    5  A    between atoms: C_5  and  C_6
REMARK    6  A    between atoms: C_6  and  N_7
REMARK    7  A    between atoms: C_10  and  C_11
REMARK    8  A    between atoms: C_11  and  N_12
REMARK    9  A    between atoms: C_13  and  C_15
REMARK                            x       y       z     vdW  Elec       q    Type
REMARK                         _______ _______ _______ _____ _____    ______ ____
ROOT
ATOM      1  N   UNL     1       3.350   3.348  17.555  0.00  0.00    +0.000 NA
ATOM      2  C   UNL     1       3.527   2.729  18.877  0.00  0.00    +0.000 C 
ATOM      3  C   UNL     1       2.209   2.655  19.646  0.00  0.00    +0.000 C 
ATOM      4  C   UNL     1       1.573   4.036  19.822  0.00  0.00    +0.000 C 
ATOM      5  C   UNL     1       1.411   4.661  18.430  0.00  0.00    +0.000 C 
ATOM      6  C   UNL     1       2.730   4.683  17.650  0.00  0.00    +0.000 C 
ENDROOT
BRANCH   1   7
ATOM      7  C   UNL     1       4.644   3.468  16.844  0.00  0.00    +0.000 C 
BRANCH   7   8
ATOM      8  C   UNL     1       5.593   4.514  17.461  0.00  0.00    +0.000 C 
BRANCH   8  10
ATOM      9  C   UNL     1       7.277   6.393  17.150  0.00  0.00    +0.000 C 
ATOM     10  C   UNL     1       6.241   5.497  16.450  0.00  0.00    +0.000 C 
ATOM     11  C   UNL     1       5.180   6.373  15.765  0.00  0.00    +0.000 C 
ATOM     12  C   UNL     1       6.967   4.674  15.368  0.00  0.00    +0.000 C 
ENDBRANCH   8  10
ENDBRANCH   7   8
ENDBRANCH   1   7
BRANCH   4  13
ATOM     13  C   UNL     1       2.392   4.955  20.742  0.00  0.00    +0.000 C 
BRANCH  13  14
ATOM     14  N   UNL     1       1.691   6.176  21.085  0.00  0.00    +0.000 N 
ATOM     15  C   UNL     1       1.988   7.356  20.434  0.00  0.00    +0.000 C 
ATOM     16  O   UNL     1       2.860   7.457  19.577  0.00  0.00    +0.000 OA
ATOM     17  H   UNL     1       0.802   6.090  21.566  0.00  0.00    +0.000 HD
BRANCH  15  18
ATOM     18  C   UNL     1       1.180   8.539  20.783  0.00  0.00    +0.000 A 
ATOM     19  C   UNL     1       1.133   8.940  22.112  0.00  0.00    +0.000 A 
ATOM     20  N   UNL     1       0.406   9.997  22.556  0.00  0.00    +0.000 NA
ATOM     21  C   UNL     1      -0.324  10.660  21.629  0.00  0.00    +0.000 A 
ATOM     22  C   UNL     1      -0.351  10.318  20.285  0.00  0.00    +0.000 A 
ATOM     23 BR   UNL     1      -1.423  11.283  19.070  0.00  0.00    +0.000 Br
ATOM     24  C   UNL     1       0.416   9.242  19.847  0.00  0.00    +0.000 A 
ENDBRANCH  15  18
ENDBRANCH  13  14
ENDBRANCH   4  13
TORSDOF 6
ENDMDL
