MODEL 1
REMARK VINA RESULT:      -7.9      0.000      0.000
REMARK  Name = 
REMARK  7 active torsions:
REMARK  status: ('A' for Active; 'I' for Inactive)
REMARK    1  A    between atoms: C_1  and  O_2
REMARK    2  A    between atoms: O_2  and  C_3
REMARK    3  A    between atoms: C_7  and  C_8
REMARK    4  A    between atoms: C_8  and  N_9
REMARK    5  A    between atoms: C_16  and  C_17
REMARK    6  A    between atoms: C_20  and  O_21
REMARK    7  A    between atoms: O_21  and  C_22
REMARK                            x       y       z     vdW  Elec       q    Type
REMARK                         _______ _______ _______ _____ _____    ______ ____
ROOT
ATOM      1  N   UNL     1      -0.983  12.612  20.309  0.00  0.00    +0.000 N 
ATOM      2  C   UNL     1      -1.586  13.153  21.524  0.00  0.00    +0.000 C 
ATOM      3  C   UNL     1      -1.882  12.078  22.562  0.00  0.00    +0.000 C 
ATOM      4  O   UNL     1      -0.669  11.605  23.161  0.00  0.00    +0.000 OA
ATOM      5  C   UNL     1      -0.083  10.642  22.393  0.00  0.00    +0.000 A 
ATOM      6  C   UNL     1       0.039   9.374  22.932  0.00  0.00    +0.000 A 
ATOM      7  N   UNL     1       0.597   8.322  22.286  0.00  0.00    +0.000 NA
ATOM      8  C   UNL     1       1.116   8.539  21.053  0.00  0.00    +0.000 A 
ATOM      9  C   UNL     1       1.071   9.789  20.460  0.00  0.00    +0.000 A 
ATOM     10  C   UNL     1       0.449  10.850  21.130  0.00  0.00    +0.000 A 
ATOM     11  C   UNL     1       0.290  12.082  20.331  0.00  0.00    +0.000 C 
ATOM     12  O   UNL     1       1.170  12.408  19.539  0.00  0.00    +0.000 OA
ENDROOT
BRANCH   8  13
ATOM     13  C   UNL     1       1.690   7.366  20.372  0.00  0.00    +0.000 A 
ATOM     14  C   UNL     1       1.521   6.079  20.905  0.00  0.00    +0.000 A 
ATOM     15  C   UNL     1       2.074   4.961  20.276  0.00  0.00    +0.000 A 
ATOM     16  C   UNL     1       2.806   5.093  19.094  0.00  0.00    +0.000 A 
ATOM     17  C   UNL     1       3.000   6.362  18.560  0.00  0.00    +0.000 A 
ATOM     18  C   UNL     1       2.432   7.482  19.183  0.00  0.00    +0.000 A 
BRANCH  16  19
ATOM     19  O   UNL     1       3.292   3.919  18.609  0.00  0.00    +0.000 OA
BRANCH  19  20
ATOM     20  C   UNL     1       2.821   3.400  17.377  0.00  0.00    +0.000 C 
ATOM     21  F   UNL     1       3.626   3.660  16.327  0.00  0.00    +0.000 F 
ATOM     22  F   UNL     1       2.638   2.070  17.479  0.00  0.00    +0.000 F 
ATOM     23  F   UNL     1       1.619   3.973  17.116  0.00  0.00    +0.000 F 
ENDBRANCH  19  20
ENDBRANCH  16  19
ENDBRANCH   8  13
BRANCH   1  24
ATOM     24  C   UNL     1      -1.541  13.002  19.011  0.00  0.00    +0.000 C 
BRANCH  24  29
ATOM     25  C   UNL     1      -4.256  10.779  17.834  0.00  0.00    +0.000 A 
ATOM     26  C   UNL     1      -3.614   9.936  16.965  0.00  0.00    +0.000 A 
ATOM     27  C   UNL     1      -2.264  10.141  16.821  0.00  0.00    +0.000 A 
ATOM     28  N   UNL     1      -1.580  11.104  17.463  0.00  0.00    +0.000 NA
ATOM     29  C   UNL     1      -2.293  11.889  18.290  0.00  0.00    +0.000 A 
ATOM     30  N   UNL     1      -3.628  11.764  18.488  0.00  0.00    +0.000 NA
BRANCH  25  32
ATOM     31  C   UNL     1      -6.323  11.929  17.660  0.00  0.00    +0.000 C 
ATOM     32  O   UNL     1      -5.607  10.770  18.071  0.00  0.00    +0.000 OA
ENDBRANCH  25  32
ENDBRANCH  24  29
ENDBRANCH   1  24
TORSDOF 6
ENDMDL
MODEL 2
REMARK VINA RESULT:      -7.8      1.484      1.948
REMARK  Name = 
REMARK  7 active torsions:
REMARK  status: ('A' for Active; 'I' for Inactive)
REMARK    1  A    between atoms: C_1  and  O_2
REMARK    2  A    between atoms: O_2  and  C_3
REMARK    3  A    between atoms: C_7  and  C_8
REMARK    4  A    between atoms: C_8  and  N_9
REMARK    5  A    between atoms: C_16  and  C_17
REMARK    6  A    between atoms: C_20  and  O_21
REMARK    7  A    between atoms: O_21  and  C_22
REMARK                            x       y       z     vdW  Elec       q    Type
REMARK                         _______ _______ _______ _____ _____    ______ ____
ROOT
ATOM      1  N   UNL     1      -0.482  12.397  19.565  0.00  0.00    +0.000 N 
ATOM      2  C   UNL     1      -1.046  13.050  20.744  0.00  0.00    +0.000 C 
ATOM      3  C   UNL     1      -1.388  12.065  21.854  0.00  0.00    +0.000 C 
ATOM      4  O   UNL     1      -0.195  11.573  22.478  0.00  0.00    +0.000 OA
ATOM      5  C   UNL     1       0.336  10.532  21.776  0.00  0.00    +0.000 A 
ATOM      6  C   UNL     1       0.399   9.299  22.400  0.00  0.00    +0.000 A 
ATOM      7  N   UNL     1       0.899   8.178  21.826  0.00  0.00    +0.000 NA
ATOM      8  C   UNL     1       1.418   8.284  20.578  0.00  0.00    +0.000 A 
ATOM      9  C   UNL     1       1.431   9.492  19.901  0.00  0.00    +0.000 A 
ATOM     10  C   UNL     1       0.868  10.626  20.499  0.00  0.00    +0.000 A 
ATOM     11  C   UNL     1       0.764  11.807  19.618  0.00  0.00    +0.000 C 
ATOM     12  O   UNL     1       1.653  12.033  18.802  0.00  0.00    +0.000 OA
ENDROOT
BRANCH   8  13
ATOM     13  C   UNL     1       1.928   7.040  19.977  0.00  0.00    +0.000 A 
ATOM     14  C   UNL     1       2.570   7.062  18.730  0.00  0.00    +0.000 A 
ATOM     15  C   UNL     1       3.043   5.886  18.143  0.00  0.00    +0.000 A 
ATOM     16  C   UNL     1       2.895   4.655  18.786  0.00  0.00    +0.000 A 
ATOM     17  C   UNL     1       2.245   4.610  20.014  0.00  0.00    +0.000 A 
ATOM     18  C   UNL     1       1.784   5.793  20.610  0.00  0.00    +0.000 A 
BRANCH  16  19
ATOM     19  O   UNL     1       3.393   3.601  18.085  0.00  0.00    +0.000 OA
BRANCH  19  20
ATOM     20  C   UNL     1       2.997   2.277  18.399  0.00  0.00    +0.000 C 
ATOM     21  F   UNL     1       1.669   2.062  18.300  0.00  0.00    +0.000 F 
ATOM     22  F   UNL     1       3.649   1.402  17.611  0.00  0.00    +0.000 F 
ATOM     23  F   UNL     1       3.351   2.031  19.687  0.00  0.00    +0.000 F 
ENDBRANCH  19  20
ENDBRANCH  16  19
ENDBRANCH   8  13
BRANCH   1  24
ATOM     24  C   UNL     1      -1.029  12.726  18.246  0.00  0.00    +0.000 C 
BRANCH  24  29
ATOM     25  C   UNL     1      -2.982  10.729  15.817  0.00  0.00    +0.000 A 
ATOM     26  C   UNL     1      -3.381   9.645  16.554  0.00  0.00    +0.000 A 
ATOM     27  C   UNL     1      -2.985   9.637  17.870  0.00  0.00    +0.000 A 
ATOM     28  N   UNL     1      -2.243  10.606  18.434  0.00  0.00    +0.000 NA
ATOM     29  C   UNL     1      -1.891  11.628  17.633  0.00  0.00    +0.000 A 
ATOM     30  N   UNL     1      -2.230  11.714  16.323  0.00  0.00    +0.000 NA
BRANCH  25  32
ATOM     31  C   UNL     1      -3.944   9.840  13.840  0.00  0.00    +0.000 C 
ATOM     32  O   UNL     1      -3.229  10.891  14.479  0.00  0.00    +0.000 OA
ENDBRANCH  25  32
ENDBRANCH  24  29
ENDBRANCH   1  24
TORSDOF 6
ENDMDL
MODEL 3
REMARK VINA RESULT:      -7.8      2.681      3.770
REMARK  Name = 
REMARK  7 active torsions:
REMARK  status: ('A' for Active; 'I' for Inactive)
REMARK    1  A    between atoms: C_1  and  O_2
REMARK    2  A    between atoms: O_2  and  C_3
REMARK    3  A    between atoms: C_7  and  C_8
REMARK    4  A    between atoms: C_8  and  N_9
REMARK    5  A    between atoms: C_16  and  C_17
REMARK    6  A    between atoms: C_20  and  O_21
REMARK    7  A    between atoms: O_21  and  C_22
REMARK                            x       y       z     vdW  Elec       q    Type
REMARK                         _______ _______ _______ _____ _____    ______ ____
ROOT
ATOM      1  N   UNL     1      -0.029   9.853  19.065  0.00  0.00    +0.000 N 
ATOM      2  C   UNL     1      -0.557   9.871  20.427  0.00  0.00    +0.000 C 
ATOM      3  C   UNL     1      -0.377   8.539  21.144  0.00  0.00    +0.000 C 
ATOM      4  O   UNL     1       0.998   8.332  21.490  0.00  0.00    +0.000 OA
ATOM      5  C   UNL     1       1.698   7.813  20.440  0.00  0.00    +0.000 A 
ATOM      6  C   UNL     1       2.249   6.553  20.593  0.00  0.00    +0.000 A 
ATOM      7  N   UNL     1       2.965   5.914  19.638  0.00  0.00    +0.000 NA
ATOM      8  C   UNL     1       3.203   6.572  18.477  0.00  0.00    +0.000 A 
ATOM      9  C   UNL     1       2.721   7.853  18.262  0.00  0.00    +0.000 A 
ATOM     10  C   UNL     1       1.945   8.474  19.248  0.00  0.00    +0.000 A 
ATOM     11  C   UNL     1       1.328   9.753  18.839  0.00  0.00    +0.000 C 
ATOM     12  O   UNL     1       1.947  10.515  18.102  0.00  0.00    +0.000 OA
ENDROOT
BRANCH   8  13
ATOM     13  C   UNL     1       3.962   5.835  17.453  0.00  0.00    +0.000 A 
ATOM     14  C   UNL     1       3.875   4.438  17.370  0.00  0.00    +0.000 A 
ATOM     15  C   UNL     1       4.602   3.727  16.413  0.00  0.00    +0.000 A 
ATOM     16  C   UNL     1       5.434   4.390  15.507  0.00  0.00    +0.000 A 
ATOM     17  C   UNL     1       5.549   5.773  15.587  0.00  0.00    +0.000 A 
ATOM     18  C   UNL     1       4.806   6.487  16.537  0.00  0.00    +0.000 A 
BRANCH  16  19
ATOM     19  O   UNL     1       6.087   3.562  14.647  0.00  0.00    +0.000 OA
BRANCH  19  20
ATOM     20  C   UNL     1       5.995   3.764  13.247  0.00  0.00    +0.000 C 
ATOM     21  F   UNL     1       6.821   4.719  12.773  0.00  0.00    +0.000 F 
ATOM     22  F   UNL     1       6.233   2.607  12.600  0.00  0.00    +0.000 F 
ATOM     23  F   UNL     1       4.725   4.152  12.965  0.00  0.00    +0.000 F 
ENDBRANCH  19  20
ENDBRANCH  16  19
ENDBRANCH   8  13
BRANCH   1  24
ATOM     24  C   UNL     1      -0.871  10.356  17.976  0.00  0.00    +0.000 C 
BRANCH  24  29
ATOM     25  C   UNL     1      -4.421  11.341  18.334  0.00  0.00    +0.000 A 
ATOM     26  C   UNL     1      -4.379  12.305  19.307  0.00  0.00    +0.000 A 
ATOM     27  C   UNL     1      -3.133  12.604  19.801  0.00  0.00    +0.000 A 
ATOM     28  N   UNL     1      -2.002  12.004  19.391  0.00  0.00    +0.000 NA
ATOM     29  C   UNL     1      -2.138  11.065  18.438  0.00  0.00    +0.000 A 
ATOM     30  N   UNL     1      -3.328  10.701  17.900  0.00  0.00    +0.000 NA
BRANCH  25  32
ATOM     31  C   UNL     1      -6.666  10.640  18.640  0.00  0.00    +0.000 C 
ATOM     32  O   UNL     1      -5.571  10.866  17.759  0.00  0.00    +0.000 OA
ENDBRANCH  25  32
ENDBRANCH  24  29
ENDBRANCH   1  24
TORSDOF 6
ENDMDL
MODEL 4
REMARK VINA RESULT:      -7.7      1.074      1.532
REMARK  Name = 
REMARK  7 active torsions:
REMARK  status: ('A' for Active; 'I' for Inactive)
REMARK    1  A    between atoms: C_1  and  O_2
REMARK    2  A    between atoms: O_2  and  C_3
REMARK    3  A    between atoms: C_7  and  C_8
REMARK    4  A    between atoms: C_8  and  N_9
REMARK    5  A    between atoms: C_16  and  C_17
REMARK    6  A    between atoms: C_20  and  O_21
REMARK    7  A    between atoms: O_21  and  C_22
REMARK                            x       y       z     vdW  Elec       q    Type
REMARK                         _______ _______ _______ _____ _____    ______ ____
ROOT
ATOM      1  N   UNL     1      -1.317  12.600  20.655  0.00  0.00    +0.000 N 
ATOM      2  C   UNL     1      -1.842  12.991  21.961  0.00  0.00    +0.000 C 
ATOM      3  C   UNL     1      -1.947  11.817  22.927  0.00  0.00    +0.000 C 
ATOM      4  O   UNL     1      -0.647  11.411  23.373  0.00  0.00    +0.000 OA
ATOM      5  C   UNL     1      -0.061  10.567  22.477  0.00  0.00    +0.000 A 
ATOM      6  C   UNL     1       0.217   9.277  22.894  0.00  0.00    +0.000 A 
ATOM      7  N   UNL     1       0.795   8.331  22.114  0.00  0.00    +0.000 NA
ATOM      8  C   UNL     1       1.174   8.688  20.862  0.00  0.00    +0.000 A 
ATOM      9  C   UNL     1       0.969   9.971  20.384  0.00  0.00    +0.000 A 
ATOM     10  C   UNL     1       0.329  10.917  21.194  0.00  0.00    +0.000 A 
ATOM     11  C   UNL     1      -0.008  12.187  20.519  0.00  0.00    +0.000 C 
ATOM     12  O   UNL     1       0.762  12.651  19.683  0.00  0.00    +0.000 OA
ENDROOT
BRANCH   8  13
ATOM     13  C   UNL     1       1.774   7.627  20.036  0.00  0.00    +0.000 A 
ATOM     14  C   UNL     1       2.310   7.923  18.775  0.00  0.00    +0.000 A 
ATOM     15  C   UNL     1       2.868   6.923  17.976  0.00  0.00    +0.000 A 
ATOM     16  C   UNL     1       2.914   5.597  18.416  0.00  0.00    +0.000 A 
ATOM     17  C   UNL     1       2.371   5.281  19.656  0.00  0.00    +0.000 A 
ATOM     18  C   UNL     1       1.825   6.288  20.464  0.00  0.00    +0.000 A 
BRANCH  16  19
ATOM     19  O   UNL     1       3.473   4.737  17.523  0.00  0.00    +0.000 OA
BRANCH  19  20
ATOM     20  C   UNL     1       4.680   4.061  17.836  0.00  0.00    +0.000 C 
ATOM     21  F   UNL     1       4.515   2.976  18.621  0.00  0.00    +0.000 F 
ATOM     22  F   UNL     1       5.310   3.699  16.703  0.00  0.00    +0.000 F 
ATOM     23  F   UNL     1       5.480   4.927  18.507  0.00  0.00    +0.000 F 
ENDBRANCH  19  20
ENDBRANCH  16  19
ENDBRANCH   8  13
BRANCH   1  24
ATOM     24  C   UNL     1      -2.027  13.038  19.450  0.00  0.00    +0.000 C 
BRANCH  24  29
ATOM     25  C   UNL     1      -4.667  10.894  17.989  0.00  0.00    +0.000 A 
ATOM     26  C   UNL     1      -3.954   9.942  17.308  0.00  0.00    +0.000 A 
ATOM     27  C   UNL     1      -2.587  10.050  17.384  0.00  0.00    +0.000 A 
ATOM     28  N   UNL     1      -1.949  11.020  18.063  0.00  0.00    +0.000 NA
ATOM     29  C   UNL     1      -2.729  11.916  18.694  0.00  0.00    +0.000 A 
ATOM     30  N   UNL     1      -4.084  11.890  18.667  0.00  0.00    +0.000 NA
BRANCH  25  32
ATOM     31  C   UNL     1      -6.721  10.161  18.920  0.00  0.00    +0.000 C 
ATOM     32  O   UNL     1      -6.034  10.988  17.988  0.00  0.00    +0.000 OA
ENDBRANCH  25  32
ENDBRANCH  24  29
ENDBRANCH   1  24
TORSDOF 6
ENDMDL
MODEL 5
REMARK VINA RESULT:      -7.7      2.909      4.054
REMARK  Name = 
REMARK  7 active torsions:
REMARK  status: ('A' for Active; 'I' for Inactive)
REMARK    1  A    between atoms: C_1  and  O_2
REMARK    2  A    between atoms: O_2  and  C_3
REMARK    3  A    between atoms: C_7  and  C_8
REMARK    4  A    between atoms: C_8  and  N_9
REMARK    5  A    between atoms: C_16  and  C_17
REMARK    6  A    between atoms: C_20  and  O_21
REMARK    7  A    between atoms: O_21  and  C_22
REMARK                            x       y       z     vdW  Elec       q    Type
REMARK                         _______ _______ _______ _____ _____    ______ ____
ROOT
ATOM      1  N   UNL     1       0.106   9.851  18.899  0.00  0.00    +0.000 N 
ATOM      2  C   UNL     1      -0.444   9.847  20.252  0.00  0.00    +0.000 C 
ATOM      3  C   UNL     1      -0.292   8.497  20.943  0.00  0.00    +0.000 C 
ATOM      4  O   UNL     1       1.075   8.267  21.307  0.00  0.00    +0.000 OA
ATOM      5  C   UNL     1       1.785   7.762  20.258  0.00  0.00    +0.000 A 
ATOM      6  C   UNL     1       2.319   6.492  20.393  0.00  0.00    +0.000 A 
ATOM      7  N   UNL     1       3.044   5.865  19.436  0.00  0.00    +0.000 NA
ATOM      8  C   UNL     1       3.308   6.545  18.294  0.00  0.00    +0.000 A 
ATOM      9  C   UNL     1       2.846   7.836  18.098  0.00  0.00    +0.000 A 
ATOM     10  C   UNL     1       2.061   8.445  19.084  0.00  0.00    +0.000 A 
ATOM     11  C   UNL     1       1.466   9.739  18.693  0.00  0.00    +0.000 C 
ATOM     12  O   UNL     1       2.106  10.510  17.984  0.00  0.00    +0.000 OA
ENDROOT
BRANCH   8  13
ATOM     13  C   UNL     1       4.077   5.821  17.267  0.00  0.00    +0.000 A 
ATOM     14  C   UNL     1       4.092   4.419  17.246  0.00  0.00    +0.000 A 
ATOM     15  C   UNL     1       4.829   3.721  16.286  0.00  0.00    +0.000 A 
ATOM     16  C   UNL     1       5.568   4.403  15.316  0.00  0.00    +0.000 A 
ATOM     17  C   UNL     1       5.580   5.793  15.332  0.00  0.00    +0.000 A 
ATOM     18  C   UNL     1       4.827   6.492  16.286  0.00  0.00    +0.000 A 
BRANCH  16  19
ATOM     19  O   UNL     1       6.243   3.588  14.461  0.00  0.00    +0.000 OA
BRANCH  19  20
ATOM     20  C   UNL     1       5.989   3.639  13.068  0.00  0.00    +0.000 C 
ATOM     21  F   UNL     1       6.192   2.468  12.428  0.00  0.00    +0.000 F 
ATOM     22  F   UNL     1       4.728   4.054  12.846  0.00  0.00    +0.000 F 
ATOM     23  F   UNL     1       6.836   4.549  12.523  0.00  0.00    +0.000 F 
ENDBRANCH  19  20
ENDBRANCH  16  19
ENDBRANCH   8  13
BRANCH   1  24
ATOM     24  C   UNL     1      -0.711  10.387  17.807  0.00  0.00    +0.000 C 
BRANCH  24  29
ATOM     25  C   UNL     1      -3.327  12.390  19.494  0.00  0.00    +0.000 A 
ATOM     26  C   UNL     1      -4.490  11.887  18.972  0.00  0.00    +0.000 A 
ATOM     27  C   UNL     1      -4.346  10.862  18.069  0.00  0.00    +0.000 A 
ATOM     28  N   UNL     1      -3.158  10.362  17.686  0.00  0.00    +0.000 NA
ATOM     29  C   UNL     1      -2.070  10.922  18.244  0.00  0.00    +0.000 A 
ATOM     30  N   UNL     1      -2.117  11.941  19.137  0.00  0.00    +0.000 NA
BRANCH  25  32
ATOM     31  C   UNL     1      -4.358  13.598  21.256  0.00  0.00    +0.000 C 
ATOM     32  O   UNL     1      -3.259  13.448  20.364  0.00  0.00    +0.000 OA
ENDBRANCH  25  32
ENDBRANCH  24  29
ENDBRANCH   1  24
TORSDOF 6
ENDMDL
MODEL 6
REMARK VINA RESULT:      -7.6      0.876      1.390
REMARK  Name = 
REMARK  7 active torsions:
REMARK  status: ('A' for Active; 'I' for Inactive)
REMARK    1  A    between atoms: C_1  and  O_2
REMARK    2  A    between atoms: O_2  and  C_3
REMARK    3  A    between atoms: C_7  and  C_8
REMARK    4  A    between atoms: C_8  and  N_9
REMARK    5  A    between atoms: C_16  and  C_17
REMARK    6  A    between atoms: C_20  and  O_21
REMARK    7  A    between atoms: O_21  and  C_22
REMARK                            x       y       z     vdW  Elec       q    Type
REMARK                         _______ _______ _______ _____ _____    ______ ____
ROOT
ATOM      1  N   UNL     1      -0.519  12.388  19.761  0.00  0.00    +0.000 N 
ATOM      2  C   UNL     1      -1.058  13.017  20.963  0.00  0.00    +0.000 C 
ATOM      3  C   UNL     1      -1.373  12.010  22.062  0.00  0.00    +0.000 C 
ATOM      4  O   UNL     1      -0.166  11.509  22.650  0.00  0.00    +0.000 OA
ATOM      5  C   UNL     1       0.351  10.483  21.916  0.00  0.00    +0.000 A 
ATOM      6  C   UNL     1       0.430   9.238  22.516  0.00  0.00    +0.000 A 
ATOM      7  N   UNL     1       0.918   8.130  21.909  0.00  0.00    +0.000 NA
ATOM      8  C   UNL     1       1.410   8.261  20.652  0.00  0.00    +0.000 A 
ATOM      9  C   UNL     1       1.406   9.481  19.998  0.00  0.00    +0.000 A 
ATOM     10  C   UNL     1       0.854  10.602  20.631  0.00  0.00    +0.000 A 
ATOM     11  C   UNL     1       0.729  11.800  19.775  0.00  0.00    +0.000 C 
ATOM     12  O   UNL     1       1.599  12.043  18.944  0.00  0.00    +0.000 OA
ENDROOT
BRANCH   8  13
ATOM     13  C   UNL     1       1.908   7.029  20.016  0.00  0.00    +0.000 A 
ATOM     14  C   UNL     1       2.541   7.079  18.766  0.00  0.00    +0.000 A 
ATOM     15  C   UNL     1       3.004   5.916  18.146  0.00  0.00    +0.000 A 
ATOM     16  C   UNL     1       2.854   4.669  18.759  0.00  0.00    +0.000 A 
ATOM     17  C   UNL     1       2.213   4.598  19.990  0.00  0.00    +0.000 A 
ATOM     18  C   UNL     1       1.763   5.767  20.619  0.00  0.00    +0.000 A 
BRANCH  16  19
ATOM     19  O   UNL     1       3.341   3.631  18.028  0.00  0.00    +0.000 OA
BRANCH  19  20
ATOM     20  C   UNL     1       2.984   2.297  18.349  0.00  0.00    +0.000 C 
ATOM     21  F   UNL     1       3.161   1.977  19.647  0.00  0.00    +0.000 F 
ATOM     22  F   UNL     1       1.703   2.069  18.005  0.00  0.00    +0.000 F 
ATOM     23  F   UNL     1       3.772   1.468  17.617  0.00  0.00    +0.000 F 
ENDBRANCH  19  20
ENDBRANCH  16  19
ENDBRANCH   8  13
BRANCH   1  24
ATOM     24  C   UNL     1      -1.096  12.741  18.460  0.00  0.00    +0.000 C 
BRANCH  24  29
ATOM     25  C   UNL     1      -4.322  10.970  18.059  0.00  0.00    +0.000 A 
ATOM     26  C   UNL     1      -4.067  10.084  17.045  0.00  0.00    +0.000 A 
ATOM     27  C   UNL     1      -2.790  10.104  16.540  0.00  0.00    +0.000 A 
ATOM     28  N   UNL     1      -1.825  10.934  16.975  0.00  0.00    +0.000 NA
ATOM     29  C   UNL     1      -2.168  11.775  17.967  0.00  0.00    +0.000 A 
ATOM     30  N   UNL     1      -3.405  11.829  18.520  0.00  0.00    +0.000 NA
BRANCH  25  32
ATOM     31  C   UNL     1      -6.550  11.757  17.856  0.00  0.00    +0.000 C 
ATOM     32  O   UNL     1      -5.546  11.140  18.653  0.00  0.00    +0.000 OA
ENDBRANCH  25  32
ENDBRANCH  24  29
ENDBRANCH   1  24
TORSDOF 6
ENDMDL
MODEL 7
REMARK VINA RESULT:      -7.6      0.705      1.259
REMARK  Name = 
REMARK  7 active torsions:
REMARK  status: ('A' for Active; 'I' for Inactive)
REMARK    1  A    between atoms: C_1  and  O_2
REMARK    2  A    between atoms: O_2  and  C_3
REMARK    3  A    between atoms: C_7  and  C_8
REMARK    4  A    between atoms: C_8  and  N_9
REMARK    5  A    between atoms: C_16  and  C_17
REMARK    6  A    between atoms: C_20  and  O_21
REMARK    7  A    between atoms: O_21  and  C_22
REMARK                            x       y       z     vdW  Elec       q    Type
REMARK                         _______ _______ _______ _____ _____    ______ ____
ROOT
ATOM      1  N   UNL     1      -1.644  12.840  20.805  0.00  0.00    +0.000 N 
ATOM      2  C   UNL     1      -2.275  13.197  22.074  0.00  0.00    +0.000 C 
ATOM      3  C   UNL     1      -2.435  12.003  23.007  0.00  0.00    +0.000 C 
ATOM      4  O   UNL     1      -1.167  11.608  23.544  0.00  0.00    +0.000 OA
ATOM      5  C   UNL     1      -0.498  10.791  22.682  0.00  0.00    +0.000 A 
ATOM      6  C   UNL     1      -0.231   9.498  23.095  0.00  0.00    +0.000 A 
ATOM      7  N   UNL     1       0.422   8.577  22.346  0.00  0.00    +0.000 NA
ATOM      8  C   UNL     1       0.890   8.964  21.134  0.00  0.00    +0.000 A 
ATOM      9  C   UNL     1       0.701  10.253  20.664  0.00  0.00    +0.000 A 
ATOM     10  C   UNL     1      -0.017  11.173  21.439  0.00  0.00    +0.000 A 
ATOM     11  C   UNL     1      -0.322  12.450  20.764  0.00  0.00    +0.000 C 
ATOM     12  O   UNL     1       0.502  12.942  19.998  0.00  0.00    +0.000 OA
ENDROOT
BRANCH   8  13
ATOM     13  C   UNL     1       1.571   7.929  20.338  0.00  0.00    +0.000 A 
ATOM     14  C   UNL     1       2.087   8.230  19.069  0.00  0.00    +0.000 A 
ATOM     15  C   UNL     1       2.721   7.253  18.299  0.00  0.00    +0.000 A 
ATOM     16  C   UNL     1       2.865   5.947  18.775  0.00  0.00    +0.000 A 
ATOM     17  C   UNL     1       2.344   5.625  20.022  0.00  0.00    +0.000 A 
ATOM     18  C   UNL     1       1.721   6.610  20.802  0.00  0.00    +0.000 A 
BRANCH  16  19
ATOM     19  O   UNL     1       3.489   5.108  17.906  0.00  0.00    +0.000 OA
BRANCH  19  20
ATOM     20  C   UNL     1       2.857   3.912  17.482  0.00  0.00    +0.000 C 
ATOM     21  F   UNL     1       1.532   4.040  17.258  0.00  0.00    +0.000 F 
ATOM     22  F   UNL     1       3.453   3.447  16.368  0.00  0.00    +0.000 F 
ATOM     23  F   UNL     1       3.013   2.987  18.463  0.00  0.00    +0.000 F 
ENDBRANCH  19  20
ENDBRANCH  16  19
ENDBRANCH   8  13
BRANCH   1  24
ATOM     24  C   UNL     1      -2.267  13.289  19.557  0.00  0.00    +0.000 C 
BRANCH  24  29
ATOM     25  C   UNL     1      -4.466  10.798  17.926  0.00  0.00    +0.000 A 
ATOM     26  C   UNL     1      -3.630  10.185  17.029  0.00  0.00    +0.000 A 
ATOM     27  C   UNL     1      -2.331  10.629  17.022  0.00  0.00    +0.000 A 
ATOM     28  N   UNL     1      -1.870  11.609  17.819  0.00  0.00    +0.000 NA
ATOM     29  C   UNL     1      -2.762  12.160  18.661  0.00  0.00    +0.000 A 
ATOM     30  N   UNL     1      -4.064  11.789  18.731  0.00  0.00    +0.000 NA
BRANCH  25  32
ATOM     31  C   UNL     1      -6.665  11.668  18.107  0.00  0.00    +0.000 C 
ATOM     32  O   UNL     1      -5.806  10.535  18.045  0.00  0.00    +0.000 OA
ENDBRANCH  25  32
ENDBRANCH  24  29
ENDBRANCH   1  24
TORSDOF 6
ENDMDL
MODEL 8
REMARK VINA RESULT:      -7.6      1.975      3.014
REMARK  Name = 
REMARK  7 active torsions:
REMARK  status: ('A' for Active; 'I' for Inactive)
REMARK    1  A    between atoms: C_1  and  O_2
REMARK    2  A    between atoms: O_2  and  C_3
REMARK    3  A    between atoms: C_7  and  C_8
REMARK    4  A    between atoms: C_8  and  N_9
REMARK    5  A    between atoms: C_16  and  C_17
REMARK    6  A    between atoms: C_20  and  O_21
REMARK    7  A    between atoms: O_21  and  C_22
REMARK                            x       y       z     vdW  Elec       q    Type
REMARK                         _______ _______ _______ _____ _____    ______ ____
ROOT
ATOM      1  N   UNL     1      -3.234  11.794  18.923  0.00  0.00    +0.000 N 
ATOM      2  C   UNL     1      -3.545  12.789  19.946  0.00  0.00    +0.000 C 
ATOM      3  C   UNL     1      -2.813  12.533  21.257  0.00  0.00    +0.000 C 
ATOM      4  O   UNL     1      -1.420  12.843  21.126  0.00  0.00    +0.000 OA
ATOM      5  C   UNL     1      -0.731  11.797  20.586  0.00  0.00    +0.000 A 
ATOM      6  C   UNL     1       0.244  11.197  21.363  0.00  0.00    +0.000 A 
ATOM      7  N   UNL     1       1.005  10.151  20.959  0.00  0.00    +0.000 NA
ATOM      8  C   UNL     1       0.835   9.698  19.693  0.00  0.00    +0.000 A 
ATOM      9  C   UNL     1      -0.091  10.271  18.838  0.00  0.00    +0.000 A 
ATOM     10  C   UNL     1      -0.895  11.322  19.295  0.00  0.00    +0.000 A 
ATOM     11  C   UNL     1      -1.972  11.727  18.369  0.00  0.00    +0.000 C 
ATOM     12  O   UNL     1      -1.768  11.713  17.158  0.00  0.00    +0.000 OA
ENDROOT
BRANCH   8  13
ATOM     13  C   UNL     1       1.661   8.543  19.299  0.00  0.00    +0.000 A 
ATOM     14  C   UNL     1       1.833   7.459  20.172  0.00  0.00    +0.000 A 
ATOM     15  C   UNL     1       2.625   6.366  19.815  0.00  0.00    +0.000 A 
ATOM     16  C   UNL     1       3.265   6.319  18.574  0.00  0.00    +0.000 A 
ATOM     17  C   UNL     1       3.122   7.393  17.702  0.00  0.00    +0.000 A 
ATOM     18  C   UNL     1       2.313   8.483  18.055  0.00  0.00    +0.000 A 
BRANCH  16  19
ATOM     19  O   UNL     1       4.011   5.200  18.378  0.00  0.00    +0.000 OA
BRANCH  19  20
ATOM     20  C   UNL     1       3.568   4.186  17.491  0.00  0.00    +0.000 C 
ATOM     21  F   UNL     1       3.884   2.935  17.883  0.00  0.00    +0.000 F 
ATOM     22  F   UNL     1       2.235   4.276  17.321  0.00  0.00    +0.000 F 
ATOM     23  F   UNL     1       4.162   4.396  16.289  0.00  0.00    +0.000 F 
ENDBRANCH  19  20
ENDBRANCH  16  19
ENDBRANCH   8  13
BRANCH   1  24
ATOM     24  C   UNL     1      -4.338  11.163  18.194  0.00  0.00    +0.000 C 
BRANCH  24  29
ATOM     25  C   UNL     1      -6.922  13.600  17.153  0.00  0.00    +0.000 A 
ATOM     26  C   UNL     1      -7.917  13.413  18.077  0.00  0.00    +0.000 A 
ATOM     27  C   UNL     1      -7.666  12.470  19.044  0.00  0.00    +0.000 A 
ATOM     28  N   UNL     1      -6.535  11.745  19.107  0.00  0.00    +0.000 NA
ATOM     29  C   UNL     1      -5.618  11.989  18.154  0.00  0.00    +0.000 A 
ATOM     30  N   UNL     1      -5.784  12.896  17.160  0.00  0.00    +0.000 NA
BRANCH  25  32
ATOM     31  C   UNL     1      -7.169  15.832  16.391  0.00  0.00    +0.000 C 
ATOM     32  O   UNL     1      -7.006  14.452  16.083  0.00  0.00    +0.000 OA
ENDBRANCH  25  32
ENDBRANCH  24  29
ENDBRANCH   1  24
TORSDOF 6
ENDMDL
MODEL 9
REMARK VINA RESULT:      -7.6      1.123      1.938
REMARK  Name = 
REMARK  7 active torsions:
REMARK  status: ('A' for Active; 'I' for Inactive)
REMARK    1  A    between atoms: C_1  and  O_2
REMARK    2  A    between atoms: O_2  and  C_3
REMARK    3  A    between atoms: C_7  and  C_8
REMARK    4  A    between atoms: C_8  and  N_9
REMARK    5  A    between atoms: C_16  and  C_17
REMARK    6  A    between atoms: C_20  and  O_21
REMARK    7  A    between atoms: O_21  and  C_22
REMARK                            x       y       z     vdW  Elec       q    Type
REMARK                         _______ _______ _______ _____ _____    ______ ____
ROOT
ATOM      1  N   UNL     1      -0.452  12.318  19.386  0.00  0.00    +0.000 N 
ATOM      2  C   UNL     1      -1.016  13.075  20.501  0.00  0.00    +0.000 C 
ATOM      3  C   UNL     1      -1.382  12.190  21.686  0.00  0.00    +0.000 C 
ATOM      4  O   UNL     1      -0.202  11.734  22.360  0.00  0.00    +0.000 OA
ATOM      5  C   UNL     1       0.317  10.630  21.750  0.00  0.00    +0.000 A 
ATOM      6  C   UNL     1       0.356   9.452  22.475  0.00  0.00    +0.000 A 
ATOM      7  N   UNL     1       0.841   8.280  22.000  0.00  0.00    +0.000 NA
ATOM      8  C   UNL     1       1.372   8.274  20.753  0.00  0.00    +0.000 A 
ATOM      9  C   UNL     1       1.410   9.421  19.978  0.00  0.00    +0.000 A 
ATOM     10  C   UNL     1       0.861  10.609  20.476  0.00  0.00    +0.000 A 
ATOM     11  C   UNL     1       0.783  11.715  19.499  0.00  0.00    +0.000 C 
ATOM     12  O   UNL     1       1.681  11.859  18.675  0.00  0.00    +0.000 OA
ENDROOT
BRANCH   8  13
ATOM     13  C   UNL     1       1.866   6.976  20.261  0.00  0.00    +0.000 A 
ATOM     14  C   UNL     1       2.607   6.900  19.073  0.00  0.00    +0.000 A 
ATOM     15  C   UNL     1       3.067   5.673  18.589  0.00  0.00    +0.000 A 
ATOM     16  C   UNL     1       2.807   4.487  19.281  0.00  0.00    +0.000 A 
ATOM     17  C   UNL     1       2.059   4.541  20.451  0.00  0.00    +0.000 A 
ATOM     18  C   UNL     1       1.611   5.774  20.944  0.00  0.00    +0.000 A 
BRANCH  16  19
ATOM     19  O   UNL     1       3.307   3.375  18.679  0.00  0.00    +0.000 OA
BRANCH  19  20
ATOM     20  C   UNL     1       2.497   2.605  17.805  0.00  0.00    +0.000 C 
ATOM     21  F   UNL     1       1.276   2.315  18.300  0.00  0.00    +0.000 F 
ATOM     22  F   UNL     1       2.361   3.240  16.626  0.00  0.00    +0.000 F 
ATOM     23  F   UNL     1       3.132   1.426  17.580  0.00  0.00    +0.000 F 
ENDBRANCH  19  20
ENDBRANCH  16  19
ENDBRANCH   8  13
BRANCH   1  24
ATOM     24  C   UNL     1      -0.985  12.544  18.039  0.00  0.00    +0.000 C 
BRANCH  24  29
ATOM     25  C   UNL     1      -3.892  10.913  16.431  0.00  0.00    +0.000 A 
ATOM     26  C   UNL     1      -4.828  10.888  17.431  0.00  0.00    +0.000 A 
ATOM     27  C   UNL     1      -4.443  11.449  18.624  0.00  0.00    +0.000 A 
ATOM     28  N   UNL     1      -3.231  11.988  18.842  0.00  0.00    +0.000 NA
ATOM     29  C   UNL     1      -2.373  11.960  17.807  0.00  0.00    +0.000 A 
ATOM     30  N   UNL     1      -2.665  11.422  16.597  0.00  0.00    +0.000 NA
BRANCH  25  32
ATOM     31  C   UNL     1      -2.878  10.007  14.488  0.00  0.00    +0.000 C 
ATOM     32  O   UNL     1      -4.065  10.355  15.190  0.00  0.00    +0.000 OA
ENDBRANCH  25  32
ENDBRANCH  24  29
ENDBRANCH   1  24
TORSDOF 6
ENDMDL
