MODEL 1
REMARK VINA RESULT:      -6.1      0.000      0.000
REMARK  Name = 
REMARK  16 active torsions:
REMARK  status: ('A' for Active; 'I' for Inactive)
REMARK    1  A    between atoms: C_1  and  C_2
REMARK    2  A    between atoms: C_2  and  C_3
REMARK    3  A    between atoms: C_3  and  C_4
REMARK    4  A    between atoms: C_4  and  C_5
REMARK    5  A    between atoms: C_5  and  C_6
REMARK    6  A    between atoms: C_6  and  C_7
REMARK    7  A    between atoms: C_7  and  C_8
REMARK    8  A    between atoms: C_8  and  C_9
REMARK    9  A    between atoms: C_9  and  C_10
REMARK   10  A    between atoms: C_10  and  C_11
REMARK   11  A    between atoms: C_11  and  C_12
REMARK   12  A    between atoms: C_12  and  C_13
REMARK   13  A    between atoms: C_13  and  C_14
REMARK   14  A    between atoms: C_14  and  C_15
REMARK   15  A    between atoms: C_15  and  C_17
REMARK   16  A    between atoms: C_17  and  C_19
REMARK                            x       y       z     vdW  Elec       q    Type
REMARK                         _______ _______ _______ _____ _____    ______ ____
ROOT
ATOM      1  C   UNL     1       6.701   5.417  19.392  0.00  0.00    +0.000 C 
ENDROOT
BRANCH   1   2
ATOM      2  C   UNL     1       5.428   4.665  19.038  0.00  0.00    +0.000 C 
BRANCH   2   3
ATOM      3  C   UNL     1       4.225   5.355  19.661  0.00  0.00    +0.000 C 
BRANCH   3   4
ATOM      4  C   UNL     1       3.390   6.030  18.586  0.00  0.00    +0.000 C 
BRANCH   4   5
ATOM      5  C   UNL     1       3.171   5.079  17.420  0.00  0.00    +0.000 C 
BRANCH   5   6
ATOM      6  C   UNL     1       1.935   4.228  17.661  0.00  0.00    +0.000 C 
BRANCH   6   7
ATOM      7  C   UNL     1       2.311   2.756  17.714  0.00  0.00    +0.000 C 
BRANCH   7   8
ATOM      8  C   UNL     1       1.958   2.169  19.073  0.00  0.00    +0.000 C 
BRANCH   8   9
ATOM      9  C   UNL     1       0.881   3.007  19.750  0.00  0.00    +0.000 C 
BRANCH   9  11
ATOM     10  C   UNL     1       2.528   2.640  21.598  0.00  0.00    +0.000 C 
ATOM     11  C   UNL     1       1.327   3.446  21.138  0.00  0.00    +0.000 C 
ENDBRANCH   9  11
ENDBRANCH   8   9
ENDBRANCH   7   8
ENDBRANCH   6   7
ENDBRANCH   5   6
ENDBRANCH   4   5
ENDBRANCH   3   4
ENDBRANCH   2   3
ENDBRANCH   1   2
BRANCH   1  12
ATOM     12  C   UNL     1       7.532   5.665  18.143  0.00  0.00    +0.000 C 
BRANCH  12  13
ATOM     13  C   UNL     1       6.676   5.525  16.890  0.00  0.00    +0.000 C 
BRANCH  13  14
ATOM     14  C   UNL     1       7.176   4.350  16.058  0.00  0.00    +0.000 C 
BRANCH  14  15
ATOM     15  C   UNL     1       6.363   4.162  14.786  0.00  0.00    +0.000 C 
ATOM     16  F   UNL     1       5.179   4.819  14.930  0.00  0.00    +0.000 F 
BRANCH  15  17
ATOM     17  C   UNL     1       7.116   4.669  13.576  0.00  0.00    +0.000 C 
ATOM     18  O   UNL     1       7.984   5.551  13.651  0.00  0.00    +0.000 OA
BRANCH  17  19
ATOM     19  C   UNL     1       6.750   3.980  12.285  0.00  0.00    +0.000 C 
ATOM     20  F   UNL     1       7.007   4.743  11.187  0.00  0.00    +0.000 F 
ATOM     21  F   UNL     1       7.414   2.809  12.107  0.00  0.00    +0.000 F 
ATOM     22  F   UNL     1       5.421   3.687  12.230  0.00  0.00    +0.000 F 
ENDBRANCH  17  19
ENDBRANCH  15  17
ENDBRANCH  14  15
ENDBRANCH  13  14
ENDBRANCH  12  13
ENDBRANCH   1  12
TORSDOF 15
ENDMDL
MODEL 2
REMARK VINA RESULT:      -5.9      1.948      4.201
REMARK  Name = 
REMARK  16 active torsions:
REMARK  status: ('A' for Active; 'I' for Inactive)
REMARK    1  A    between atoms: C_1  and  C_2
REMARK    2  A    between atoms: C_2  and  C_3
REMARK    3  A    between atoms: C_3  and  C_4
REMARK    4  A    between atoms: C_4  and  C_5
REMARK    5  A    between atoms: C_5  and  C_6
REMARK    6  A    between atoms: C_6  and  C_7
REMARK    7  A    between atoms: C_7  and  C_8
REMARK    8  A    between atoms: C_8  and  C_9
REMARK    9  A    between atoms: C_9  and  C_10
REMARK   10  A    between atoms: C_10  and  C_11
REMARK   11  A    between atoms: C_11  and  C_12
REMARK   12  A    between atoms: C_12  and  C_13
REMARK   13  A    between atoms: C_13  and  C_14
REMARK   14  A    between atoms: C_14  and  C_15
REMARK   15  A    between atoms: C_15  and  C_17
REMARK   16  A    between atoms: C_17  and  C_19
REMARK                            x       y       z     vdW  Elec       q    Type
REMARK                         _______ _______ _______ _____ _____    ______ ____
ROOT
ATOM      1  C   UNL     1       2.364   3.669  17.143  0.00  0.00    +0.000 C 
ENDROOT
BRANCH   1   2
ATOM      2  C   UNL     1       2.610   2.580  18.175  0.00  0.00    +0.000 C 
BRANCH   2   3
ATOM      3  C   UNL     1       1.292   2.130  18.783  0.00  0.00    +0.000 C 
BRANCH   3   4
ATOM      4  C   UNL     1       1.131   2.708  20.179  0.00  0.00    +0.000 C 
BRANCH   4   5
ATOM      5  C   UNL     1       2.463   3.240  20.682  0.00  0.00    +0.000 C 
BRANCH   5   6
ATOM      6  C   UNL     1       2.248   4.502  21.501  0.00  0.00    +0.000 C 
BRANCH   6   7
ATOM      7  C   UNL     1       1.499   5.541  20.681  0.00  0.00    +0.000 C 
BRANCH   7   8
ATOM      8  C   UNL     1       2.441   6.220  19.699  0.00  0.00    +0.000 C 
BRANCH   8   9
ATOM      9  C   UNL     1       2.076   7.690  19.543  0.00  0.00    +0.000 C 
BRANCH   9  11
ATOM     10  C   UNL     1       1.692   9.499  17.856  0.00  0.00    +0.000 C 
ATOM     11  C   UNL     1       2.398   8.185  18.139  0.00  0.00    +0.000 C 
ENDBRANCH   9  11
ENDBRANCH   8   9
ENDBRANCH   7   8
ENDBRANCH   6   7
ENDBRANCH   5   6
ENDBRANCH   4   5
ENDBRANCH   3   4
ENDBRANCH   2   3
ENDBRANCH   1   2
BRANCH   1  12
ATOM     12  C   UNL     1       3.656   4.412  16.841  0.00  0.00    +0.000 C 
BRANCH  12  13
ATOM     13  C   UNL     1       4.775   3.944  17.764  0.00  0.00    +0.000 C 
BRANCH  13  14
ATOM     14  C   UNL     1       5.526   5.152  18.312  0.00  0.00    +0.000 C 
BRANCH  14  15
ATOM     15  C   UNL     1       6.331   5.862  17.234  0.00  0.00    +0.000 C 
ATOM     16  F   UNL     1       7.158   6.761  17.835  0.00  0.00    +0.000 F 
BRANCH  15  17
ATOM     17  C   UNL     1       7.121   4.876  16.402  0.00  0.00    +0.000 C 
ATOM     18  O   UNL     1       8.041   4.192  16.873  0.00  0.00    +0.000 OA
BRANCH  17  19
ATOM     19  C   UNL     1       6.663   4.768  14.968  0.00  0.00    +0.000 C 
ATOM     20  F   UNL     1       6.375   3.490  14.600  0.00  0.00    +0.000 F 
ATOM     21  F   UNL     1       5.551   5.505  14.715  0.00  0.00    +0.000 F 
ATOM     22  F   UNL     1       7.622   5.197  14.101  0.00  0.00    +0.000 F 
ENDBRANCH  17  19
ENDBRANCH  15  17
ENDBRANCH  14  15
ENDBRANCH  13  14
ENDBRANCH  12  13
ENDBRANCH   1  12
TORSDOF 15
ENDMDL
MODEL 3
REMARK VINA RESULT:      -5.8      1.505      3.596
REMARK  Name = 
REMARK  16 active torsions:
REMARK  status: ('A' for Active; 'I' for Inactive)
REMARK    1  A    between atoms: C_1  and  C_2
REMARK    2  A    between atoms: C_2  and  C_3
REMARK    3  A    between atoms: C_3  and  C_4
REMARK    4  A    between atoms: C_4  and  C_5
REMARK    5  A    between atoms: C_5  and  C_6
REMARK    6  A    between atoms: C_6  and  C_7
REMARK    7  A    between atoms: C_7  and  C_8
REMARK    8  A    between atoms: C_8  and  C_9
REMARK    9  A    between atoms: C_9  and  C_10
REMARK   10  A    between atoms: C_10  and  C_11
REMARK   11  A    between atoms: C_11  and  C_12
REMARK   12  A    between atoms: C_12  and  C_13
REMARK   13  A    between atoms: C_13  and  C_14
REMARK   14  A    between atoms: C_14  and  C_15
REMARK   15  A    between atoms: C_15  and  C_17
REMARK   16  A    between atoms: C_17  and  C_19
REMARK                            x       y       z     vdW  Elec       q    Type
REMARK                         _______ _______ _______ _____ _____    ______ ____
ROOT
ATOM      1  C   UNL     1       4.421   3.298  17.729  0.00  0.00    +0.000 C 
ENDROOT
BRANCH   1   2
ATOM      2  C   UNL     1       2.936   3.495  17.471  0.00  0.00    +0.000 C 
BRANCH   2   3
ATOM      3  C   UNL     1       2.151   2.312  18.014  0.00  0.00    +0.000 C 
BRANCH   3   4
ATOM      4  C   UNL     1       1.063   2.791  18.961  0.00  0.00    +0.000 C 
BRANCH   4   5
ATOM      5  C   UNL     1       1.370   2.341  20.380  0.00  0.00    +0.000 C 
BRANCH   5   6
ATOM      6  C   UNL     1       1.633   3.547  21.268  0.00  0.00    +0.000 C 
BRANCH   6   7
ATOM      7  C   UNL     1       1.303   4.830  20.523  0.00  0.00    +0.000 C 
BRANCH   7   8
ATOM      8  C   UNL     1       2.423   5.845  20.697  0.00  0.00    +0.000 C 
BRANCH   8   9
ATOM      9  C   UNL     1       2.146   7.090  19.865  0.00  0.00    +0.000 C 
BRANCH   9  11
ATOM     10  C   UNL     1       2.499   8.197  17.649  0.00  0.00    +0.000 C 
ATOM     11  C   UNL     1       2.619   6.901  18.430  0.00  0.00    +0.000 C 
ENDBRANCH   9  11
ENDBRANCH   8   9
ENDBRANCH   7   8
ENDBRANCH   6   7
ENDBRANCH   5   6
ENDBRANCH   4   5
ENDBRANCH   3   4
ENDBRANCH   2   3
ENDBRANCH   1   2
BRANCH   1  12
ATOM     12  C   UNL     1       4.803   3.873  19.084  0.00  0.00    +0.000 C 
BRANCH  12  13
ATOM     13  C   UNL     1       5.699   5.094  18.919  0.00  0.00    +0.000 C 
BRANCH  13  14
ATOM     14  C   UNL     1       6.594   4.912  17.699  0.00  0.00    +0.000 C 
BRANCH  14  15
ATOM     15  C   UNL     1       6.082   5.685  16.493  0.00  0.00    +0.000 C 
ATOM     16  F   UNL     1       6.280   7.013  16.715  0.00  0.00    +0.000 F 
BRANCH  15  17
ATOM     17  C   UNL     1       6.777   5.242  15.224  0.00  0.00    +0.000 C 
ATOM     18  O   UNL     1       7.855   5.726  14.850  0.00  0.00    +0.000 OA
BRANCH  17  19
ATOM     19  C   UNL     1       6.068   4.136  14.482  0.00  0.00    +0.000 C 
ATOM     20  F   UNL     1       6.073   2.956  15.162  0.00  0.00    +0.000 F 
ATOM     21  F   UNL     1       4.768   4.427  14.221  0.00  0.00    +0.000 F 
ATOM     22  F   UNL     1       6.659   3.876  13.283  0.00  0.00    +0.000 F 
ENDBRANCH  17  19
ENDBRANCH  15  17
ENDBRANCH  14  15
ENDBRANCH  13  14
ENDBRANCH  12  13
ENDBRANCH   1  12
TORSDOF 15
ENDMDL
MODEL 4
REMARK VINA RESULT:      -5.8      4.044      7.297
REMARK  Name = 
REMARK  16 active torsions:
REMARK  status: ('A' for Active; 'I' for Inactive)
REMARK    1  A    between atoms: C_1  and  C_2
REMARK    2  A    between atoms: C_2  and  C_3
REMARK    3  A    between atoms: C_3  and  C_4
REMARK    4  A    between atoms: C_4  and  C_5
REMARK    5  A    between atoms: C_5  and  C_6
REMARK    6  A    between atoms: C_6  and  C_7
REMARK    7  A    between atoms: C_7  and  C_8
REMARK    8  A    between atoms: C_8  and  C_9
REMARK    9  A    between atoms: C_9  and  C_10
REMARK   10  A    between atoms: C_10  and  C_11
REMARK   11  A    between atoms: C_11  and  C_12
REMARK   12  A    between atoms: C_12  and  C_13
REMARK   13  A    between atoms: C_13  and  C_14
REMARK   14  A    between atoms: C_14  and  C_15
REMARK   15  A    between atoms: C_15  and  C_17
REMARK   16  A    between atoms: C_17  and  C_19
REMARK                            x       y       z     vdW  Elec       q    Type
REMARK                         _______ _______ _______ _____ _____    ______ ____
ROOT
ATOM      1  C   UNL     1       2.271   5.741  18.168  0.00  0.00    +0.000 C 
ENDROOT
BRANCH   1   2
ATOM      2  C   UNL     1       3.604   6.438  18.390  0.00  0.00    +0.000 C 
BRANCH   2   3
ATOM      3  C   UNL     1       4.514   6.218  17.192  0.00  0.00    +0.000 C 
BRANCH   3   4
ATOM      4  C   UNL     1       5.971   6.285  17.617  0.00  0.00    +0.000 C 
BRANCH   4   5
ATOM      5  C   UNL     1       6.801   5.313  16.794  0.00  0.00    +0.000 C 
BRANCH   5   6
ATOM      6  C   UNL     1       5.893   4.389  15.999  0.00  0.00    +0.000 C 
BRANCH   6   7
ATOM      7  C   UNL     1       6.572   3.966  14.707  0.00  0.00    +0.000 C 
BRANCH   7   8
ATOM      8  C   UNL     1       5.565   3.929  13.567  0.00  0.00    +0.000 C 
BRANCH   8   9
ATOM      9  C   UNL     1       6.242   3.492  12.274  0.00  0.00    +0.000 C 
BRANCH   9  11
ATOM     10  C   UNL     1       6.378   1.233  11.207  0.00  0.00    +0.000 C 
ATOM     11  C   UNL     1       5.457   2.373  11.602  0.00  0.00    +0.000 C 
ENDBRANCH   9  11
ENDBRANCH   8   9
ENDBRANCH   7   8
ENDBRANCH   6   7
ENDBRANCH   5   6
ENDBRANCH   4   5
ENDBRANCH   3   4
ENDBRANCH   2   3
ENDBRANCH   1   2
BRANCH   1  12
ATOM     12  C   UNL     1       2.483   4.404  17.477  0.00  0.00    +0.000 C 
BRANCH  12  13
ATOM     13  C   UNL     1       1.411   3.405  17.896  0.00  0.00    +0.000 C 
BRANCH  13  14
ATOM     14  C   UNL     1       1.056   3.619  19.362  0.00  0.00    +0.000 C 
BRANCH  14  15
ATOM     15  C   UNL     1       1.446   2.429  20.225  0.00  0.00    +0.000 C 
ATOM     16  F   UNL     1       1.618   1.347  19.416  0.00  0.00    +0.000 F 
BRANCH  15  17
ATOM     17  C   UNL     1       2.704   2.714  21.015  0.00  0.00    +0.000 C 
ATOM     18  O   UNL     1       2.680   3.094  22.195  0.00  0.00    +0.000 OA
BRANCH  17  19
ATOM     19  C   UNL     1       3.984   2.457  20.258  0.00  0.00    +0.000 C 
ATOM     20  F   UNL     1       4.902   1.770  20.992  0.00  0.00    +0.000 F 
ATOM     21  F   UNL     1       3.786   1.745  19.119  0.00  0.00    +0.000 F 
ATOM     22  F   UNL     1       4.595   3.618  19.892  0.00  0.00    +0.000 F 
ENDBRANCH  17  19
ENDBRANCH  15  17
ENDBRANCH  14  15
ENDBRANCH  13  14
ENDBRANCH  12  13
ENDBRANCH   1  12
TORSDOF 15
ENDMDL
MODEL 5
REMARK VINA RESULT:      -5.8      4.019      7.135
REMARK  Name = 
REMARK  16 active torsions:
REMARK  status: ('A' for Active; 'I' for Inactive)
REMARK    1  A    between atoms: C_1  and  C_2
REMARK    2  A    between atoms: C_2  and  C_3
REMARK    3  A    between atoms: C_3  and  C_4
REMARK    4  A    between atoms: C_4  and  C_5
REMARK    5  A    between atoms: C_5  and  C_6
REMARK    6  A    between atoms: C_6  and  C_7
REMARK    7  A    between atoms: C_7  and  C_8
REMARK    8  A    between atoms: C_8  and  C_9
REMARK    9  A    between atoms: C_9  and  C_10
REMARK   10  A    between atoms: C_10  and  C_11
REMARK   11  A    between atoms: C_11  and  C_12
REMARK   12  A    between atoms: C_12  and  C_13
REMARK   13  A    between atoms: C_13  and  C_14
REMARK   14  A    between atoms: C_14  and  C_15
REMARK   15  A    between atoms: C_15  and  C_17
REMARK   16  A    between atoms: C_17  and  C_19
REMARK                            x       y       z     vdW  Elec       q    Type
REMARK                         _______ _______ _______ _____ _____    ______ ____
ROOT
ATOM      1  C   UNL     1       2.586   6.371  18.205  0.00  0.00    +0.000 C 
ENDROOT
BRANCH   1   2
ATOM      2  C   UNL     1       3.566   7.408  17.678  0.00  0.00    +0.000 C 
BRANCH   2   3
ATOM      3  C   UNL     1       4.945   6.790  17.520  0.00  0.00    +0.000 C 
BRANCH   3   4
ATOM      4  C   UNL     1       4.967   5.845  16.330  0.00  0.00    +0.000 C 
BRANCH   4   5
ATOM      5  C   UNL     1       6.062   4.806  16.508  0.00  0.00    +0.000 C 
BRANCH   5   6
ATOM      6  C   UNL     1       5.858   3.657  15.533  0.00  0.00    +0.000 C 
BRANCH   6   7
ATOM      7  C   UNL     1       5.500   4.192  14.156  0.00  0.00    +0.000 C 
BRANCH   7   8
ATOM      8  C   UNL     1       6.515   3.720  13.125  0.00  0.00    +0.000 C 
BRANCH   8   9
ATOM      9  C   UNL     1       5.805   3.177  11.892  0.00  0.00    +0.000 C 
BRANCH   9  11
ATOM     10  C   UNL     1       3.640   3.068  10.641  0.00  0.00    +0.000 C 
ATOM     11  C   UNL     1       4.330   3.557  11.902  0.00  0.00    +0.000 C 
ENDBRANCH   9  11
ENDBRANCH   8   9
ENDBRANCH   7   8
ENDBRANCH   6   7
ENDBRANCH   5   6
ENDBRANCH   4   5
ENDBRANCH   3   4
ENDBRANCH   2   3
ENDBRANCH   1   2
BRANCH   1  12
ATOM     12  C   UNL     1       2.247   6.656  19.659  0.00  0.00    +0.000 C 
BRANCH  12  13
ATOM     13  C   UNL     1       2.067   5.357  20.435  0.00  0.00    +0.000 C 
BRANCH  13  14
ATOM     14  C   UNL     1       1.578   4.262  19.495  0.00  0.00    +0.000 C 
BRANCH  14  15
ATOM     15  C   UNL     1       1.525   2.904  20.177  0.00  0.00    +0.000 C 
ATOM     16  F   UNL     1       1.144   1.974  19.259  0.00  0.00    +0.000 F 
BRANCH  15  17
ATOM     17  C   UNL     1       2.863   2.544  20.784  0.00  0.00    +0.000 C 
ATOM     18  O   UNL     1       3.014   2.346  21.998  0.00  0.00    +0.000 OA
BRANCH  17  19
ATOM     19  C   UNL     1       3.982   2.406  19.781  0.00  0.00    +0.000 C 
ATOM     20  F   UNL     1       4.924   1.500  20.162  0.00  0.00    +0.000 F 
ATOM     21  F   UNL     1       3.544   2.017  18.555  0.00  0.00    +0.000 F 
ATOM     22  F   UNL     1       4.647   3.581  19.603  0.00  0.00    +0.000 F 
ENDBRANCH  17  19
ENDBRANCH  15  17
ENDBRANCH  14  15
ENDBRANCH  13  14
ENDBRANCH  12  13
ENDBRANCH   1  12
TORSDOF 15
ENDMDL
MODEL 6
REMARK VINA RESULT:      -5.8      2.409      4.935
REMARK  Name = 
REMARK  16 active torsions:
REMARK  status: ('A' for Active; 'I' for Inactive)
REMARK    1  A    between atoms: C_1  and  C_2
REMARK    2  A    between atoms: C_2  and  C_3
REMARK    3  A    between atoms: C_3  and  C_4
REMARK    4  A    between atoms: C_4  and  C_5
REMARK    5  A    between atoms: C_5  and  C_6
REMARK    6  A    between atoms: C_6  and  C_7
REMARK    7  A    between atoms: C_7  and  C_8
REMARK    8  A    between atoms: C_8  and  C_9
REMARK    9  A    between atoms: C_9  and  C_10
REMARK   10  A    between atoms: C_10  and  C_11
REMARK   11  A    between atoms: C_11  and  C_12
REMARK   12  A    between atoms: C_12  and  C_13
REMARK   13  A    between atoms: C_13  and  C_14
REMARK   14  A    between atoms: C_14  and  C_15
REMARK   15  A    between atoms: C_15  and  C_17
REMARK   16  A    between atoms: C_17  and  C_19
REMARK                            x       y       z     vdW  Elec       q    Type
REMARK                         _______ _______ _______ _____ _____    ______ ____
ROOT
ATOM      1  C   UNL     1       1.812   2.638  18.261  0.00  0.00    +0.000 C 
ENDROOT
BRANCH   1   2
ATOM      2  C   UNL     1       1.535   1.939  19.583  0.00  0.00    +0.000 C 
BRANCH   2   3
ATOM      3  C   UNL     1       1.471   2.958  20.709  0.00  0.00    +0.000 C 
BRANCH   3   4
ATOM      4  C   UNL     1       0.976   4.295  20.182  0.00  0.00    +0.000 C 
BRANCH   4   5
ATOM      5  C   UNL     1       1.829   5.424  20.737  0.00  0.00    +0.000 C 
BRANCH   5   6
ATOM      6  C   UNL     1       3.047   5.644  19.854  0.00  0.00    +0.000 C 
BRANCH   6   7
ATOM      7  C   UNL     1       2.643   6.333  18.561  0.00  0.00    +0.000 C 
BRANCH   7   8
ATOM      8  C   UNL     1       2.068   7.711  18.854  0.00  0.00    +0.000 C 
BRANCH   8   9
ATOM      9  C   UNL     1       2.441   8.688  17.747  0.00  0.00    +0.000 C 
BRANCH   9  11
ATOM     10  C   UNL     1       0.403   9.902  18.544  0.00  0.00    +0.000 C 
ATOM     11  C   UNL     1       1.808  10.052  17.990  0.00  0.00    +0.000 C 
ENDBRANCH   9  11
ENDBRANCH   8   9
ENDBRANCH   7   8
ENDBRANCH   6   7
ENDBRANCH   5   6
ENDBRANCH   4   5
ENDBRANCH   3   4
ENDBRANCH   2   3
ENDBRANCH   1   2
BRANCH   1  12
ATOM     12  C   UNL     1       3.105   2.121  17.651  0.00  0.00    +0.000 C 
BRANCH  12  13
ATOM     13  C   UNL     1       4.237   3.120  17.860  0.00  0.00    +0.000 C 
BRANCH  13  14
ATOM     14  C   UNL     1       4.464   3.911  16.577  0.00  0.00    +0.000 C 
BRANCH  14  15
ATOM     15  C   UNL     1       5.933   3.962  16.188  0.00  0.00    +0.000 C 
ATOM     16  F   UNL     1       6.112   3.200  15.074  0.00  0.00    +0.000 F 
BRANCH  15  17
ATOM     17  C   UNL     1       6.386   5.384  15.946  0.00  0.00    +0.000 C 
ATOM     18  O   UNL     1       6.441   5.883  14.812  0.00  0.00    +0.000 OA
BRANCH  17  19
ATOM     19  C   UNL     1       6.721   6.151  17.201  0.00  0.00    +0.000 C 
ATOM     20  F   UNL     1       6.994   5.340  18.259  0.00  0.00    +0.000 F 
ATOM     21  F   UNL     1       7.798   6.965  17.048  0.00  0.00    +0.000 F 
ATOM     22  F   UNL     1       5.686   6.943  17.598  0.00  0.00    +0.000 F 
ENDBRANCH  17  19
ENDBRANCH  15  17
ENDBRANCH  14  15
ENDBRANCH  13  14
ENDBRANCH  12  13
ENDBRANCH   1  12
TORSDOF 15
ENDMDL
MODEL 7
REMARK VINA RESULT:      -5.7      2.978      6.437
REMARK  Name = 
REMARK  16 active torsions:
REMARK  status: ('A' for Active; 'I' for Inactive)
REMARK    1  A    between atoms: C_1  and  C_2
REMARK    2  A    between atoms: C_2  and  C_3
REMARK    3  A    between atoms: C_3  and  C_4
REMARK    4  A    between atoms: C_4  and  C_5
REMARK    5  A    between atoms: C_5  and  C_6
REMARK    6  A    between atoms: C_6  and  C_7
REMARK    7  A    between atoms: C_7  and  C_8
REMARK    8  A    between atoms: C_8  and  C_9
REMARK    9  A    between atoms: C_9  and  C_10
REMARK   10  A    between atoms: C_10  and  C_11
REMARK   11  A    between atoms: C_11  and  C_12
REMARK   12  A    between atoms: C_12  and  C_13
REMARK   13  A    between atoms: C_13  and  C_14
REMARK   14  A    between atoms: C_14  and  C_15
REMARK   15  A    between atoms: C_15  and  C_17
REMARK   16  A    between atoms: C_17  and  C_19
REMARK                            x       y       z     vdW  Elec       q    Type
REMARK                         _______ _______ _______ _____ _____    ______ ____
ROOT
ATOM      1  C   UNL     1       2.088   5.797  19.595  0.00  0.00    +0.000 C 
ENDROOT
BRANCH   1   2
ATOM      2  C   UNL     1       3.138   6.855  19.294  0.00  0.00    +0.000 C 
BRANCH   2   3
ATOM      3  C   UNL     1       3.308   7.009  17.791  0.00  0.00    +0.000 C 
BRANCH   3   4
ATOM      4  C   UNL     1       4.256   5.949  17.257  0.00  0.00    +0.000 C 
BRANCH   4   5
ATOM      5  C   UNL     1       5.673   6.497  17.197  0.00  0.00    +0.000 C 
BRANCH   5   6
ATOM      6  C   UNL     1       6.615   5.603  17.988  0.00  0.00    +0.000 C 
BRANCH   6   7
ATOM      7  C   UNL     1       7.329   4.637  17.057  0.00  0.00    +0.000 C 
BRANCH   7   8
ATOM      8  C   UNL     1       6.949   4.917  15.611  0.00  0.00    +0.000 C 
BRANCH   8   9
ATOM      9  C   UNL     1       6.350   3.673  14.968  0.00  0.00    +0.000 C 
BRANCH   9  11
ATOM     10  C   UNL     1       6.646   3.993  12.504  0.00  0.00    +0.000 C 
ATOM     11  C   UNL     1       5.658   4.018  13.656  0.00  0.00    +0.000 C 
ENDBRANCH   9  11
ENDBRANCH   8   9
ENDBRANCH   7   8
ENDBRANCH   6   7
ENDBRANCH   5   6
ENDBRANCH   4   5
ENDBRANCH   3   4
ENDBRANCH   2   3
ENDBRANCH   1   2
BRANCH   1  12
ATOM     12  C   UNL     1       2.492   4.986  20.815  0.00  0.00    +0.000 C 
BRANCH  12  13
ATOM     13  C   UNL     1       1.530   3.824  21.032  0.00  0.00    +0.000 C 
BRANCH  13  14
ATOM     14  C   UNL     1       0.750   3.558  19.750  0.00  0.00    +0.000 C 
BRANCH  14  15
ATOM     15  C   UNL     1       1.264   2.332  19.011  0.00  0.00    +0.000 C 
ATOM     16  F   UNL     1       0.201   1.683  18.460  0.00  0.00    +0.000 F 
BRANCH  15  17
ATOM     17  C   UNL     1       2.269   2.715  17.948  0.00  0.00    +0.000 C 
ATOM     18  O   UNL     1       1.958   3.358  16.934  0.00  0.00    +0.000 OA
BRANCH  17  19
ATOM     19  C   UNL     1       3.684   2.288  18.250  0.00  0.00    +0.000 C 
ATOM     20  F   UNL     1       4.556   2.602  17.253  0.00  0.00    +0.000 F 
ATOM     21  F   UNL     1       4.173   2.852  19.384  0.00  0.00    +0.000 F 
ATOM     22  F   UNL     1       3.778   0.938  18.413  0.00  0.00    +0.000 F 
ENDBRANCH  17  19
ENDBRANCH  15  17
ENDBRANCH  14  15
ENDBRANCH  13  14
ENDBRANCH  12  13
ENDBRANCH   1  12
TORSDOF 15
ENDMDL
MODEL 8
REMARK VINA RESULT:      -5.6      3.939      7.387
REMARK  Name = 
REMARK  16 active torsions:
REMARK  status: ('A' for Active; 'I' for Inactive)
REMARK    1  A    between atoms: C_1  and  C_2
REMARK    2  A    between atoms: C_2  and  C_3
REMARK    3  A    between atoms: C_3  and  C_4
REMARK    4  A    between atoms: C_4  and  C_5
REMARK    5  A    between atoms: C_5  and  C_6
REMARK    6  A    between atoms: C_6  and  C_7
REMARK    7  A    between atoms: C_7  and  C_8
REMARK    8  A    between atoms: C_8  and  C_9
REMARK    9  A    between atoms: C_9  and  C_10
REMARK   10  A    between atoms: C_10  and  C_11
REMARK   11  A    between atoms: C_11  and  C_12
REMARK   12  A    between atoms: C_12  and  C_13
REMARK   13  A    between atoms: C_13  and  C_14
REMARK   14  A    between atoms: C_14  and  C_15
REMARK   15  A    between atoms: C_15  and  C_17
REMARK   16  A    between atoms: C_17  and  C_19
REMARK                            x       y       z     vdW  Elec       q    Type
REMARK                         _______ _______ _______ _____ _____    ______ ____
ROOT
ATOM      1  C   UNL     1       2.083   4.583  17.694  0.00  0.00    +0.000 C 
ENDROOT
BRANCH   1   2
ATOM      2  C   UNL     1       3.250   3.999  16.914  0.00  0.00    +0.000 C 
BRANCH   2   3
ATOM      3  C   UNL     1       4.305   5.067  16.675  0.00  0.00    +0.000 C 
BRANCH   3   4
ATOM      4  C   UNL     1       5.687   4.526  17.005  0.00  0.00    +0.000 C 
BRANCH   4   5
ATOM      5  C   UNL     1       6.303   3.882  15.774  0.00  0.00    +0.000 C 
BRANCH   5   6
ATOM      6  C   UNL     1       6.225   4.832  14.590  0.00  0.00    +0.000 C 
BRANCH   6   7
ATOM      7  C   UNL     1       6.387   4.065  13.287  0.00  0.00    +0.000 C 
BRANCH   7   8
ATOM      8  C   UNL     1       5.113   3.298  12.964  0.00  0.00    +0.000 C 
BRANCH   8   9
ATOM      9  C   UNL     1       4.878   3.267  11.460  0.00  0.00    +0.000 C 
BRANCH   9  11
ATOM     10  C   UNL     1       3.219   3.852   9.680  0.00  0.00    +0.000 C 
ATOM     11  C   UNL     1       3.403   3.464  11.136  0.00  0.00    +0.000 C 
ENDBRANCH   9  11
ENDBRANCH   8   9
ENDBRANCH   7   8
ENDBRANCH   6   7
ENDBRANCH   5   6
ENDBRANCH   4   5
ENDBRANCH   3   4
ENDBRANCH   2   3
ENDBRANCH   1   2
BRANCH   1  12
ATOM     12  C   UNL     1       2.490   5.892  18.350  0.00  0.00    +0.000 C 
BRANCH  12  13
ATOM     13  C   UNL     1       2.323   5.812  19.863  0.00  0.00    +0.000 C 
BRANCH  13  14
ATOM     14  C   UNL     1       1.412   4.643  20.216  0.00  0.00    +0.000 C 
BRANCH  14  15
ATOM     15  C   UNL     1       2.135   3.579  21.028  0.00  0.00    +0.000 C 
ATOM     16  F   UNL     1       1.287   3.118  21.988  0.00  0.00    +0.000 F 
BRANCH  15  17
ATOM     17  C   UNL     1       2.612   2.448  20.144  0.00  0.00    +0.000 C 
ATOM     18  O   UNL     1       1.832   1.713  19.520  0.00  0.00    +0.000 OA
BRANCH  17  19
ATOM     19  C   UNL     1       4.113   2.321  20.054  0.00  0.00    +0.000 C 
ATOM     20  F   UNL     1       4.671   1.829  21.194  0.00  0.00    +0.000 F 
ATOM     21  F   UNL     1       4.512   1.507  19.043  0.00  0.00    +0.000 F 
ATOM     22  F   UNL     1       4.707   3.528  19.841  0.00  0.00    +0.000 F 
ENDBRANCH  17  19
ENDBRANCH  15  17
ENDBRANCH  14  15
ENDBRANCH  13  14
ENDBRANCH  12  13
ENDBRANCH   1  12
TORSDOF 15
ENDMDL
MODEL 9
REMARK VINA RESULT:      -5.6      1.765      3.814
REMARK  Name = 
REMARK  16 active torsions:
REMARK  status: ('A' for Active; 'I' for Inactive)
REMARK    1  A    between atoms: C_1  and  C_2
REMARK    2  A    between atoms: C_2  and  C_3
REMARK    3  A    between atoms: C_3  and  C_4
REMARK    4  A    between atoms: C_4  and  C_5
REMARK    5  A    between atoms: C_5  and  C_6
REMARK    6  A    between atoms: C_6  and  C_7
REMARK    7  A    between atoms: C_7  and  C_8
REMARK    8  A    between atoms: C_8  and  C_9
REMARK    9  A    between atoms: C_9  and  C_10
REMARK   10  A    between atoms: C_10  and  C_11
REMARK   11  A    between atoms: C_11  and  C_12
REMARK   12  A    between atoms: C_12  and  C_13
REMARK   13  A    between atoms: C_13  and  C_14
REMARK   14  A    between atoms: C_14  and  C_15
REMARK   15  A    between atoms: C_15  and  C_17
REMARK   16  A    between atoms: C_17  and  C_19
REMARK                            x       y       z     vdW  Elec       q    Type
REMARK                         _______ _______ _______ _____ _____    ______ ____
ROOT
ATOM      1  C   UNL     1       4.283   3.748  18.160  0.00  0.00    +0.000 C 
ENDROOT
BRANCH   1   2
ATOM      2  C   UNL     1       3.775   2.315  18.187  0.00  0.00    +0.000 C 
BRANCH   2   3
ATOM      3  C   UNL     1       2.374   2.247  17.601  0.00  0.00    +0.000 C 
BRANCH   3   4
ATOM      4  C   UNL     1       1.360   1.944  18.691  0.00  0.00    +0.000 C 
BRANCH   4   5
ATOM      5  C   UNL     1       0.782   3.237  19.242  0.00  0.00    +0.000 C 
BRANCH   5   6
ATOM      6  C   UNL     1       1.531   3.654  20.498  0.00  0.00    +0.000 C 
BRANCH   6   7
ATOM      7  C   UNL     1       1.283   5.123  20.796  0.00  0.00    +0.000 C 
BRANCH   7   8
ATOM      8  C   UNL     1       2.510   5.950  20.439  0.00  0.00    +0.000 C 
BRANCH   8   9
ATOM      9  C   UNL     1       2.096   7.251  19.765  0.00  0.00    +0.000 C 
BRANCH   9  11
ATOM     10  C   UNL     1       2.808   8.329  17.621  0.00  0.00    +0.000 C 
ATOM     11  C   UNL     1       2.142   7.117  18.248  0.00  0.00    +0.000 C 
ENDBRANCH   9  11
ENDBRANCH   8   9
ENDBRANCH   7   8
ENDBRANCH   6   7
ENDBRANCH   5   6
ENDBRANCH   4   5
ENDBRANCH   3   4
ENDBRANCH   2   3
ENDBRANCH   1   2
BRANCH   1  12
ATOM     12  C   UNL     1       5.075   4.051  19.422  0.00  0.00    +0.000 C 
BRANCH  12  13
ATOM     13  C   UNL     1       6.169   5.073  19.139  0.00  0.00    +0.000 C 
BRANCH  13  14
ATOM     14  C   UNL     1       5.665   6.096  18.129  0.00  0.00    +0.000 C 
BRANCH  14  15
ATOM     15  C   UNL     1       6.719   6.439  17.087  0.00  0.00    +0.000 C 
ATOM     16  F   UNL     1       7.883   6.732  17.730  0.00  0.00    +0.000 F 
BRANCH  15  17
ATOM     17  C   UNL     1       6.915   5.300  16.112  0.00  0.00    +0.000 C 
ATOM     18  O   UNL     1       7.855   4.497  16.203  0.00  0.00    +0.000 OA
BRANCH  17  19
ATOM     19  C   UNL     1       5.847   5.202  15.050  0.00  0.00    +0.000 C 
ATOM     20  F   UNL     1       5.023   6.285  15.027  0.00  0.00    +0.000 F 
ATOM     21  F   UNL     1       6.360   5.079  13.799  0.00  0.00    +0.000 F 
ATOM     22  F   UNL     1       5.038   4.124  15.249  0.00  0.00    +0.000 F 
ENDBRANCH  17  19
ENDBRANCH  15  17
ENDBRANCH  14  15
ENDBRANCH  13  14
ENDBRANCH  12  13
ENDBRANCH   1  12
TORSDOF 15
ENDMDL
