MODEL 1
REMARK VINA RESULT:      -8.1      0.000      0.000
REMARK  Name = 
REMARK  7 active torsions:
REMARK  status: ('A' for Active; 'I' for Inactive)
REMARK    1  A    between atoms: C_2  and  C_3
REMARK    2  A    between atoms: C_14  and  C_16
REMARK    3  A    between atoms: C_16  and  N_17
REMARK    4  A    between atoms: N_17  and  C_18
REMARK    5  A    between atoms: C_18  and  C_19
REMARK    6  A    between atoms: C_19  and  O_20
REMARK    7  A    between atoms: O_20  and  C_21
REMARK                            x       y       z     vdW  Elec       q    Type
REMARK                         _______ _______ _______ _____ _____    ______ ____
ROOT
ATOM      1  O   UNL     1       8.067   4.155  17.089  0.00  0.00    +0.000 OA
ATOM      2  C   UNL     1       7.008   4.460  16.542  0.00  0.00    +0.000 C 
ATOM      3  N   UNL     1       5.825   4.689  17.258  0.00  0.00    +0.000 N 
ATOM      4  C   UNL     1       4.519   5.030  16.677  0.00  0.00    +0.000 C 
ATOM      5  C   UNL     1       3.363   4.356  17.388  0.00  0.00    +0.000 C 
ATOM      6  C   UNL     1       3.408   4.591  18.896  0.00  0.00    +0.000 C 
ATOM      7  F   UNL     1       2.435   3.818  19.473  0.00  0.00    +0.000 F 
ATOM      8  C   UNL     1       4.761   4.112  19.429  0.00  0.00    +0.000 C 
ATOM      9  C   UNL     1       5.928   4.788  18.717  0.00  0.00    +0.000 C 
ENDROOT
BRANCH   2  10
ATOM     10  C   UNL     1       7.026   4.536  15.056  0.00  0.00    +0.000 A 
ATOM     11  C   UNL     1       7.854   5.493  14.450  0.00  0.00    +0.000 A 
ATOM     12  C   UNL     1       7.936   5.569  13.057  0.00  0.00    +0.000 A 
ATOM     13  C   UNL     1       7.202   4.683  12.276  0.00  0.00    +0.000 A 
ATOM     14  F   UNL     1       7.333   4.735  10.942  0.00  0.00    +0.000 F 
ATOM     15  C   UNL     1       6.349   3.757  12.871  0.00  0.00    +0.000 A 
ATOM     16 CL   UNL     1       5.475   2.621  11.917  0.00  0.00    +0.000 Cl
ATOM     17  C   UNL     1       6.221   3.718  14.258  0.00  0.00    +0.000 A 
ENDBRANCH   2  10
BRANCH   6  18
ATOM     18  C   UNL     1       3.129   6.060  19.304  0.00  0.00    +0.000 C 
BRANCH  18  19
ATOM     19  N   UNL     1       2.102   6.705  18.468  0.00  0.00    +0.000 NA
ATOM     20  H   UNL     1       1.213   6.673  18.977  0.00  0.00    +0.000 HD
BRANCH  19  21
ATOM     21  C   UNL     1       2.432   8.107  18.164  0.00  0.00    +0.000 C 
BRANCH  21  22
ATOM     22  C   UNL     1       1.590   9.104  18.975  0.00  0.00    +0.000 C 
BRANCH  22  23
ATOM     23  O   UNL     1       1.341   8.601  20.291  0.00  0.00    +0.000 OA
BRANCH  23  24
ATOM     24  C   UNL     1       0.529   9.410  21.048  0.00  0.00    +0.000 A 
ATOM     25  C   UNL     1       0.228   9.198  22.397  0.00  0.00    +0.000 A 
ATOM     26  C   UNL     1      -0.600  10.089  23.083  0.00  0.00    +0.000 A 
ATOM     27  C   UNL     1      -1.123  11.196  22.423  0.00  0.00    +0.000 A 
ATOM     28 CL   UNL     1      -2.138  12.294  23.272  0.00  0.00    +0.000 Cl
ATOM     29  C   UNL     1      -0.821  11.422  21.080  0.00  0.00    +0.000 A 
ATOM     30  C   UNL     1       0.011  10.531  20.397  0.00  0.00    +0.000 A 
ENDBRANCH  23  24
ENDBRANCH  22  23
ENDBRANCH  21  22
ENDBRANCH  19  21
ENDBRANCH  18  19
ENDBRANCH   6  18
TORSDOF 7
ENDMDL
MODEL 2
REMARK VINA RESULT:      -7.9      1.520      1.816
REMARK  Name = 
REMARK  7 active torsions:
REMARK  status: ('A' for Active; 'I' for Inactive)
REMARK    1  A    between atoms: C_2  and  C_3
REMARK    2  A    between atoms: C_14  and  C_16
REMARK    3  A    between atoms: C_16  and  N_17
REMARK    4  A    between atoms: N_17  and  C_18
REMARK    5  A    between atoms: C_18  and  C_19
REMARK    6  A    between atoms: C_19  and  O_20
REMARK    7  A    between atoms: O_20  and  C_21
REMARK                            x       y       z     vdW  Elec       q    Type
REMARK                         _______ _______ _______ _____ _____    ______ ____
ROOT
ATOM      1  O   UNL     1       8.076   4.147  17.017  0.00  0.00    +0.000 OA
ATOM      2  C   UNL     1       7.023   4.491  16.479  0.00  0.00    +0.000 C 
ATOM      3  N   UNL     1       5.859   4.773  17.208  0.00  0.00    +0.000 N 
ATOM      4  C   UNL     1       4.561   5.164  16.639  0.00  0.00    +0.000 C 
ATOM      5  C   UNL     1       3.387   4.541  17.368  0.00  0.00    +0.000 C 
ATOM      6  C   UNL     1       3.459   4.784  18.873  0.00  0.00    +0.000 C 
ATOM      7  F   UNL     1       2.462   4.056  19.466  0.00  0.00    +0.000 F 
ATOM      8  C   UNL     1       4.797   4.254  19.394  0.00  0.00    +0.000 C 
ATOM      9  C   UNL     1       5.983   4.877  18.664  0.00  0.00    +0.000 C 
ENDROOT
BRANCH   2  10
ATOM     10  C   UNL     1       7.027   4.557  14.993  0.00  0.00    +0.000 A 
ATOM     11  C   UNL     1       7.884   5.478  14.371  0.00  0.00    +0.000 A 
ATOM     12  C   UNL     1       7.953   5.542  12.976  0.00  0.00    +0.000 A 
ATOM     13  C   UNL     1       7.177   4.678  12.211  0.00  0.00    +0.000 A 
ATOM     14  F   UNL     1       7.295   4.717  10.875  0.00  0.00    +0.000 F 
ATOM     15  C   UNL     1       6.297   3.789  12.821  0.00  0.00    +0.000 A 
ATOM     16 CL   UNL     1       5.370   2.680  11.885  0.00  0.00    +0.000 Cl
ATOM     17  C   UNL     1       6.183   3.764  14.210  0.00  0.00    +0.000 A 
ENDBRANCH   2  10
BRANCH   6  18
ATOM     18  C   UNL     1       3.244   6.266  19.274  0.00  0.00    +0.000 C 
BRANCH  18  19
ATOM     19  N   UNL     1       2.131   6.904  18.550  0.00  0.00    +0.000 NA
ATOM     20  H   UNL     1       1.386   7.101  19.226  0.00  0.00    +0.000 HD
BRANCH  19  21
ATOM     21  C   UNL     1       2.537   8.159  17.899  0.00  0.00    +0.000 C 
BRANCH  21  22
ATOM     22  C   UNL     1       1.709   9.366  18.370  0.00  0.00    +0.000 C 
BRANCH  22  23
ATOM     23  O   UNL     1       0.494   9.468  17.621  0.00  0.00    +0.000 OA
BRANCH  23  24
ATOM     24  C   UNL     1      -0.463  10.246  18.223  0.00  0.00    +0.000 A 
ATOM     25  C   UNL     1      -0.241  11.063  19.337  0.00  0.00    +0.000 A 
ATOM     26  C   UNL     1      -1.281  11.829  19.869  0.00  0.00    +0.000 A 
ATOM     27  C   UNL     1      -2.542  11.784  19.283  0.00  0.00    +0.000 A 
ATOM     28 CL   UNL     1      -3.819  12.733  19.936  0.00  0.00    +0.000 Cl
ATOM     29  C   UNL     1      -2.772  10.981  18.166  0.00  0.00    +0.000 A 
ATOM     30  C   UNL     1      -1.728  10.218  17.634  0.00  0.00    +0.000 A 
ENDBRANCH  23  24
ENDBRANCH  22  23
ENDBRANCH  21  22
ENDBRANCH  19  21
ENDBRANCH  18  19
ENDBRANCH   6  18
TORSDOF 7
ENDMDL
MODEL 3
REMARK VINA RESULT:      -7.8      1.800      2.061
REMARK  Name = 
REMARK  7 active torsions:
REMARK  status: ('A' for Active; 'I' for Inactive)
REMARK    1  A    between atoms: C_2  and  C_3
REMARK    2  A    between atoms: C_14  and  C_16
REMARK    3  A    between atoms: C_16  and  N_17
REMARK    4  A    between atoms: N_17  and  C_18
REMARK    5  A    between atoms: C_18  and  C_19
REMARK    6  A    between atoms: C_19  and  O_20
REMARK    7  A    between atoms: O_20  and  C_21
REMARK                            x       y       z     vdW  Elec       q    Type
REMARK                         _______ _______ _______ _____ _____    ______ ____
ROOT
ATOM      1  O   UNL     1       8.117   4.102  17.015  0.00  0.00    +0.000 OA
ATOM      2  C   UNL     1       7.061   4.445  16.484  0.00  0.00    +0.000 C 
ATOM      3  N   UNL     1       5.894   4.702  17.217  0.00  0.00    +0.000 N 
ATOM      4  C   UNL     1       4.593   5.090  16.656  0.00  0.00    +0.000 C 
ATOM      5  C   UNL     1       3.425   4.442  17.373  0.00  0.00    +0.000 C 
ATOM      6  C   UNL     1       3.495   4.659  18.883  0.00  0.00    +0.000 C 
ATOM      7  F   UNL     1       2.505   3.909  19.463  0.00  0.00    +0.000 F 
ATOM      8  C   UNL     1       4.838   4.133  19.394  0.00  0.00    +0.000 C 
ATOM      9  C   UNL     1       6.018   4.781  18.675  0.00  0.00    +0.000 C 
ENDROOT
BRANCH   2  10
ATOM     10  C   UNL     1       7.064   4.538  14.999  0.00  0.00    +0.000 A 
ATOM     11  C   UNL     1       7.931   5.460  14.393  0.00  0.00    +0.000 A 
ATOM     12  C   UNL     1       7.999   5.549  12.999  0.00  0.00    +0.000 A 
ATOM     13  C   UNL     1       7.212   4.708  12.219  0.00  0.00    +0.000 A 
ATOM     14  F   UNL     1       7.329   4.770  10.884  0.00  0.00    +0.000 F 
ATOM     15  C   UNL     1       6.322   3.819  12.814  0.00  0.00    +0.000 A 
ATOM     16 CL   UNL     1       5.381   2.738  11.860  0.00  0.00    +0.000 Cl
ATOM     17  C   UNL     1       6.209   3.770  14.202  0.00  0.00    +0.000 A 
ENDBRANCH   2  10
BRANCH   6  18
ATOM     18  C   UNL     1       3.265   6.131  19.310  0.00  0.00    +0.000 C 
BRANCH  18  19
ATOM     19  N   UNL     1       2.413   6.878  18.370  0.00  0.00    +0.000 NA
ATOM     20  H   UNL     1       1.565   6.326  18.204  0.00  0.00    +0.000 HD
BRANCH  19  21
ATOM     21  C   UNL     1       2.033   8.200  18.893  0.00  0.00    +0.000 C 
BRANCH  21  22
ATOM     22  C   UNL     1       1.675   9.198  17.780  0.00  0.00    +0.000 C 
BRANCH  22  23
ATOM     23  O   UNL     1       1.370  10.482  18.332  0.00  0.00    +0.000 OA
BRANCH  23  24
ATOM     24  C   UNL     1       0.025  10.756  18.383  0.00  0.00    +0.000 A 
ATOM     25  C   UNL     1      -0.957  10.068  17.663  0.00  0.00    +0.000 A 
ATOM     26  C   UNL     1      -2.303  10.416  17.795  0.00  0.00    +0.000 A 
ATOM     27  C   UNL     1      -2.669  11.449  18.651  0.00  0.00    +0.000 A 
ATOM     28 CL   UNL     1      -4.328  11.872  18.816  0.00  0.00    +0.000 Cl
ATOM     29  C   UNL     1      -1.700  12.136  19.381  0.00  0.00    +0.000 A 
ATOM     30  C   UNL     1      -0.353  11.783  19.250  0.00  0.00    +0.000 A 
ENDBRANCH  23  24
ENDBRANCH  22  23
ENDBRANCH  21  22
ENDBRANCH  19  21
ENDBRANCH  18  19
ENDBRANCH   6  18
TORSDOF 7
ENDMDL
MODEL 4
REMARK VINA RESULT:      -7.7      2.073      9.628
REMARK  Name = 
REMARK  7 active torsions:
REMARK  status: ('A' for Active; 'I' for Inactive)
REMARK    1  A    between atoms: C_2  and  C_3
REMARK    2  A    between atoms: C_14  and  C_16
REMARK    3  A    between atoms: C_16  and  N_17
REMARK    4  A    between atoms: N_17  and  C_18
REMARK    5  A    between atoms: C_18  and  C_19
REMARK    6  A    between atoms: C_19  and  O_20
REMARK    7  A    between atoms: O_20  and  C_21
REMARK                            x       y       z     vdW  Elec       q    Type
REMARK                         _______ _______ _______ _____ _____    ______ ____
ROOT
ATOM      1  O   UNL     1       2.037   8.922  17.437  0.00  0.00    +0.000 OA
ATOM      2  C   UNL     1       2.030   8.356  18.530  0.00  0.00    +0.000 C 
ATOM      3  N   UNL     1       2.678   7.134  18.755  0.00  0.00    +0.000 N 
ATOM      4  C   UNL     1       2.693   6.387  20.020  0.00  0.00    +0.000 C 
ATOM      5  C   UNL     1       2.591   4.888  19.821  0.00  0.00    +0.000 C 
ATOM      6  C   UNL     1       3.633   4.375  18.830  0.00  0.00    +0.000 C 
ATOM      7  F   UNL     1       3.366   3.053  18.584  0.00  0.00    +0.000 F 
ATOM      8  C   UNL     1       3.475   5.135  17.511  0.00  0.00    +0.000 C 
ATOM      9  C   UNL     1       3.577   6.645  17.705  0.00  0.00    +0.000 C 
ENDROOT
BRANCH   2  10
ATOM     10  C   UNL     1       1.255   9.018  19.614  0.00  0.00    +0.000 A 
ATOM     11  C   UNL     1       1.329   8.481  20.908  0.00  0.00    +0.000 A 
ATOM     12  C   UNL     1       0.653   9.098  21.964  0.00  0.00    +0.000 A 
ATOM     13  C   UNL     1      -0.081  10.255  21.727  0.00  0.00    +0.000 A 
ATOM     14  F   UNL     1      -0.680  10.863  22.762  0.00  0.00    +0.000 F 
ATOM     15  C   UNL     1      -0.190  10.771  20.439  0.00  0.00    +0.000 A 
ATOM     16 CL   UNL     1      -1.054  12.231  20.142  0.00  0.00    +0.000 Cl
ATOM     17  C   UNL     1       0.434  10.125  19.374  0.00  0.00    +0.000 A 
ENDBRANCH   2  10
BRANCH   6  18
ATOM     18  C   UNL     1       5.087   4.457  19.359  0.00  0.00    +0.000 C 
BRANCH  18  19
ATOM     19  N   UNL     1       6.096   4.200  18.317  0.00  0.00    +0.000 NA
ATOM     20  H   UNL     1       5.604   4.053  17.429  0.00  0.00    +0.000 HD
BRANCH  19  21
ATOM     21  C   UNL     1       7.039   5.319  18.166  0.00  0.00    +0.000 C 
BRANCH  21  22
ATOM     22  C   UNL     1       7.092   5.860  16.729  0.00  0.00    +0.000 C 
BRANCH  22  23
ATOM     23  O   UNL     1       7.741   4.926  15.861  0.00  0.00    +0.000 OA
BRANCH  23  24
ATOM     24  C   UNL     1       6.958   4.508  14.813  0.00  0.00    +0.000 A 
ATOM     25  C   UNL     1       5.678   3.958  14.946  0.00  0.00    +0.000 A 
ATOM     26  C   UNL     1       4.955   3.574  13.814  0.00  0.00    +0.000 A 
ATOM     27  C   UNL     1       5.508   3.745  12.549  0.00  0.00    +0.000 A 
ATOM     28 CL   UNL     1       4.613   3.277  11.157  0.00  0.00    +0.000 Cl
ATOM     29  C   UNL     1       6.779   4.301  12.406  0.00  0.00    +0.000 A 
ATOM     30  C   UNL     1       7.499   4.687  13.540  0.00  0.00    +0.000 A 
ENDBRANCH  23  24
ENDBRANCH  22  23
ENDBRANCH  21  22
ENDBRANCH  19  21
ENDBRANCH  18  19
ENDBRANCH   6  18
TORSDOF 7
ENDMDL
MODEL 5
REMARK VINA RESULT:      -7.5      3.513      5.668
REMARK  Name = 
REMARK  7 active torsions:
REMARK  status: ('A' for Active; 'I' for Inactive)
REMARK    1  A    between atoms: C_2  and  C_3
REMARK    2  A    between atoms: C_14  and  C_16
REMARK    3  A    between atoms: C_16  and  N_17
REMARK    4  A    between atoms: N_17  and  C_18
REMARK    5  A    between atoms: C_18  and  C_19
REMARK    6  A    between atoms: C_19  and  O_20
REMARK    7  A    between atoms: O_20  and  C_21
REMARK                            x       y       z     vdW  Elec       q    Type
REMARK                         _______ _______ _______ _____ _____    ______ ____
ROOT
ATOM      1  O   UNL     1       2.015   5.862  20.959  0.00  0.00    +0.000 OA
ATOM      2  C   UNL     1       2.361   6.398  19.906  0.00  0.00    +0.000 C 
ATOM      3  N   UNL     1       1.998   7.709  19.569  0.00  0.00    +0.000 N 
ATOM      4  C   UNL     1       2.350   8.407  18.325  0.00  0.00    +0.000 C 
ATOM      5  C   UNL     1       1.223   9.272  17.796  0.00  0.00    +0.000 C 
ATOM      6  C   UNL     1       0.687  10.222  18.863  0.00  0.00    +0.000 C 
ATOM      7  F   UNL     1      -0.425  10.842  18.356  0.00  0.00    +0.000 F 
ATOM      8  C   UNL     1       0.250   9.401  20.079  0.00  0.00    +0.000 C 
ATOM      9  C   UNL     1       1.380   8.528  20.616  0.00  0.00    +0.000 C 
ENDROOT
BRANCH   2  10
ATOM     10  C   UNL     1       3.164   5.565  18.971  0.00  0.00    +0.000 A 
ATOM     11  C   UNL     1       2.483   4.789  18.020  0.00  0.00    +0.000 A 
ATOM     12  C   UNL     1       3.199   4.027  17.093  0.00  0.00    +0.000 A 
ATOM     13  C   UNL     1       4.589   4.053  17.110  0.00  0.00    +0.000 A 
ATOM     14  F   UNL     1       5.259   3.357  16.180  0.00  0.00    +0.000 F 
ATOM     15  C   UNL     1       5.271   4.790  18.075  0.00  0.00    +0.000 A 
ATOM     16 CL   UNL     1       6.990   4.870  18.074  0.00  0.00    +0.000 Cl
ATOM     17  C   UNL     1       4.559   5.504  19.037  0.00  0.00    +0.000 A 
ENDBRANCH   2  10
BRANCH   6  18
ATOM     18  C   UNL     1       1.688  11.335  19.265  0.00  0.00    +0.000 C 
BRANCH  18  19
ATOM     19  N   UNL     1       1.064  12.665  19.362  0.00  0.00    +0.000 NA
ATOM     20  H   UNL     1       0.047  12.541  19.321  0.00  0.00    +0.000 HD
BRANCH  19  21
ATOM     21  C   UNL     1       1.416  13.356  20.612  0.00  0.00    +0.000 C 
BRANCH  21  22
ATOM     22  C   UNL     1       0.241  14.153  21.200  0.00  0.00    +0.000 C 
BRANCH  22  23
ATOM     23  O   UNL     1       0.228  14.055  22.627  0.00  0.00    +0.000 OA
BRANCH  23  24
ATOM     24  C   UNL     1      -0.997  13.714  23.147  0.00  0.00    +0.000 A 
ATOM     25  C   UNL     1      -1.795  14.560  23.925  0.00  0.00    +0.000 A 
ATOM     26  C   UNL     1      -3.035  14.122  24.397  0.00  0.00    +0.000 A 
ATOM     27  C   UNL     1      -3.481  12.842  24.085  0.00  0.00    +0.000 A 
ATOM     28 CL   UNL     1      -5.010  12.309  24.663  0.00  0.00    +0.000 Cl
ATOM     29  C   UNL     1      -2.697  11.995  23.302  0.00  0.00    +0.000 A 
ATOM     30  C   UNL     1      -1.458  12.436  22.829  0.00  0.00    +0.000 A 
ENDBRANCH  23  24
ENDBRANCH  22  23
ENDBRANCH  21  22
ENDBRANCH  19  21
ENDBRANCH  18  19
ENDBRANCH   6  18
TORSDOF 7
ENDMDL
MODEL 6
REMARK VINA RESULT:      -7.4      1.569      1.986
REMARK  Name = 
REMARK  7 active torsions:
REMARK  status: ('A' for Active; 'I' for Inactive)
REMARK    1  A    between atoms: C_2  and  C_3
REMARK    2  A    between atoms: C_14  and  C_16
REMARK    3  A    between atoms: C_16  and  N_17
REMARK    4  A    between atoms: N_17  and  C_18
REMARK    5  A    between atoms: C_18  and  C_19
REMARK    6  A    between atoms: C_19  and  O_20
REMARK    7  A    between atoms: O_20  and  C_21
REMARK                            x       y       z     vdW  Elec       q    Type
REMARK                         _______ _______ _______ _____ _____    ______ ____
ROOT
ATOM      1  O   UNL     1       7.657   4.557  17.281  0.00  0.00    +0.000 OA
ATOM      2  C   UNL     1       6.626   4.419  16.623  0.00  0.00    +0.000 C 
ATOM      3  N   UNL     1       5.376   4.188  17.215  0.00  0.00    +0.000 N 
ATOM      4  C   UNL     1       4.109   3.987  16.498  0.00  0.00    +0.000 C 
ATOM      5  C   UNL     1       3.229   2.933  17.140  0.00  0.00    +0.000 C 
ATOM      6  C   UNL     1       3.021   3.197  18.629  0.00  0.00    +0.000 C 
ATOM      7  F   UNL     1       2.361   2.119  19.160  0.00  0.00    +0.000 F 
ATOM      8  C   UNL     1       4.388   3.287  19.310  0.00  0.00    +0.000 C 
ATOM      9  C   UNL     1       5.278   4.347  18.668  0.00  0.00    +0.000 C 
ENDROOT
BRANCH   2  10
ATOM     10  C   UNL     1       6.772   4.468  15.143  0.00  0.00    +0.000 A 
ATOM     11  C   UNL     1       7.678   5.387  14.595  0.00  0.00    +0.000 A 
ATOM     12  C   UNL     1       7.879   5.435  13.212  0.00  0.00    +0.000 A 
ATOM     13  C   UNL     1       7.186   4.558  12.387  0.00  0.00    +0.000 A 
ATOM     14  F   UNL     1       7.430   4.582  11.068  0.00  0.00    +0.000 F 
ATOM     15  C   UNL     1       6.256   3.670  12.921  0.00  0.00    +0.000 A 
ATOM     16 CL   UNL     1       5.429   2.544  11.915  0.00  0.00    +0.000 Cl
ATOM     17  C   UNL     1       6.010   3.660  14.293  0.00  0.00    +0.000 A 
ENDBRANCH   2  10
BRANCH   6  18
ATOM     18  C   UNL     1       2.160   4.452  18.923  0.00  0.00    +0.000 C 
BRANCH  18  19
ATOM     19  N   UNL     1       1.672   4.505  20.312  0.00  0.00    +0.000 NA
ATOM     20  H   UNL     1       1.969   3.645  20.785  0.00  0.00    +0.000 HD
BRANCH  19  21
ATOM     21  C   UNL     1       2.203   5.665  21.044  0.00  0.00    +0.000 C 
BRANCH  21  22
ATOM     22  C   UNL     1       1.949   6.993  20.314  0.00  0.00    +0.000 C 
BRANCH  22  23
ATOM     23  O   UNL     1       1.017   7.799  21.041  0.00  0.00    +0.000 OA
BRANCH  23  24
ATOM     24  C   UNL     1       0.899   9.080  20.558  0.00  0.00    +0.000 A 
ATOM     25  C   UNL     1       0.475  10.179  21.312  0.00  0.00    +0.000 A 
ATOM     26  C   UNL     1       0.401  11.447  20.730  0.00  0.00    +0.000 A 
ATOM     27  C   UNL     1       0.756  11.617  19.396  0.00  0.00    +0.000 A 
ATOM     28 CL   UNL     1       0.669  13.180  18.684  0.00  0.00    +0.000 Cl
ATOM     29  C   UNL     1       1.189  10.530  18.638  0.00  0.00    +0.000 A 
ATOM     30  C   UNL     1       1.266   9.262  19.224  0.00  0.00    +0.000 A 
ENDBRANCH  23  24
ENDBRANCH  22  23
ENDBRANCH  21  22
ENDBRANCH  19  21
ENDBRANCH  18  19
ENDBRANCH   6  18
TORSDOF 7
ENDMDL
MODEL 7
REMARK VINA RESULT:      -7.4      3.742      5.803
REMARK  Name = 
REMARK  7 active torsions:
REMARK  status: ('A' for Active; 'I' for Inactive)
REMARK    1  A    between atoms: C_2  and  C_3
REMARK    2  A    between atoms: C_14  and  C_16
REMARK    3  A    between atoms: C_16  and  N_17
REMARK    4  A    between atoms: N_17  and  C_18
REMARK    5  A    between atoms: C_18  and  C_19
REMARK    6  A    between atoms: C_19  and  O_20
REMARK    7  A    between atoms: O_20  and  C_21
REMARK                            x       y       z     vdW  Elec       q    Type
REMARK                         _______ _______ _______ _____ _____    ______ ____
ROOT
ATOM      1  O   UNL     1       2.155   5.902  20.876  0.00  0.00    +0.000 OA
ATOM      2  C   UNL     1       2.481   6.388  19.793  0.00  0.00    +0.000 C 
ATOM      3  N   UNL     1       2.072   7.665  19.382  0.00  0.00    +0.000 N 
ATOM      4  C   UNL     1       2.398   8.301  18.099  0.00  0.00    +0.000 C 
ATOM      5  C   UNL     1       1.241   9.095  17.524  0.00  0.00    +0.000 C 
ATOM      6  C   UNL     1       0.672  10.085  18.537  0.00  0.00    +0.000 C 
ATOM      7  F   UNL     1      -0.462  10.635  17.998  0.00  0.00    +0.000 F 
ATOM      8  C   UNL     1       0.265   9.320  19.798  0.00  0.00    +0.000 C 
ATOM      9  C   UNL     1       1.426   8.520  20.382  0.00  0.00    +0.000 C 
ENDROOT
BRANCH   2  10
ATOM     10  C   UNL     1       3.312   5.532  18.905  0.00  0.00    +0.000 A 
ATOM     11  C   UNL     1       2.658   4.693  17.989  0.00  0.00    +0.000 A 
ATOM     12  C   UNL     1       3.401   3.905  17.105  0.00  0.00    +0.000 A 
ATOM     13  C   UNL     1       4.790   3.968  17.130  0.00  0.00    +0.000 A 
ATOM     14  F   UNL     1       5.485   3.245  16.239  0.00  0.00    +0.000 F 
ATOM     15  C   UNL     1       5.445   4.768  18.062  0.00  0.00    +0.000 A 
ATOM     16 CL   UNL     1       7.162   4.893  18.068  0.00  0.00    +0.000 Cl
ATOM     17  C   UNL     1       4.708   5.510  18.983  0.00  0.00    +0.000 A 
ENDBRANCH   2  10
BRANCH   6  18
ATOM     18  C   UNL     1       1.634  11.253  18.870  0.00  0.00    +0.000 C 
BRANCH  18  19
ATOM     19  N   UNL     1       1.127  12.563  18.425  0.00  0.00    +0.000 NA
ATOM     20  H   UNL     1       0.350  12.398  17.778  0.00  0.00    +0.000 HD
BRANCH  19  21
ATOM     21  C   UNL     1       0.652  13.387  19.548  0.00  0.00    +0.000 C 
BRANCH  21  22
ATOM     22  C   UNL     1      -0.870  13.597  19.527  0.00  0.00    +0.000 C 
BRANCH  22  23
ATOM     23  O   UNL     1      -1.541  12.486  20.129  0.00  0.00    +0.000 OA
BRANCH  23  24
ATOM     24  C   UNL     1      -2.863  12.378  19.771  0.00  0.00    +0.000 A 
ATOM     25  C   UNL     1      -3.328  11.704  18.637  0.00  0.00    +0.000 A 
ATOM     26  C   UNL     1      -4.697  11.641  18.366  0.00  0.00    +0.000 A 
ATOM     27  C   UNL     1      -5.602  12.245  19.232  0.00  0.00    +0.000 A 
ATOM     28 CL   UNL     1      -7.287  12.160  18.900  0.00  0.00    +0.000 Cl
ATOM     29  C   UNL     1      -5.149  12.911  20.371  0.00  0.00    +0.000 A 
ATOM     30  C   UNL     1      -3.779  12.970  20.641  0.00  0.00    +0.000 A 
ENDBRANCH  23  24
ENDBRANCH  22  23
ENDBRANCH  21  22
ENDBRANCH  19  21
ENDBRANCH  18  19
ENDBRANCH   6  18
TORSDOF 7
ENDMDL
MODEL 8
REMARK VINA RESULT:      -7.3      2.381      3.028
REMARK  Name = 
REMARK  7 active torsions:
REMARK  status: ('A' for Active; 'I' for Inactive)
REMARK    1  A    between atoms: C_2  and  C_3
REMARK    2  A    between atoms: C_14  and  C_16
REMARK    3  A    between atoms: C_16  and  N_17
REMARK    4  A    between atoms: N_17  and  C_18
REMARK    5  A    between atoms: C_18  and  C_19
REMARK    6  A    between atoms: C_19  and  O_20
REMARK    7  A    between atoms: O_20  and  C_21
REMARK                            x       y       z     vdW  Elec       q    Type
REMARK                         _______ _______ _______ _____ _____    ______ ____
ROOT
ATOM      1  O   UNL     1       7.205   4.304  18.093  0.00  0.00    +0.000 OA
ATOM      2  C   UNL     1       6.255   4.611  17.372  0.00  0.00    +0.000 C 
ATOM      3  N   UNL     1       5.026   5.049  17.886  0.00  0.00    +0.000 N 
ATOM      4  C   UNL     1       3.841   5.407  17.094  0.00  0.00    +0.000 C 
ATOM      5  C   UNL     1       2.545   4.952  17.735  0.00  0.00    +0.000 C 
ATOM      6  C   UNL     1       2.436   5.411  19.186  0.00  0.00    +0.000 C 
ATOM      7  F   UNL     1       1.325   4.823  19.733  0.00  0.00    +0.000 F 
ATOM      8  C   UNL     1       3.658   4.906  19.956  0.00  0.00    +0.000 C 
ATOM      9  C   UNL     1       4.966   5.361  19.316  0.00  0.00    +0.000 C 
ENDROOT
BRANCH   2  10
ATOM     10  C   UNL     1       6.456   4.456  15.906  0.00  0.00    +0.000 A 
ATOM     11  C   UNL     1       5.630   3.559  15.213  0.00  0.00    +0.000 A 
ATOM     12  C   UNL     1       5.756   3.416  13.828  0.00  0.00    +0.000 A 
ATOM     13  C   UNL     1       6.695   4.178  13.141  0.00  0.00    +0.000 A 
ATOM     14  F   UNL     1       6.765   4.067  11.806  0.00  0.00    +0.000 F 
ATOM     15  C   UNL     1       7.544   5.041  13.829  0.00  0.00    +0.000 A 
ATOM     16 CL   UNL     1       8.675   6.027  12.984  0.00  0.00    +0.000 Cl
ATOM     17  C   UNL     1       7.461   5.142  15.216  0.00  0.00    +0.000 A 
ENDBRANCH   2  10
BRANCH   6  18
ATOM     18  C   UNL     1       2.265   6.944  19.341  0.00  0.00    +0.000 C 
BRANCH  18  19
ATOM     19  N   UNL     1       2.184   7.377  20.747  0.00  0.00    +0.000 NA
ATOM     20  H   UNL     1       2.911   8.082  20.903  0.00  0.00    +0.000 HD
BRANCH  19  21
ATOM     21  C   UNL     1       0.872   7.954  21.077  0.00  0.00    +0.000 C 
BRANCH  21  22
ATOM     22  C   UNL     1       0.967   9.419  21.532  0.00  0.00    +0.000 C 
BRANCH  22  23
ATOM     23  O   UNL     1       0.204  10.267  20.667  0.00  0.00    +0.000 OA
BRANCH  23  24
ATOM     24  C   UNL     1       0.959  11.203  20.004  0.00  0.00    +0.000 A 
ATOM     25  C   UNL     1       1.587  10.993  18.772  0.00  0.00    +0.000 A 
ATOM     26  C   UNL     1       2.324  12.016  18.172  0.00  0.00    +0.000 A 
ATOM     27  C   UNL     1       2.429  13.253  18.801  0.00  0.00    +0.000 A 
ATOM     28 CL   UNL     1       3.332  14.513  18.057  0.00  0.00    +0.000 Cl
ATOM     29  C   UNL     1       1.799  13.476  20.024  0.00  0.00    +0.000 A 
ATOM     30  C   UNL     1       1.059  12.451  20.621  0.00  0.00    +0.000 A 
ENDBRANCH  23  24
ENDBRANCH  22  23
ENDBRANCH  21  22
ENDBRANCH  19  21
ENDBRANCH  18  19
ENDBRANCH   6  18
TORSDOF 7
ENDMDL
MODEL 9
REMARK VINA RESULT:      -7.3      3.583      5.847
REMARK  Name = 
REMARK  7 active torsions:
REMARK  status: ('A' for Active; 'I' for Inactive)
REMARK    1  A    between atoms: C_2  and  C_3
REMARK    2  A    between atoms: C_14  and  C_16
REMARK    3  A    between atoms: C_16  and  N_17
REMARK    4  A    between atoms: N_17  and  C_18
REMARK    5  A    between atoms: C_18  and  C_19
REMARK    6  A    between atoms: C_19  and  O_20
REMARK    7  A    between atoms: O_20  and  C_21
REMARK                            x       y       z     vdW  Elec       q    Type
REMARK                         _______ _______ _______ _____ _____    ______ ____
ROOT
ATOM      1  O   UNL     1       1.758   6.113  20.945  0.00  0.00    +0.000 OA
ATOM      2  C   UNL     1       2.019   6.694  19.892  0.00  0.00    +0.000 C 
ATOM      3  N   UNL     1       1.670   8.032  19.660  0.00  0.00    +0.000 N 
ATOM      4  C   UNL     1       1.924   8.785  18.424  0.00  0.00    +0.000 C 
ATOM      5  C   UNL     1       0.782   9.710  18.053  0.00  0.00    +0.000 C 
ATOM      6  C   UNL     1       0.385  10.616  19.215  0.00  0.00    +0.000 C 
ATOM      7  F   UNL     1      -0.749  11.295  18.853  0.00  0.00    +0.000 F 
ATOM      8  C   UNL     1       0.040   9.744  20.425  0.00  0.00    +0.000 C 
ATOM      9  C   UNL     1       1.185   8.811  20.803  0.00  0.00    +0.000 C 
ENDROOT
BRANCH   2  10
ATOM     10  C   UNL     1       2.697   5.889  18.841  0.00  0.00    +0.000 A 
ATOM     11  C   UNL     1       3.728   6.492  18.103  0.00  0.00    +0.000 A 
ATOM     12  C   UNL     1       4.422   5.758  17.137  0.00  0.00    +0.000 A 
ATOM     13  C   UNL     1       4.094   4.424  16.921  0.00  0.00    +0.000 A 
ATOM     14  F   UNL     1       4.805   3.721  16.028  0.00  0.00    +0.000 F 
ATOM     15  C   UNL     1       3.046   3.832  17.622  0.00  0.00    +0.000 A 
ATOM     16 CL   UNL     1       2.665   2.167  17.400  0.00  0.00    +0.000 Cl
ATOM     17  C   UNL     1       2.314   4.578  18.543  0.00  0.00    +0.000 A 
ENDBRANCH   2  10
BRANCH   6  18
ATOM     18  C   UNL     1       1.459  11.676  19.572  0.00  0.00    +0.000 C 
BRANCH  18  19
ATOM     19  N   UNL     1       1.369  12.143  20.966  0.00  0.00    +0.000 NA
ATOM     20  H   UNL     1       2.128  11.704  21.496  0.00  0.00    +0.000 HD
BRANCH  19  21
ATOM     21  C   UNL     1       1.489  13.605  21.072  0.00  0.00    +0.000 C 
BRANCH  21  22
ATOM     22  C   UNL     1       0.155  14.287  21.416  0.00  0.00    +0.000 C 
BRANCH  22  23
ATOM     23  O   UNL     1      -0.038  14.333  22.832  0.00  0.00    +0.000 OA
BRANCH  23  24
ATOM     24  C   UNL     1      -1.233  13.795  23.245  0.00  0.00    +0.000 A 
ATOM     25  C   UNL     1      -1.711  12.535  22.870  0.00  0.00    +0.000 A 
ATOM     26  C   UNL     1      -2.936  12.073  23.356  0.00  0.00    +0.000 A 
ATOM     27  C   UNL     1      -3.681  12.866  24.222  0.00  0.00    +0.000 A 
ATOM     28 CL   UNL     1      -5.186  12.291  24.824  0.00  0.00    +0.000 Cl
ATOM     29  C   UNL     1      -3.208  14.119  24.610  0.00  0.00    +0.000 A 
ATOM     30  C   UNL     1      -1.980  14.579  24.125  0.00  0.00    +0.000 A 
ENDBRANCH  23  24
ENDBRANCH  22  23
ENDBRANCH  21  22
ENDBRANCH  19  21
ENDBRANCH  18  19
ENDBRANCH   6  18
TORSDOF 7
ENDMDL
