MODEL 1
REMARK VINA RESULT:      -8.0      0.000      0.000
REMARK  Name = 
REMARK  1 active torsions:
REMARK  status: ('A' for Active; 'I' for Inactive)
REMARK    1  A    between atoms: C_3  and  C_4
REMARK                            x       y       z     vdW  Elec       q    Type
REMARK                         _______ _______ _______ _____ _____    ______ ____
ROOT
ATOM      1  O   UNL     1       4.929   6.653  15.774  0.00  0.00    +0.000 OA
ATOM      2  C   UNL     1       4.809   5.552  16.306  0.00  0.00    +0.000 A 
ATOM      3  C   UNL     1       5.395   4.314  15.688  0.00  0.00    +0.000 A 
ATOM      4  C   UNL     1       5.230   3.162  16.356  0.00  0.00    +0.000 A 
ATOM      5  N   UNL     1       4.558   3.075  17.543  0.00  0.00    +0.000 N 
ATOM      6  C   UNL     1       3.985   4.170  18.157  0.00  0.00    +0.000 A 
ATOM      7  C   UNL     1       4.067   5.409  17.606  0.00  0.00    +0.000 A 
ATOM      8  C   UNL     1       3.469   6.582  18.236  0.00  0.00    +0.000 A 
ATOM      9  C   UNL     1       2.815   6.436  19.399  0.00  0.00    +0.000 A 
ATOM     10  N   UNL     1       2.729   5.172  19.969  0.00  0.00    +0.000 N 
ATOM     11  C   UNL     1       2.121   4.785  21.134  0.00  0.00    +0.000 A 
ATOM     12  C   UNL     1       2.332   3.429  21.226  0.00  0.00    +0.000 A 
ATOM     13  N   UNL     1       3.052   2.964  20.153  0.00  0.00    +0.000 NA
ATOM     14  C   UNL     1       3.283   4.029  19.403  0.00  0.00    +0.000 A 
ATOM     15  H   UNL     1       4.460   2.182  18.023  0.00  0.00    +0.000 HD
ENDROOT
BRANCH   3  16
ATOM     16  C   UNL     1       6.127   4.362  14.421  0.00  0.00    +0.000 A 
ATOM     17  C   UNL     1       5.703   3.593  13.330  0.00  0.00    +0.000 A 
ATOM     18  C   UNL     1       6.372   3.684  12.108  0.00  0.00    +0.000 A 
ATOM     19  C   UNL     1       7.481   4.521  11.980  0.00  0.00    +0.000 A 
ATOM     20  C   UNL     1       7.928   5.259  13.074  0.00  0.00    +0.000 A 
ATOM     21  C   UNL     1       7.251   5.185  14.291  0.00  0.00    +0.000 A 
ENDBRANCH   3  16
TORSDOF 1
ENDMDL
MODEL 2
REMARK VINA RESULT:      -8.0      0.055      1.082
REMARK  Name = 
REMARK  1 active torsions:
REMARK  status: ('A' for Active; 'I' for Inactive)
REMARK    1  A    between atoms: C_3  and  C_4
REMARK                            x       y       z     vdW  Elec       q    Type
REMARK                         _______ _______ _______ _____ _____    ______ ____
ROOT
ATOM      1  O   UNL     1       4.868   6.665  15.805  0.00  0.00    +0.000 OA
ATOM      2  C   UNL     1       4.764   5.558  16.331  0.00  0.00    +0.000 A 
ATOM      3  C   UNL     1       5.356   4.330  15.699  0.00  0.00    +0.000 A 
ATOM      4  C   UNL     1       5.209   3.172  16.361  0.00  0.00    +0.000 A 
ATOM      5  N   UNL     1       4.550   3.071  17.554  0.00  0.00    +0.000 N 
ATOM      6  C   UNL     1       3.973   4.157  18.181  0.00  0.00    +0.000 A 
ATOM      7  C   UNL     1       4.037   5.400  17.637  0.00  0.00    +0.000 A 
ATOM      8  C   UNL     1       3.434   6.563  18.281  0.00  0.00    +0.000 A 
ATOM      9  C   UNL     1       2.793   6.403  19.450  0.00  0.00    +0.000 A 
ATOM     10  N   UNL     1       2.725   5.135  20.011  0.00  0.00    +0.000 N 
ATOM     11  C   UNL     1       2.132   4.735  21.181  0.00  0.00    +0.000 A 
ATOM     12  C   UNL     1       2.358   3.380  21.262  0.00  0.00    +0.000 A 
ATOM     13  N   UNL     1       3.071   2.929  20.178  0.00  0.00    +0.000 NA
ATOM     14  C   UNL     1       3.285   4.001  19.433  0.00  0.00    +0.000 A 
ATOM     15  H   UNL     1       4.466   2.174  18.030  0.00  0.00    +0.000 HD
ENDROOT
BRANCH   3  16
ATOM     16  C   UNL     1       6.074   4.394  14.425  0.00  0.00    +0.000 A 
ATOM     17  C   UNL     1       7.211   5.201  14.294  0.00  0.00    +0.000 A 
ATOM     18  C   UNL     1       7.924   5.217  13.093  0.00  0.00    +0.000 A 
ATOM     19  C   UNL     1       7.488   4.449  12.013  0.00  0.00    +0.000 A 
ATOM     20  C   UNL     1       6.335   3.673  12.128  0.00  0.00    +0.000 A 
ATOM     21  C   UNL     1       5.632   3.641  13.332  0.00  0.00    +0.000 A 
ENDBRANCH   3  16
TORSDOF 1
ENDMDL
MODEL 3
REMARK VINA RESULT:      -7.9      3.801      5.779
REMARK  Name = 
REMARK  1 active torsions:
REMARK  status: ('A' for Active; 'I' for Inactive)
REMARK    1  A    between atoms: C_3  and  C_4
REMARK                            x       y       z     vdW  Elec       q    Type
REMARK                         _______ _______ _______ _____ _____    ______ ____
ROOT
ATOM      1  O   UNL     1       2.245   8.849  17.186  0.00  0.00    +0.000 OA
ATOM      2  C   UNL     1       2.044   8.437  18.327  0.00  0.00    +0.000 A 
ATOM      3  C   UNL     1       2.603   7.125  18.798  0.00  0.00    +0.000 A 
ATOM      4  C   UNL     1       2.348   6.772  20.067  0.00  0.00    +0.000 A 
ATOM      5  N   UNL     1       1.609   7.541  20.922  0.00  0.00    +0.000 N 
ATOM      6  C   UNL     1       1.056   8.749  20.549  0.00  0.00    +0.000 A 
ATOM      7  C   UNL     1       1.226   9.244  19.296  0.00  0.00    +0.000 A 
ATOM      8  C   UNL     1       0.651  10.520  18.879  0.00  0.00    +0.000 A 
ATOM      9  C   UNL     1      -0.071  11.230  19.760  0.00  0.00    +0.000 A 
ATOM     10  N   UNL     1      -0.248  10.729  21.043  0.00  0.00    +0.000 N 
ATOM     11  C   UNL     1      -0.937  11.269  22.098  0.00  0.00    +0.000 A 
ATOM     12  C   UNL     1      -0.796  10.369  23.128  0.00  0.00    +0.000 A 
ATOM     13  N   UNL     1      -0.041   9.288  22.744  0.00  0.00    +0.000 NA
ATOM     14  C   UNL     1       0.281   9.520  21.482  0.00  0.00    +0.000 A 
ATOM     15  H   UNL     1       1.442   7.241  21.882  0.00  0.00    +0.000 HD
ENDROOT
BRANCH   3  16
ATOM     16  C   UNL     1       3.404   6.273  17.917  0.00  0.00    +0.000 A 
ATOM     17  C   UNL     1       4.491   6.806  17.213  0.00  0.00    +0.000 A 
ATOM     18  C   UNL     1       5.285   5.978  16.417  0.00  0.00    +0.000 A 
ATOM     19  C   UNL     1       4.979   4.622  16.299  0.00  0.00    +0.000 A 
ATOM     20  C   UNL     1       3.876   4.095  16.968  0.00  0.00    +0.000 A 
ATOM     21  C   UNL     1       3.092   4.916  17.779  0.00  0.00    +0.000 A 
ENDBRANCH   3  16
TORSDOF 1
ENDMDL
MODEL 4
REMARK VINA RESULT:      -7.8      3.826      5.730
REMARK  Name = 
REMARK  1 active torsions:
REMARK  status: ('A' for Active; 'I' for Inactive)
REMARK    1  A    between atoms: C_3  and  C_4
REMARK                            x       y       z     vdW  Elec       q    Type
REMARK                         _______ _______ _______ _____ _____    ______ ____
ROOT
ATOM      1  O   UNL     1       2.277   8.882  17.231  0.00  0.00    +0.000 OA
ATOM      2  C   UNL     1       2.054   8.465  18.366  0.00  0.00    +0.000 A 
ATOM      3  C   UNL     1       2.597   7.146  18.838  0.00  0.00    +0.000 A 
ATOM      4  C   UNL     1       2.318   6.789  20.101  0.00  0.00    +0.000 A 
ATOM      5  N   UNL     1       1.570   7.557  20.948  0.00  0.00    +0.000 N 
ATOM      6  C   UNL     1       1.031   8.771  20.573  0.00  0.00    +0.000 A 
ATOM      7  C   UNL     1       1.225   9.272  19.326  0.00  0.00    +0.000 A 
ATOM      8  C   UNL     1       0.666  10.554  18.907  0.00  0.00    +0.000 A 
ATOM      9  C   UNL     1      -0.067  11.263  19.780  0.00  0.00    +0.000 A 
ATOM     10  N   UNL     1      -0.268  10.756  21.057  0.00  0.00    +0.000 N 
ATOM     11  C   UNL     1      -0.971  11.295  22.103  0.00  0.00    +0.000 A 
ATOM     12  C   UNL     1      -0.853  10.388  23.130  0.00  0.00    +0.000 A 
ATOM     13  N   UNL     1      -0.099   9.304  22.752  0.00  0.00    +0.000 NA
ATOM     14  C   UNL     1       0.246   9.542  21.498  0.00  0.00    +0.000 A 
ATOM     15  H   UNL     1       1.386   7.253  21.903  0.00  0.00    +0.000 HD
ENDROOT
BRANCH   3  16
ATOM     16  C   UNL     1       3.407   6.294  17.966  0.00  0.00    +0.000 A 
ATOM     17  C   UNL     1       3.088   4.940  17.805  0.00  0.00    +0.000 A 
ATOM     18  C   UNL     1       3.831   4.145  16.930  0.00  0.00    +0.000 A 
ATOM     19  C   UNL     1       4.910   4.692  16.236  0.00  0.00    +0.000 A 
ATOM     20  C   UNL     1       5.254   6.030  16.422  0.00  0.00    +0.000 A 
ATOM     21  C   UNL     1       4.502   6.832  17.281  0.00  0.00    +0.000 A 
ENDBRANCH   3  16
TORSDOF 1
ENDMDL
MODEL 5
REMARK VINA RESULT:      -7.3      4.248      6.541
REMARK  Name = 
REMARK  1 active torsions:
REMARK  status: ('A' for Active; 'I' for Inactive)
REMARK    1  A    between atoms: C_3  and  C_4
REMARK                            x       y       z     vdW  Elec       q    Type
REMARK                         _______ _______ _______ _____ _____    ______ ____
ROOT
ATOM      1  O   UNL     1       1.881   6.353  20.822  0.00  0.00    +0.000 OA
ATOM      2  C   UNL     1       1.813   7.317  20.063  0.00  0.00    +0.000 A 
ATOM      3  C   UNL     1       2.296   7.234  18.643  0.00  0.00    +0.000 A 
ATOM      4  C   UNL     1       2.158   8.334  17.886  0.00  0.00    +0.000 A 
ATOM      5  N   UNL     1       1.617   9.499  18.352  0.00  0.00    +0.000 N 
ATOM      6  C   UNL     1       1.166   9.646  19.648  0.00  0.00    +0.000 A 
ATOM      7  C   UNL     1       1.235   8.622  20.537  0.00  0.00    +0.000 A 
ATOM      8  C   UNL     1       0.765   8.753  21.913  0.00  0.00    +0.000 A 
ATOM      9  C   UNL     1       0.247   9.924  22.317  0.00  0.00    +0.000 A 
ATOM     10  N   UNL     1       0.173  10.975  21.412  0.00  0.00    +0.000 N 
ATOM     11  C   UNL     1      -0.310  12.244  21.594  0.00  0.00    +0.000 A 
ATOM     12  C   UNL     1      -0.148  12.876  20.383  0.00  0.00    +0.000 A 
ATOM     13  N   UNL     1       0.420  12.037  19.457  0.00  0.00    +0.000 NA
ATOM     14  C   UNL     1       0.608  10.893  20.094  0.00  0.00    +0.000 A 
ATOM     15  H   UNL     1       1.523  10.311  17.743  0.00  0.00    +0.000 HD
ENDROOT
BRANCH   3  16
ATOM     16  C   UNL     1       2.878   6.005  18.102  0.00  0.00    +0.000 A 
ATOM     17  C   UNL     1       4.244   5.943  17.797  0.00  0.00    +0.000 A 
ATOM     18  C   UNL     1       4.804   4.751  17.333  0.00  0.00    +0.000 A 
ATOM     19  C   UNL     1       3.999   3.628  17.146  0.00  0.00    +0.000 A 
ATOM     20  C   UNL     1       2.632   3.696  17.412  0.00  0.00    +0.000 A 
ATOM     21  C   UNL     1       2.073   4.880  17.894  0.00  0.00    +0.000 A 
ENDBRANCH   3  16
TORSDOF 1
ENDMDL
MODEL 6
REMARK VINA RESULT:      -7.3      4.234      6.434
REMARK  Name = 
REMARK  1 active torsions:
REMARK  status: ('A' for Active; 'I' for Inactive)
REMARK    1  A    between atoms: C_3  and  C_4
REMARK                            x       y       z     vdW  Elec       q    Type
REMARK                         _______ _______ _______ _____ _____    ______ ____
ROOT
ATOM      1  O   UNL     1       1.869   6.369  20.804  0.00  0.00    +0.000 OA
ATOM      2  C   UNL     1       1.811   7.313  20.018  0.00  0.00    +0.000 A 
ATOM      3  C   UNL     1       2.335   7.198  18.615  0.00  0.00    +0.000 A 
ATOM      4  C   UNL     1       2.206   8.275  17.825  0.00  0.00    +0.000 A 
ATOM      5  N   UNL     1       1.638   9.445  18.243  0.00  0.00    +0.000 N 
ATOM      6  C   UNL     1       1.150   9.621  19.522  0.00  0.00    +0.000 A 
ATOM      7  C   UNL     1       1.205   8.622  20.440  0.00  0.00    +0.000 A 
ATOM      8  C   UNL     1       0.695   8.784  21.798  0.00  0.00    +0.000 A 
ATOM      9  C   UNL     1       0.153   9.959  22.156  0.00  0.00    +0.000 A 
ATOM     10  N   UNL     1       0.092  10.984  21.221  0.00  0.00    +0.000 N 
ATOM     11  C   UNL     1      -0.411  12.252  21.355  0.00  0.00    +0.000 A 
ATOM     12  C   UNL     1      -0.222  12.853  20.133  0.00  0.00    +0.000 A 
ATOM     13  N   UNL     1       0.382  11.996  19.245  0.00  0.00    +0.000 NA
ATOM     14  C   UNL     1       0.565  10.873  19.918  0.00  0.00    +0.000 A 
ATOM     15  H   UNL     1       1.553  10.239  17.611  0.00  0.00    +0.000 HD
ENDROOT
BRANCH   3  16
ATOM     16  C   UNL     1       2.947   5.961  18.124  0.00  0.00    +0.000 A 
ATOM     17  C   UNL     1       2.160   4.826  17.892  0.00  0.00    +0.000 A 
ATOM     18  C   UNL     1       2.739   3.667  17.372  0.00  0.00    +0.000 A 
ATOM     19  C   UNL     1       4.108   3.628  17.109  0.00  0.00    +0.000 A 
ATOM     20  C   UNL     1       4.901   4.743  17.374  0.00  0.00    +0.000 A 
ATOM     21  C   UNL     1       4.323   5.910  17.875  0.00  0.00    +0.000 A 
ENDBRANCH   3  16
TORSDOF 1
ENDMDL
MODEL 7
REMARK VINA RESULT:      -7.2      3.716      7.521
REMARK  Name = 
REMARK  1 active torsions:
REMARK  status: ('A' for Active; 'I' for Inactive)
REMARK    1  A    between atoms: C_3  and  C_4
REMARK                            x       y       z     vdW  Elec       q    Type
REMARK                         _______ _______ _______ _____ _____    ______ ____
ROOT
ATOM      1  O   UNL     1       2.068   9.546  17.521  0.00  0.00    +0.000 OA
ATOM      2  C   UNL     1       2.049   8.726  18.438  0.00  0.00    +0.000 A 
ATOM      3  C   UNL     1       1.241   8.959  19.683  0.00  0.00    +0.000 A 
ATOM      4  C   UNL     1       1.267   7.996  20.616  0.00  0.00    +0.000 A 
ATOM      5  N   UNL     1       1.990   6.844  20.482  0.00  0.00    +0.000 N 
ATOM      6  C   UNL     1       2.762   6.574  19.371  0.00  0.00    +0.000 A 
ATOM      7  C   UNL     1       2.839   7.451  18.337  0.00  0.00    +0.000 A 
ATOM      8  C   UNL     1       3.649   7.188  17.151  0.00  0.00    +0.000 A 
ATOM      9  C   UNL     1       4.344   6.041  17.077  0.00  0.00    +0.000 A 
ATOM     10  N   UNL     1       4.269   5.140  18.131  0.00  0.00    +0.000 N 
ATOM     11  C   UNL     1       4.881   3.922  18.276  0.00  0.00    +0.000 A 
ATOM     12  C   UNL     1       4.469   3.448  19.499  0.00  0.00    +0.000 A 
ATOM     13  N   UNL     1       3.621   4.334  20.116  0.00  0.00    +0.000 NA
ATOM     14  C   UNL     1       3.510   5.350  19.277  0.00  0.00    +0.000 A 
ATOM     15  H   UNL     1       1.978   6.132  21.212  0.00  0.00    +0.000 HD
ENDROOT
BRANCH   3  16
ATOM     16  C   UNL     1       0.449  10.176  19.865  0.00  0.00    +0.000 A 
ATOM     17  C   UNL     1      -0.789  10.318  19.224  0.00  0.00    +0.000 A 
ATOM     18  C   UNL     1      -1.565  11.457  19.445  0.00  0.00    +0.000 A 
ATOM     19  C   UNL     1      -1.097  12.469  20.283  0.00  0.00    +0.000 A 
ATOM     20  C   UNL     1       0.151  12.349  20.893  0.00  0.00    +0.000 A 
ATOM     21  C   UNL     1       0.920  11.204  20.690  0.00  0.00    +0.000 A 
ENDBRANCH   3  16
TORSDOF 1
ENDMDL
MODEL 8
REMARK VINA RESULT:      -7.2      4.477      6.028
REMARK  Name = 
REMARK  1 active torsions:
REMARK  status: ('A' for Active; 'I' for Inactive)
REMARK    1  A    between atoms: C_3  and  C_4
REMARK                            x       y       z     vdW  Elec       q    Type
REMARK                         _______ _______ _______ _____ _____    ______ ____
ROOT
ATOM      1  O   UNL     1       3.093   6.442  17.351  0.00  0.00    +0.000 OA
ATOM      2  C   UNL     1       2.568   6.621  18.448  0.00  0.00    +0.000 A 
ATOM      3  C   UNL     1       2.395   5.497  19.429  0.00  0.00    +0.000 A 
ATOM      4  C   UNL     1       1.831   5.797  20.608  0.00  0.00    +0.000 A 
ATOM      5  N   UNL     1       1.411   7.055  20.938  0.00  0.00    +0.000 N 
ATOM      6  C   UNL     1       1.528   8.129  20.079  0.00  0.00    +0.000 A 
ATOM      7  C   UNL     1       2.080   7.987  18.846  0.00  0.00    +0.000 A 
ATOM      8  C   UNL     1       2.215   9.107  17.920  0.00  0.00    +0.000 A 
ATOM      9  C   UNL     1       1.779  10.320  18.295  0.00  0.00    +0.000 A 
ATOM     10  N   UNL     1       1.214  10.472  19.554  0.00  0.00    +0.000 N 
ATOM     11  C   UNL     1       0.705  11.598  20.147  0.00  0.00    +0.000 A 
ATOM     12  C   UNL     1       0.274  11.196  21.390  0.00  0.00    +0.000 A 
ATOM     13  N   UNL     1       0.499   9.856  21.584  0.00  0.00    +0.000 NA
ATOM     14  C   UNL     1       1.066   9.433  20.467  0.00  0.00    +0.000 A 
ATOM     15  H   UNL     1       0.993   7.244  21.847  0.00  0.00    +0.000 HD
ENDROOT
BRANCH   3  16
ATOM     16  C   UNL     1       2.836   4.135  19.119  0.00  0.00    +0.000 A 
ATOM     17  C   UNL     1       3.918   3.569  19.804  0.00  0.00    +0.000 A 
ATOM     18  C   UNL     1       4.300   2.251  19.543  0.00  0.00    +0.000 A 
ATOM     19  C   UNL     1       3.620   1.506  18.579  0.00  0.00    +0.000 A 
ATOM     20  C   UNL     1       2.566   2.079  17.868  0.00  0.00    +0.000 A 
ATOM     21  C   UNL     1       2.171   3.388  18.140  0.00  0.00    +0.000 A 
ENDBRANCH   3  16
TORSDOF 1
ENDMDL
MODEL 9
REMARK VINA RESULT:      -7.1      3.737      7.590
REMARK  Name = 
REMARK  1 active torsions:
REMARK  status: ('A' for Active; 'I' for Inactive)
REMARK    1  A    between atoms: C_3  and  C_4
REMARK                            x       y       z     vdW  Elec       q    Type
REMARK                         _______ _______ _______ _____ _____    ______ ____
ROOT
ATOM      1  O   UNL     1       2.062   9.569  17.519  0.00  0.00    +0.000 OA
ATOM      2  C   UNL     1       2.040   8.753  18.438  0.00  0.00    +0.000 A 
ATOM      3  C   UNL     1       1.233   8.993  19.682  0.00  0.00    +0.000 A 
ATOM      4  C   UNL     1       1.255   8.033  20.619  0.00  0.00    +0.000 A 
ATOM      5  N   UNL     1       1.974   6.879  20.490  0.00  0.00    +0.000 N 
ATOM      6  C   UNL     1       2.746   6.601  19.380  0.00  0.00    +0.000 A 
ATOM      7  C   UNL     1       2.826   7.475  18.343  0.00  0.00    +0.000 A 
ATOM      8  C   UNL     1       3.635   7.204  17.158  0.00  0.00    +0.000 A 
ATOM      9  C   UNL     1       4.326   6.055  17.089  0.00  0.00    +0.000 A 
ATOM     10  N   UNL     1       4.247   5.157  18.146  0.00  0.00    +0.000 N 
ATOM     11  C   UNL     1       4.855   3.938  18.296  0.00  0.00    +0.000 A 
ATOM     12  C   UNL     1       4.441   3.470  19.521  0.00  0.00    +0.000 A 
ATOM     13  N   UNL     1       3.596   4.361  20.134  0.00  0.00    +0.000 NA
ATOM     14  C   UNL     1       3.489   5.375  19.291  0.00  0.00    +0.000 A 
ATOM     15  H   UNL     1       1.959   6.170  21.222  0.00  0.00    +0.000 HD
ENDROOT
BRANCH   3  16
ATOM     16  C   UNL     1       0.444  10.214  19.860  0.00  0.00    +0.000 A 
ATOM     17  C   UNL     1       0.956  11.285  20.603  0.00  0.00    +0.000 A 
ATOM     18  C   UNL     1       0.223  12.467  20.724  0.00  0.00    +0.000 A 
ATOM     19  C   UNL     1      -1.034  12.573  20.127  0.00  0.00    +0.000 A 
ATOM     20  C   UNL     1      -1.563  11.495  19.419  0.00  0.00    +0.000 A 
ATOM     21  C   UNL     1      -0.825  10.320  19.280  0.00  0.00    +0.000 A 
ENDBRANCH   3  16
TORSDOF 1
ENDMDL
