MODEL 1
REMARK VINA RESULT:      -6.4      0.000      0.000
REMARK  Name = 
REMARK  3 active torsions:
REMARK  status: ('A' for Active; 'I' for Inactive)
REMARK    1  A    between atoms: C_1  and  C_2
REMARK    2  A    between atoms: C_2  and  C_3
REMARK    3  A    between atoms: N_12  and  C_13
REMARK                            x       y       z     vdW  Elec       q    Type
REMARK                         _______ _______ _______ _____ _____    ______ ____
ROOT
ATOM      1  C   UNL     1       4.359   4.250  16.762  0.00  0.00    +0.000 C 
ATOM      2  C   UNL     1       3.879   3.166  17.670  0.00  0.00    +0.000 C 
ATOM      3  O   UNL     1       4.193   1.980  17.523  0.00  0.00    +0.000 OA
ATOM      4  C   UNL     1       2.891   3.537  18.699  0.00  0.00    +0.000 A 
ATOM      5  C   UNL     1       2.252   2.522  19.427  0.00  0.00    +0.000 A 
ATOM      6  C   UNL     1       1.292   2.845  20.379  0.00  0.00    +0.000 A 
ATOM      7  C   UNL     1       0.972   4.178  20.606  0.00  0.00    +0.000 A 
ATOM      8  C   UNL     1       1.609   5.193  19.880  0.00  0.00    +0.000 A 
ATOM      9  C   UNL     1       2.576   4.889  18.910  0.00  0.00    +0.000 A 
ATOM     10  N   UNL     1       3.286   5.905  18.207  0.00  0.00    +0.000 N 
ATOM     11  C   UNL     1       2.952   7.313  18.297  0.00  0.00    +0.000 C 
ATOM     12  C   UNL     1       4.437   5.600  17.471  0.00  0.00    +0.000 C 
ATOM     13  O   UNL     1       5.333   6.422  17.302  0.00  0.00    +0.000 OA
ENDROOT
BRANCH   1  15
ATOM     14  C   UNL     1       5.589   4.354  14.453  0.00  0.00    +0.000 C 
ATOM     15  C   UNL     1       5.571   3.857  15.895  0.00  0.00    +0.000 C 
ENDBRANCH   1  15
TORSDOF 1
ENDMDL
MODEL 2
REMARK VINA RESULT:      -6.2      2.131      4.541
REMARK  Name = 
REMARK  3 active torsions:
REMARK  status: ('A' for Active; 'I' for Inactive)
REMARK    1  A    between atoms: C_1  and  C_2
REMARK    2  A    between atoms: C_2  and  C_3
REMARK    3  A    between atoms: N_12  and  C_13
REMARK                            x       y       z     vdW  Elec       q    Type
REMARK                         _______ _______ _______ _____ _____    ______ ____
ROOT
ATOM      1  C   UNL     1       3.165   4.043  19.641  0.00  0.00    +0.000 C 
ATOM      2  C   UNL     1       4.599   3.770  19.329  0.00  0.00    +0.000 C 
ATOM      3  O   UNL     1       5.197   2.768  19.737  0.00  0.00    +0.000 OA
ATOM      4  C   UNL     1       5.342   4.819  18.607  0.00  0.00    +0.000 A 
ATOM      5  C   UNL     1       6.736   4.704  18.484  0.00  0.00    +0.000 A 
ATOM      6  C   UNL     1       7.463   5.697  17.836  0.00  0.00    +0.000 A 
ATOM      7  C   UNL     1       6.801   6.801  17.312  0.00  0.00    +0.000 A 
ATOM      8  C   UNL     1       5.410   6.916  17.434  0.00  0.00    +0.000 A 
ATOM      9  C   UNL     1       4.658   5.930  18.089  0.00  0.00    +0.000 A 
ATOM     10  N   UNL     1       3.236   5.992  18.166  0.00  0.00    +0.000 N 
ATOM     11  C   UNL     1       2.468   7.147  17.745  0.00  0.00    +0.000 C 
ATOM     12  C   UNL     1       2.488   4.874  18.554  0.00  0.00    +0.000 C 
ATOM     13  O   UNL     1       1.340   4.695  18.157  0.00  0.00    +0.000 OA
ENDROOT
BRANCH   1  15
ATOM     14  C   UNL     1       1.791   2.902  21.555  0.00  0.00    +0.000 C 
ATOM     15  C   UNL     1       2.386   2.815  20.154  0.00  0.00    +0.000 C 
ENDBRANCH   1  15
TORSDOF 1
ENDMDL
MODEL 3
REMARK VINA RESULT:      -6.2      1.702      4.371
REMARK  Name = 
REMARK  3 active torsions:
REMARK  status: ('A' for Active; 'I' for Inactive)
REMARK    1  A    between atoms: C_1  and  C_2
REMARK    2  A    between atoms: C_2  and  C_3
REMARK    3  A    between atoms: N_12  and  C_13
REMARK                            x       y       z     vdW  Elec       q    Type
REMARK                         _______ _______ _______ _____ _____    ______ ____
ROOT
ATOM      1  C   UNL     1       2.772   3.589  19.625  0.00  0.00    +0.000 C 
ATOM      2  C   UNL     1       3.461   3.271  18.339  0.00  0.00    +0.000 C 
ATOM      3  O   UNL     1       3.693   2.115  17.969  0.00  0.00    +0.000 OA
ATOM      4  C   UNL     1       3.986   4.406  17.558  0.00  0.00    +0.000 A 
ATOM      5  C   UNL     1       4.825   4.148  16.462  0.00  0.00    +0.000 A 
ATOM      6  C   UNL     1       5.360   5.202  15.730  0.00  0.00    +0.000 A 
ATOM      7  C   UNL     1       5.057   6.510  16.090  0.00  0.00    +0.000 A 
ATOM      8  C   UNL     1       4.220   6.769  17.183  0.00  0.00    +0.000 A 
ATOM      9  C   UNL     1       3.675   5.721  17.939  0.00  0.00    +0.000 A 
ATOM     10  N   UNL     1       2.768   5.957  19.012  0.00  0.00    +0.000 N 
ATOM     11  C   UNL     1       2.475   7.280  19.528  0.00  0.00    +0.000 C 
ATOM     12  C   UNL     1       2.012   4.911  19.557  0.00  0.00    +0.000 C 
ATOM     13  O   UNL     1       0.912   5.107  20.067  0.00  0.00    +0.000 OA
ENDROOT
BRANCH   1  15
ATOM     14  C   UNL     1       1.816   2.418  21.763  0.00  0.00    +0.000 C 
ATOM     15  C   UNL     1       2.023   2.396  20.251  0.00  0.00    +0.000 C 
ENDBRANCH   1  15
TORSDOF 1
ENDMDL
MODEL 4
REMARK VINA RESULT:      -6.1      1.211      3.232
REMARK  Name = 
REMARK  3 active torsions:
REMARK  status: ('A' for Active; 'I' for Inactive)
REMARK    1  A    between atoms: C_1  and  C_2
REMARK    2  A    between atoms: C_2  and  C_3
REMARK    3  A    between atoms: N_12  and  C_13
REMARK                            x       y       z     vdW  Elec       q    Type
REMARK                         _______ _______ _______ _____ _____    ______ ____
ROOT
ATOM      1  C   UNL     1       4.759   4.424  17.514  0.00  0.00    +0.000 C 
ATOM      2  C   UNL     1       4.120   5.773  17.492  0.00  0.00    +0.000 C 
ATOM      3  O   UNL     1       4.409   6.640  16.661  0.00  0.00    +0.000 OA
ATOM      4  C   UNL     1       3.200   6.100  18.597  0.00  0.00    +0.000 A 
ATOM      5  C   UNL     1       2.748   7.422  18.738  0.00  0.00    +0.000 A 
ATOM      6  C   UNL     1       1.907   7.763  19.791  0.00  0.00    +0.000 A 
ATOM      7  C   UNL     1       1.516   6.787  20.700  0.00  0.00    +0.000 A 
ATOM      8  C   UNL     1       1.966   5.468  20.561  0.00  0.00    +0.000 A 
ATOM      9  C   UNL     1       2.821   5.103  19.510  0.00  0.00    +0.000 A 
ATOM     10  N   UNL     1       3.237   3.756  19.308  0.00  0.00    +0.000 N 
ATOM     11  C   UNL     1       2.970   2.692  20.257  0.00  0.00    +0.000 C 
ATOM     12  C   UNL     1       3.837   3.361  18.106  0.00  0.00    +0.000 C 
ATOM     13  O   UNL     1       3.737   2.214  17.680  0.00  0.00    +0.000 OA
ENDROOT
BRANCH   1  15
ATOM     14  C   UNL     1       6.967   4.423  16.108  0.00  0.00    +0.000 C 
ATOM     15  C   UNL     1       5.491   4.052  16.210  0.00  0.00    +0.000 C 
ENDBRANCH   1  15
TORSDOF 1
ENDMDL
MODEL 5
REMARK VINA RESULT:      -6.0      1.324      1.643
REMARK  Name = 
REMARK  3 active torsions:
REMARK  status: ('A' for Active; 'I' for Inactive)
REMARK    1  A    between atoms: C_1  and  C_2
REMARK    2  A    between atoms: C_2  and  C_3
REMARK    3  A    between atoms: N_12  and  C_13
REMARK                            x       y       z     vdW  Elec       q    Type
REMARK                         _______ _______ _______ _____ _____    ______ ____
ROOT
ATOM      1  C   UNL     1       5.447   5.270  15.993  0.00  0.00    +0.000 C 
ATOM      2  C   UNL     1       4.968   3.939  16.473  0.00  0.00    +0.000 C 
ATOM      3  O   UNL     1       5.497   2.874  16.136  0.00  0.00    +0.000 OA
ATOM      4  C   UNL     1       3.735   3.919  17.280  0.00  0.00    +0.000 A 
ATOM      5  C   UNL     1       3.130   2.685  17.568  0.00  0.00    +0.000 A 
ATOM      6  C   UNL     1       1.948   2.641  18.299  0.00  0.00    +0.000 A 
ATOM      7  C   UNL     1       1.373   3.826  18.744  0.00  0.00    +0.000 A 
ATOM      8  C   UNL     1       1.975   5.057  18.457  0.00  0.00    +0.000 A 
ATOM      9  C   UNL     1       3.164   5.125  17.715  0.00  0.00    +0.000 A 
ATOM     10  N   UNL     1       3.831   6.360  17.470  0.00  0.00    +0.000 N 
ATOM     11  C   UNL     1       3.259   7.651  17.799  0.00  0.00    +0.000 C 
ATOM     12  C   UNL     1       5.148   6.382  16.993  0.00  0.00    +0.000 C 
ATOM     13  O   UNL     1       5.912   7.309  17.250  0.00  0.00    +0.000 OA
ENDROOT
BRANCH   1  15
ATOM     14  C   UNL     1       6.993   4.853  13.921  0.00  0.00    +0.000 C 
ATOM     15  C   UNL     1       6.865   5.250  15.388  0.00  0.00    +0.000 C 
ENDBRANCH   1  15
TORSDOF 1
ENDMDL
MODEL 6
REMARK VINA RESULT:      -5.8      1.754      4.746
REMARK  Name = 
REMARK  3 active torsions:
REMARK  status: ('A' for Active; 'I' for Inactive)
REMARK    1  A    between atoms: C_1  and  C_2
REMARK    2  A    between atoms: C_2  and  C_3
REMARK    3  A    between atoms: N_12  and  C_13
REMARK                            x       y       z     vdW  Elec       q    Type
REMARK                         _______ _______ _______ _____ _____    ______ ____
ROOT
ATOM      1  C   UNL     1       3.444   3.802  18.534  0.00  0.00    +0.000 C 
ATOM      2  C   UNL     1       3.495   3.715  17.044  0.00  0.00    +0.000 C 
ATOM      3  O   UNL     1       2.573   3.248  16.367  0.00  0.00    +0.000 OA
ATOM      4  C   UNL     1       4.760   4.093  16.390  0.00  0.00    +0.000 A 
ATOM      5  C   UNL     1       4.928   3.823  15.022  0.00  0.00    +0.000 A 
ATOM      6  C   UNL     1       6.125   4.140  14.390  0.00  0.00    +0.000 A 
ATOM      7  C   UNL     1       7.151   4.728  15.120  0.00  0.00    +0.000 A 
ATOM      8  C   UNL     1       6.986   4.998  16.484  0.00  0.00    +0.000 A 
ATOM      9  C   UNL     1       5.789   4.681  17.144  0.00  0.00    +0.000 A 
ATOM     10  N   UNL     1       5.572   5.008  18.514  0.00  0.00    +0.000 N 
ATOM     11  C   UNL     1       6.614   5.522  19.381  0.00  0.00    +0.000 C 
ATOM     12  C   UNL     1       4.288   4.956  19.070  0.00  0.00    +0.000 C 
ATOM     13  O   UNL     1       3.960   5.679  20.007  0.00  0.00    +0.000 OA
ENDROOT
BRANCH   1  15
ATOM     14  C   UNL     1       1.627   2.265  19.623  0.00  0.00    +0.000 C 
ATOM     15  C   UNL     1       2.030   3.650  19.128  0.00  0.00    +0.000 C 
ENDBRANCH   1  15
TORSDOF 1
ENDMDL
MODEL 7
REMARK VINA RESULT:      -5.8      1.975      4.704
REMARK  Name = 
REMARK  3 active torsions:
REMARK  status: ('A' for Active; 'I' for Inactive)
REMARK    1  A    between atoms: C_1  and  C_2
REMARK    2  A    between atoms: C_2  and  C_3
REMARK    3  A    between atoms: N_12  and  C_13
REMARK                            x       y       z     vdW  Elec       q    Type
REMARK                         _______ _______ _______ _____ _____    ______ ____
ROOT
ATOM      1  C   UNL     1       2.941   3.804  20.023  0.00  0.00    +0.000 C 
ATOM      2  C   UNL     1       2.440   5.200  20.201  0.00  0.00    +0.000 C 
ATOM      3  O   UNL     1       1.652   5.522  21.096  0.00  0.00    +0.000 OA
ATOM      4  C   UNL     1       2.821   6.187  19.174  0.00  0.00    +0.000 A 
ATOM      5  C   UNL     1       2.202   7.448  19.179  0.00  0.00    +0.000 A 
ATOM      6  C   UNL     1       2.520   8.384  18.202  0.00  0.00    +0.000 A 
ATOM      7  C   UNL     1       3.454   8.065  17.223  0.00  0.00    +0.000 A 
ATOM      8  C   UNL     1       4.072   6.808  17.218  0.00  0.00    +0.000 A 
ATOM      9  C   UNL     1       3.762   5.845  18.190  0.00  0.00    +0.000 A 
ATOM     10  N   UNL     1       4.427   4.586  18.245  0.00  0.00    +0.000 N 
ATOM     11  C   UNL     1       5.334   4.122  17.214  0.00  0.00    +0.000 C 
ATOM     12  C   UNL     1       4.323   3.768  19.376  0.00  0.00    +0.000 C 
ATOM     13  O   UNL     1       5.219   2.991  19.697  0.00  0.00    +0.000 OA
ENDROOT
BRANCH   1  15
ATOM     14  C   UNL     1       1.302   2.468  21.567  0.00  0.00    +0.000 C 
ATOM     15  C   UNL     1       2.731   2.898  21.252  0.00  0.00    +0.000 C 
ENDBRANCH   1  15
TORSDOF 1
ENDMDL
MODEL 8
REMARK VINA RESULT:      -5.7      1.372      4.415
REMARK  Name = 
REMARK  3 active torsions:
REMARK  status: ('A' for Active; 'I' for Inactive)
REMARK    1  A    between atoms: C_1  and  C_2
REMARK    2  A    between atoms: C_2  and  C_3
REMARK    3  A    between atoms: N_12  and  C_13
REMARK                            x       y       z     vdW  Elec       q    Type
REMARK                         _______ _______ _______ _____ _____    ______ ____
ROOT
ATOM      1  C   UNL     1       3.116   3.951  18.994  0.00  0.00    +0.000 C 
ATOM      2  C   UNL     1       3.800   3.190  17.907  0.00  0.00    +0.000 C 
ATOM      3  O   UNL     1       3.849   1.955  17.879  0.00  0.00    +0.000 OA
ATOM      4  C   UNL     1       4.546   3.972  16.904  0.00  0.00    +0.000 A 
ATOM      5  C   UNL     1       5.379   3.298  15.996  0.00  0.00    +0.000 A 
ATOM      6  C   UNL     1       6.118   4.015  15.063  0.00  0.00    +0.000 A 
ATOM      7  C   UNL     1       6.026   5.402  15.035  0.00  0.00    +0.000 A 
ATOM      8  C   UNL     1       5.196   6.075  15.940  0.00  0.00    +0.000 A 
ATOM      9  C   UNL     1       4.446   5.372  16.894  0.00  0.00    +0.000 A 
ATOM     10  N   UNL     1       3.543   6.030  17.779  0.00  0.00    +0.000 N 
ATOM     11  C   UNL     1       3.456   7.472  17.896  0.00  0.00    +0.000 C 
ATOM     12  C   UNL     1       2.597   5.302  18.510  0.00  0.00    +0.000 C 
ATOM     13  O   UNL     1       1.523   5.794  18.848  0.00  0.00    +0.000 OA
ENDROOT
BRANCH   1  15
ATOM     14  C   UNL     1       2.498   2.909  21.316  0.00  0.00    +0.000 C 
ATOM     15  C   UNL     1       2.148   3.105  19.844  0.00  0.00    +0.000 C 
ENDBRANCH   1  15
TORSDOF 1
ENDMDL
MODEL 9
REMARK VINA RESULT:      -5.7      2.351      3.709
REMARK  Name = 
REMARK  3 active torsions:
REMARK  status: ('A' for Active; 'I' for Inactive)
REMARK    1  A    between atoms: C_1  and  C_2
REMARK    2  A    between atoms: C_2  and  C_3
REMARK    3  A    between atoms: N_12  and  C_13
REMARK                            x       y       z     vdW  Elec       q    Type
REMARK                         _______ _______ _______ _____ _____    ______ ____
ROOT
ATOM      1  C   UNL     1       7.043   5.191  18.008  0.00  0.00    +0.000 C 
ATOM      2  C   UNL     1       5.793   5.175  18.825  0.00  0.00    +0.000 C 
ATOM      3  O   UNL     1       5.733   5.638  19.970  0.00  0.00    +0.000 OA
ATOM      4  C   UNL     1       4.632   4.460  18.266  0.00  0.00    +0.000 A 
ATOM      5  C   UNL     1       3.513   4.233  19.084  0.00  0.00    +0.000 A 
ATOM      6  C   UNL     1       2.419   3.532  18.590  0.00  0.00    +0.000 A 
ATOM      7  C   UNL     1       2.440   3.060  17.282  0.00  0.00    +0.000 A 
ATOM      8  C   UNL     1       3.555   3.286  16.466  0.00  0.00    +0.000 A 
ATOM      9  C   UNL     1       4.672   3.986  16.945  0.00  0.00    +0.000 A 
ATOM     10  N   UNL     1       5.789   4.287  16.113  0.00  0.00    +0.000 N 
ATOM     11  C   UNL     1       5.949   3.751  14.775  0.00  0.00    +0.000 C 
ATOM     12  C   UNL     1       6.749   5.225  16.511  0.00  0.00    +0.000 C 
ATOM     13  O   UNL     1       7.387   5.883  15.693  0.00  0.00    +0.000 OA
ENDROOT
BRANCH   1  15
ATOM     14  C   UNL     1       7.968   7.636  18.145  0.00  0.00    +0.000 C 
ATOM     15  C   UNL     1       8.120   6.166  18.521  0.00  0.00    +0.000 C 
ENDBRANCH   1  15
TORSDOF 1
ENDMDL
