MODEL 1
REMARK VINA RESULT:      -7.9      0.000      0.000
REMARK  Name = 
REMARK  4 active torsions:
REMARK  status: ('A' for Active; 'I' for Inactive)
REMARK    1  A    between atoms: N_4  and  N_5
REMARK    2  A    between atoms: C_6  and  C_7
REMARK    3  A    between atoms: N_9  and  C_10
REMARK    4  A    between atoms: C_10  and  C_11
REMARK                            x       y       z     vdW  Elec       q    Type
REMARK                         _______ _______ _______ _____ _____    ______ ____
ROOT
ATOM      1  C   UNL     1       2.150   6.154  19.914  0.00  0.00    +0.000 A 
ATOM      2  C   UNL     1       3.144   6.454  18.992  0.00  0.00    +0.000 A 
ATOM      3  N   UNL     1       3.457   5.357  18.271  0.00  0.00    +0.000 N 
ATOM      4  C   UNL     1       2.677   4.356  18.733  0.00  0.00    +0.000 A 
ATOM      5  C   UNL     1       2.635   3.025  18.309  0.00  0.00    +0.000 A 
ATOM      6  C   UNL     1       1.743   2.153  18.960  0.00  0.00    +0.000 A 
ATOM      7  C   UNL     1       0.917   2.622  20.004  0.00  0.00    +0.000 A 
ATOM      8  C   UNL     1       0.970   3.968  20.408  0.00  0.00    +0.000 A 
ATOM      9  C   UNL     1       1.866   4.810  19.748  0.00  0.00    +0.000 A 
ENDROOT
BRANCH   1  11
ATOM     10  N   UNL     1       1.404   8.333  20.466  0.00  0.00    +0.000 NA
ATOM     11  C   UNL     1       1.540   7.113  20.845  0.00  0.00    +0.000 C 
BRANCH  10  15
ATOM     12  N   UNL     1      -0.004  10.405  19.351  0.00  0.00    +0.000 NA
ATOM     13  C   UNL     1       0.070  10.342  20.633  0.00  0.00    +0.000 C 
ATOM     14  N   UNL     1      -0.579  11.313  21.435  0.00  0.00    +0.000 N 
ATOM     15  N   UNL     1       0.812   9.296  21.248  0.00  0.00    +0.000 N 
ATOM     16  H   UNL     1      -0.529  11.154  18.875  0.00  0.00    +0.000 HD
ATOM     17  H   UNL     1      -1.122  12.075  21.003  0.00  0.00    +0.000 HD
ATOM     18  H   UNL     1      -0.524  11.262  22.462  0.00  0.00    +0.000 HD
ATOM     19  H   UNL     1       0.887   9.257  22.276  0.00  0.00    +0.000 HD
ENDBRANCH  10  15
ENDBRANCH   1  11
BRANCH   3  20
ATOM     20  C   UNL     1       4.452   5.314  17.198  0.00  0.00    +0.000 C 
BRANCH  20  21
ATOM     21  C   UNL     1       5.756   5.899  17.673  0.00  0.00    +0.000 A 
ATOM     22  C   UNL     1       6.477   5.274  18.707  0.00  0.00    +0.000 A 
ATOM     23  C   UNL     1       7.688   5.813  19.150  0.00  0.00    +0.000 A 
ATOM     24  C   UNL     1       8.189   6.978  18.564  0.00  0.00    +0.000 A 
ATOM     25  C   UNL     1       7.482   7.603  17.532  0.00  0.00    +0.000 A 
ATOM     26  C   UNL     1       6.270   7.066  17.087  0.00  0.00    +0.000 A 
ENDBRANCH  20  21
ENDBRANCH   3  20
TORSDOF 4
ENDMDL
MODEL 2
REMARK VINA RESULT:      -7.9      0.366      1.094
REMARK  Name = 
REMARK  4 active torsions:
REMARK  status: ('A' for Active; 'I' for Inactive)
REMARK    1  A    between atoms: N_4  and  N_5
REMARK    2  A    between atoms: C_6  and  C_7
REMARK    3  A    between atoms: N_9  and  C_10
REMARK    4  A    between atoms: C_10  and  C_11
REMARK                            x       y       z     vdW  Elec       q    Type
REMARK                         _______ _______ _______ _____ _____    ______ ____
ROOT
ATOM      1  C   UNL     1       2.064   6.309  19.952  0.00  0.00    +0.000 A 
ATOM      2  C   UNL     1       3.023   6.647  19.007  0.00  0.00    +0.000 A 
ATOM      3  N   UNL     1       3.358   5.563  18.274  0.00  0.00    +0.000 N 
ATOM      4  C   UNL     1       2.625   4.534  18.753  0.00  0.00    +0.000 A 
ATOM      5  C   UNL     1       2.621   3.203  18.326  0.00  0.00    +0.000 A 
ATOM      6  C   UNL     1       1.777   2.298  18.997  0.00  0.00    +0.000 A 
ATOM      7  C   UNL     1       0.961   2.735  20.063  0.00  0.00    +0.000 A 
ATOM      8  C   UNL     1       0.977   4.082  20.469  0.00  0.00    +0.000 A 
ATOM      9  C   UNL     1       1.825   4.956  19.790  0.00  0.00    +0.000 A 
ENDROOT
BRANCH   1  11
ATOM     10  N   UNL     1       1.304   8.472  20.548  0.00  0.00    +0.000 NA
ATOM     11  C   UNL     1       1.445   7.244  20.901  0.00  0.00    +0.000 C 
BRANCH  10  15
ATOM     12  N   UNL     1       0.986  11.062  19.706  0.00  0.00    +0.000 NA
ATOM     13  C   UNL     1       0.534  10.741  20.866  0.00  0.00    +0.000 C 
ATOM     14  N   UNL     1      -0.124  11.706  21.669  0.00  0.00    +0.000 N 
ATOM     15  N   UNL     1       0.702   9.414  21.348  0.00  0.00    +0.000 N 
ATOM     16  H   UNL     1       0.886  12.017  19.331  0.00  0.00    +0.000 HD
ATOM     17  H   UNL     1      -0.253  12.671  21.330  0.00  0.00    +0.000 HD
ATOM     18  H   UNL     1      -0.489  11.450  22.597  0.00  0.00    +0.000 HD
ATOM     19  H   UNL     1       0.356   9.162  22.287  0.00  0.00    +0.000 HD
ENDBRANCH  10  15
ENDBRANCH   1  11
BRANCH   3  20
ATOM     20  C   UNL     1       4.326   5.558  17.177  0.00  0.00    +0.000 C 
BRANCH  20  21
ATOM     21  C   UNL     1       5.676   6.007  17.671  0.00  0.00    +0.000 A 
ATOM     22  C   UNL     1       6.273   7.166  17.142  0.00  0.00    +0.000 A 
ATOM     23  C   UNL     1       7.525   7.588  17.599  0.00  0.00    +0.000 A 
ATOM     24  C   UNL     1       8.189   6.857  18.587  0.00  0.00    +0.000 A 
ATOM     25  C   UNL     1       7.601   5.707  19.122  0.00  0.00    +0.000 A 
ATOM     26  C   UNL     1       6.349   5.283  18.667  0.00  0.00    +0.000 A 
ENDBRANCH  20  21
ENDBRANCH   3  20
TORSDOF 4
ENDMDL
MODEL 3
REMARK VINA RESULT:      -7.8      1.768      2.375
REMARK  Name = 
REMARK  4 active torsions:
REMARK  status: ('A' for Active; 'I' for Inactive)
REMARK    1  A    between atoms: N_4  and  N_5
REMARK    2  A    between atoms: C_6  and  C_7
REMARK    3  A    between atoms: N_9  and  C_10
REMARK    4  A    between atoms: C_10  and  C_11
REMARK                            x       y       z     vdW  Elec       q    Type
REMARK                         _______ _______ _______ _____ _____    ______ ____
ROOT
ATOM      1  C   UNL     1       2.767   6.048  19.803  0.00  0.00    +0.000 A 
ATOM      2  C   UNL     1       4.103   5.932  19.444  0.00  0.00    +0.000 A 
ATOM      3  N   UNL     1       4.406   4.641  19.188  0.00  0.00    +0.000 N 
ATOM      4  C   UNL     1       3.275   3.932  19.392  0.00  0.00    +0.000 A 
ATOM      5  C   UNL     1       3.082   2.554  19.262  0.00  0.00    +0.000 A 
ATOM      6  C   UNL     1       1.805   2.037  19.548  0.00  0.00    +0.000 A 
ATOM      7  C   UNL     1       0.758   2.894  19.948  0.00  0.00    +0.000 A 
ATOM      8  C   UNL     1       0.973   4.279  20.063  0.00  0.00    +0.000 A 
ATOM      9  C   UNL     1       2.249   4.765  19.778  0.00  0.00    +0.000 A 
ENDROOT
BRANCH   1  11
ATOM     10  N   UNL     1       1.813   8.118  19.157  0.00  0.00    +0.000 NA
ATOM     11  C   UNL     1       2.081   7.309  20.119  0.00  0.00    +0.000 C 
BRANCH  10  15
ATOM     12  N   UNL     1       2.102  10.211  17.410  0.00  0.00    +0.000 NA
ATOM     13  C   UNL     1       1.299  10.356  18.403  0.00  0.00    +0.000 C 
ATOM     14  N   UNL     1       0.576  11.564  18.566  0.00  0.00    +0.000 N 
ATOM     15  N   UNL     1       1.141   9.303  19.345  0.00  0.00    +0.000 N 
ATOM     16  H   UNL     1       2.244  10.958  16.713  0.00  0.00    +0.000 HD
ATOM     17  H   UNL     1       0.680  12.335  17.890  0.00  0.00    +0.000 HD
ATOM     18  H   UNL     1      -0.070  11.681  19.359  0.00  0.00    +0.000 HD
ATOM     19  H   UNL     1       0.510   9.427  20.152  0.00  0.00    +0.000 HD
ENDBRANCH  10  15
ENDBRANCH   1  11
BRANCH   3  20
ATOM     20  C   UNL     1       5.721   4.156  18.766  0.00  0.00    +0.000 C 
BRANCH  20  21
ATOM     21  C   UNL     1       5.905   4.370  17.287  0.00  0.00    +0.000 A 
ATOM     22  C   UNL     1       4.827   4.173  16.404  0.00  0.00    +0.000 A 
ATOM     23  C   UNL     1       4.993   4.373  15.031  0.00  0.00    +0.000 A 
ATOM     24  C   UNL     1       6.235   4.771  14.528  0.00  0.00    +0.000 A 
ATOM     25  C   UNL     1       7.309   4.974  15.399  0.00  0.00    +0.000 A 
ATOM     26  C   UNL     1       7.147   4.776  16.774  0.00  0.00    +0.000 A 
ENDBRANCH  20  21
ENDBRANCH   3  20
TORSDOF 4
ENDMDL
MODEL 4
REMARK VINA RESULT:      -7.8      1.785      2.389
REMARK  Name = 
REMARK  4 active torsions:
REMARK  status: ('A' for Active; 'I' for Inactive)
REMARK    1  A    between atoms: N_4  and  N_5
REMARK    2  A    between atoms: C_6  and  C_7
REMARK    3  A    between atoms: N_9  and  C_10
REMARK    4  A    between atoms: C_10  and  C_11
REMARK                            x       y       z     vdW  Elec       q    Type
REMARK                         _______ _______ _______ _____ _____    ______ ____
ROOT
ATOM      1  C   UNL     1       2.754   6.101  19.771  0.00  0.00    +0.000 A 
ATOM      2  C   UNL     1       4.090   5.996  19.410  0.00  0.00    +0.000 A 
ATOM      3  N   UNL     1       4.408   4.706  19.172  0.00  0.00    +0.000 N 
ATOM      4  C   UNL     1       3.286   3.986  19.389  0.00  0.00    +0.000 A 
ATOM      5  C   UNL     1       3.110   2.604  19.278  0.00  0.00    +0.000 A 
ATOM      6  C   UNL     1       1.840   2.075  19.576  0.00  0.00    +0.000 A 
ATOM      7  C   UNL     1       0.783   2.926  19.967  0.00  0.00    +0.000 A 
ATOM      8  C   UNL     1       0.983   4.315  20.062  0.00  0.00    +0.000 A 
ATOM      9  C   UNL     1       2.252   4.812  19.766  0.00  0.00    +0.000 A 
ENDROOT
BRANCH   1  11
ATOM     10  N   UNL     1       1.805   8.166  19.105  0.00  0.00    +0.000 NA
ATOM     11  C   UNL     1       2.054   7.358  20.072  0.00  0.00    +0.000 C 
BRANCH  10  15
ATOM     12  N   UNL     1       2.210  10.302  17.433  0.00  0.00    +0.000 NA
ATOM     13  C   UNL     1       1.342  10.424  18.375  0.00  0.00    +0.000 C 
ATOM     14  N   UNL     1       0.611  11.629  18.520  0.00  0.00    +0.000 N 
ATOM     15  N   UNL     1       1.122   9.347  19.277  0.00  0.00    +0.000 N 
ATOM     16  H   UNL     1       2.397  11.065  16.767  0.00  0.00    +0.000 HD
ATOM     17  H   UNL     1       0.759  12.416  17.872  0.00  0.00    +0.000 HD
ATOM     18  H   UNL     1      -0.087  11.727  19.272  0.00  0.00    +0.000 HD
ATOM     19  H   UNL     1       0.440   9.452  20.044  0.00  0.00    +0.000 HD
ENDBRANCH  10  15
ENDBRANCH   1  11
BRANCH   3  20
ATOM     20  C   UNL     1       5.727   4.230  18.752  0.00  0.00    +0.000 C 
BRANCH  20  21
ATOM     21  C   UNL     1       5.898   4.409  17.267  0.00  0.00    +0.000 A 
ATOM     22  C   UNL     1       7.162   4.721  16.732  0.00  0.00    +0.000 A 
ATOM     23  C   UNL     1       7.324   4.886  15.354  0.00  0.00    +0.000 A 
ATOM     24  C   UNL     1       6.229   4.741  14.499  0.00  0.00    +0.000 A 
ATOM     25  C   UNL     1       4.971   4.426  15.021  0.00  0.00    +0.000 A 
ATOM     26  C   UNL     1       4.804   4.260  16.400  0.00  0.00    +0.000 A 
ENDBRANCH  20  21
ENDBRANCH   3  20
TORSDOF 4
ENDMDL
MODEL 5
REMARK VINA RESULT:      -7.7      1.668      4.934
REMARK  Name = 
REMARK  4 active torsions:
REMARK  status: ('A' for Active; 'I' for Inactive)
REMARK    1  A    between atoms: N_4  and  N_5
REMARK    2  A    between atoms: C_6  and  C_7
REMARK    3  A    between atoms: N_9  and  C_10
REMARK    4  A    between atoms: C_10  and  C_11
REMARK                            x       y       z     vdW  Elec       q    Type
REMARK                         _______ _______ _______ _____ _____    ______ ____
ROOT
ATOM      1  C   UNL     1       3.654   7.060  17.593  0.00  0.00    +0.000 A 
ATOM      2  C   UNL     1       2.803   5.967  17.691  0.00  0.00    +0.000 A 
ATOM      3  N   UNL     1       3.505   4.819  17.585  0.00  0.00    +0.000 N 
ATOM      4  C   UNL     1       4.798   5.172  17.409  0.00  0.00    +0.000 A 
ATOM      5  C   UNL     1       5.907   4.340  17.244  0.00  0.00    +0.000 A 
ATOM      6  C   UNL     1       7.164   4.945  17.058  0.00  0.00    +0.000 A 
ATOM      7  C   UNL     1       7.287   6.352  17.046  0.00  0.00    +0.000 A 
ATOM      8  C   UNL     1       6.156   7.169  17.224  0.00  0.00    +0.000 A 
ATOM      9  C   UNL     1       4.922   6.543  17.402  0.00  0.00    +0.000 A 
ENDROOT
BRANCH   1  11
ATOM     10  N   UNL     1       1.994   8.749  17.568  0.00  0.00    +0.000 NA
ATOM     11  C   UNL     1       3.241   8.466  17.697  0.00  0.00    +0.000 C 
BRANCH  10  15
ATOM     12  N   UNL     1       0.651   9.557  19.819  0.00  0.00    +0.000 NA
ATOM     13  C   UNL     1       0.833  10.416  18.880  0.00  0.00    +0.000 C 
ATOM     14  N   UNL     1       0.363  11.745  19.026  0.00  0.00    +0.000 N 
ATOM     15  N   UNL     1       1.503  10.028  17.687  0.00  0.00    +0.000 N 
ATOM     16  H   UNL     1       0.164   9.804  20.693  0.00  0.00    +0.000 HD
ATOM     17  H   UNL     1      -0.122  12.039  19.886  0.00  0.00    +0.000 HD
ATOM     18  H   UNL     1       0.511  12.435  18.276  0.00  0.00    +0.000 HD
ATOM     19  H   UNL     1       1.632  10.713  16.926  0.00  0.00    +0.000 HD
ENDBRANCH  10  15
ENDBRANCH   1  11
BRANCH   3  20
ATOM     20  C   UNL     1       2.932   3.475  17.661  0.00  0.00    +0.000 C 
BRANCH  20  21
ATOM     21  C   UNL     1       2.487   3.177  19.068  0.00  0.00    +0.000 A 
ATOM     22  C   UNL     1       1.124   3.257  19.410  0.00  0.00    +0.000 A 
ATOM     23  C   UNL     1       0.706   2.980  20.715  0.00  0.00    +0.000 A 
ATOM     24  C   UNL     1       1.643   2.619  21.687  0.00  0.00    +0.000 A 
ATOM     25  C   UNL     1       2.998   2.532  21.354  0.00  0.00    +0.000 A 
ATOM     26  C   UNL     1       3.420   2.808  20.049  0.00  0.00    +0.000 A 
ENDBRANCH  20  21
ENDBRANCH   3  20
TORSDOF 4
ENDMDL
MODEL 6
REMARK VINA RESULT:      -7.7      1.669      4.889
REMARK  Name = 
REMARK  4 active torsions:
REMARK  status: ('A' for Active; 'I' for Inactive)
REMARK    1  A    between atoms: N_4  and  N_5
REMARK    2  A    between atoms: C_6  and  C_7
REMARK    3  A    between atoms: N_9  and  C_10
REMARK    4  A    between atoms: C_10  and  C_11
REMARK                            x       y       z     vdW  Elec       q    Type
REMARK                         _______ _______ _______ _____ _____    ______ ____
ROOT
ATOM      1  C   UNL     1       3.643   7.060  17.621  0.00  0.00    +0.000 A 
ATOM      2  C   UNL     1       2.790   5.970  17.718  0.00  0.00    +0.000 A 
ATOM      3  N   UNL     1       3.487   4.820  17.590  0.00  0.00    +0.000 N 
ATOM      4  C   UNL     1       4.778   5.171  17.402  0.00  0.00    +0.000 A 
ATOM      5  C   UNL     1       5.883   4.337  17.213  0.00  0.00    +0.000 A 
ATOM      6  C   UNL     1       7.139   4.940  17.018  0.00  0.00    +0.000 A 
ATOM      7  C   UNL     1       7.267   6.346  17.021  0.00  0.00    +0.000 A 
ATOM      8  C   UNL     1       6.142   7.165  17.222  0.00  0.00    +0.000 A 
ATOM      9  C   UNL     1       4.908   6.542  17.408  0.00  0.00    +0.000 A 
ENDROOT
BRANCH   1  11
ATOM     10  N   UNL     1       2.002   8.767  17.553  0.00  0.00    +0.000 NA
ATOM     11  C   UNL     1       3.237   8.468  17.746  0.00  0.00    +0.000 C 
BRANCH  10  15
ATOM     12  N   UNL     1       0.660   9.557  19.810  0.00  0.00    +0.000 NA
ATOM     13  C   UNL     1       0.847  10.425  18.879  0.00  0.00    +0.000 C 
ATOM     14  N   UNL     1       0.381  11.754  19.038  0.00  0.00    +0.000 N 
ATOM     15  N   UNL     1       1.516  10.047  17.683  0.00  0.00    +0.000 N 
ATOM     16  H   UNL     1       0.173   9.798  20.686  0.00  0.00    +0.000 HD
ATOM     17  H   UNL     1      -0.104  12.042  19.901  0.00  0.00    +0.000 HD
ATOM     18  H   UNL     1       0.532  12.451  18.296  0.00  0.00    +0.000 HD
ATOM     19  H   UNL     1       1.649  10.738  16.929  0.00  0.00    +0.000 HD
ENDBRANCH  10  15
ENDBRANCH   1  11
BRANCH   3  20
ATOM     20  C   UNL     1       2.910   3.477  17.658  0.00  0.00    +0.000 C 
BRANCH  20  21
ATOM     21  C   UNL     1       2.465   3.172  19.064  0.00  0.00    +0.000 A 
ATOM     22  C   UNL     1       3.411   2.816  20.044  0.00  0.00    +0.000 A 
ATOM     23  C   UNL     1       3.002   2.534  21.351  0.00  0.00    +0.000 A 
ATOM     24  C   UNL     1       1.648   2.605  21.690  0.00  0.00    +0.000 A 
ATOM     25  C   UNL     1       0.704   2.963  20.724  0.00  0.00    +0.000 A 
ATOM     26  C   UNL     1       1.108   3.247  19.416  0.00  0.00    +0.000 A 
ENDBRANCH  20  21
ENDBRANCH   3  20
TORSDOF 4
ENDMDL
MODEL 7
REMARK VINA RESULT:      -7.6      1.620      2.380
REMARK  Name = 
REMARK  4 active torsions:
REMARK  status: ('A' for Active; 'I' for Inactive)
REMARK    1  A    between atoms: N_4  and  N_5
REMARK    2  A    between atoms: C_6  and  C_7
REMARK    3  A    between atoms: N_9  and  C_10
REMARK    4  A    between atoms: C_10  and  C_11
REMARK                            x       y       z     vdW  Elec       q    Type
REMARK                         _______ _______ _______ _____ _____    ______ ____
ROOT
ATOM      1  C   UNL     1       2.790   6.343  19.372  0.00  0.00    +0.000 A 
ATOM      2  C   UNL     1       4.089   6.183  18.911  0.00  0.00    +0.000 A 
ATOM      3  N   UNL     1       4.501   4.913  19.112  0.00  0.00    +0.000 N 
ATOM      4  C   UNL     1       3.476   4.264  19.707  0.00  0.00    +0.000 A 
ATOM      5  C   UNL     1       3.419   2.930  20.120  0.00  0.00    +0.000 A 
ATOM      6  C   UNL     1       2.239   2.482  20.739  0.00  0.00    +0.000 A 
ATOM      7  C   UNL     1       1.150   3.361  20.927  0.00  0.00    +0.000 A 
ATOM      8  C   UNL     1       1.227   4.697  20.496  0.00  0.00    +0.000 A 
ATOM      9  C   UNL     1       2.411   5.117  19.889  0.00  0.00    +0.000 A 
ENDROOT
BRANCH   1  11
ATOM     10  N   UNL     1       1.655   8.161  20.381  0.00  0.00    +0.000 NA
ATOM     11  C   UNL     1       2.008   7.585  19.288  0.00  0.00    +0.000 C 
BRANCH  10  15
ATOM     12  N   UNL     1       1.172   9.476  22.738  0.00  0.00    +0.000 NA
ATOM     13  C   UNL     1       0.747  10.009  21.647  0.00  0.00    +0.000 C 
ATOM     14  N   UNL     1       0.066  11.251  21.678  0.00  0.00    +0.000 N 
ATOM     15  N   UNL     1       0.956   9.345  20.408  0.00  0.00    +0.000 N 
ATOM     16  H   UNL     1       1.031   9.928  23.653  0.00  0.00    +0.000 HD
ATOM     17  H   UNL     1      -0.090  11.743  22.569  0.00  0.00    +0.000 HD
ATOM     18  H   UNL     1      -0.272  11.681  20.805  0.00  0.00    +0.000 HD
ATOM     19  H   UNL     1       0.599   9.763  19.535  0.00  0.00    +0.000 HD
ENDBRANCH  10  15
ENDBRANCH   1  11
BRANCH   3  20
ATOM     20  C   UNL     1       5.813   4.386  18.731  0.00  0.00    +0.000 C 
BRANCH  20  21
ATOM     21  C   UNL     1       5.986   4.448  17.237  0.00  0.00    +0.000 A 
ATOM     22  C   UNL     1       7.182   4.943  16.683  0.00  0.00    +0.000 A 
ATOM     23  C   UNL     1       7.347   5.001  15.297  0.00  0.00    +0.000 A 
ATOM     24  C   UNL     1       6.323   4.566  14.452  0.00  0.00    +0.000 A 
ATOM     25  C   UNL     1       5.134   4.070  14.994  0.00  0.00    +0.000 A 
ATOM     26  C   UNL     1       4.964   4.009  16.381  0.00  0.00    +0.000 A 
ENDBRANCH  20  21
ENDBRANCH   3  20
TORSDOF 4
ENDMDL
MODEL 8
REMARK VINA RESULT:      -7.6      1.607      2.345
REMARK  Name = 
REMARK  4 active torsions:
REMARK  status: ('A' for Active; 'I' for Inactive)
REMARK    1  A    between atoms: N_4  and  N_5
REMARK    2  A    between atoms: C_6  and  C_7
REMARK    3  A    between atoms: N_9  and  C_10
REMARK    4  A    between atoms: C_10  and  C_11
REMARK                            x       y       z     vdW  Elec       q    Type
REMARK                         _______ _______ _______ _____ _____    ______ ____
ROOT
ATOM      1  C   UNL     1       2.754   6.360  19.428  0.00  0.00    +0.000 A 
ATOM      2  C   UNL     1       4.064   6.244  18.984  0.00  0.00    +0.000 A 
ATOM      3  N   UNL     1       4.509   4.983  19.173  0.00  0.00    +0.000 N 
ATOM      4  C   UNL     1       3.495   4.298  19.745  0.00  0.00    +0.000 A 
ATOM      5  C   UNL     1       3.470   2.957  20.139  0.00  0.00    +0.000 A 
ATOM      6  C   UNL     1       2.294   2.467  20.735  0.00  0.00    +0.000 A 
ATOM      7  C   UNL     1       1.178   3.312  20.920  0.00  0.00    +0.000 A 
ATOM      8  C   UNL     1       1.223   4.656  20.507  0.00  0.00    +0.000 A 
ATOM      9  C   UNL     1       2.403   5.117  19.923  0.00  0.00    +0.000 A 
ENDROOT
BRANCH   1  11
ATOM     10  N   UNL     1       1.712   8.236  20.431  0.00  0.00    +0.000 NA
ATOM     11  C   UNL     1       1.939   7.581  19.350  0.00  0.00    +0.000 C 
BRANCH  10  15
ATOM     12  N   UNL     1       1.025   9.435  22.800  0.00  0.00    +0.000 NA
ATOM     13  C   UNL     1       0.679  10.012  21.705  0.00  0.00    +0.000 C 
ATOM     14  N   UNL     1      -0.023  11.243  21.737  0.00  0.00    +0.000 N 
ATOM     15  N   UNL     1       0.995   9.409  20.457  0.00  0.00    +0.000 N 
ATOM     16  H   UNL     1       0.806   9.843  23.721  0.00  0.00    +0.000 HD
ATOM     17  H   UNL     1      -0.256  11.692  22.635  0.00  0.00    +0.000 HD
ATOM     18  H   UNL     1      -0.299  11.709  20.861  0.00  0.00    +0.000 HD
ATOM     19  H   UNL     1       0.700   9.863  19.579  0.00  0.00    +0.000 HD
ENDBRANCH  10  15
ENDBRANCH   1  11
BRANCH   3  20
ATOM     20  C   UNL     1       5.840   4.499  18.804  0.00  0.00    +0.000 C 
BRANCH  20  21
ATOM     21  C   UNL     1       5.994   4.489  17.306  0.00  0.00    +0.000 A 
ATOM     22  C   UNL     1       4.950   4.016  16.491  0.00  0.00    +0.000 A 
ATOM     23  C   UNL     1       5.088   4.007  15.100  0.00  0.00    +0.000 A 
ATOM     24  C   UNL     1       6.269   4.470  14.513  0.00  0.00    +0.000 A 
ATOM     25  C   UNL     1       7.309   4.946  15.316  0.00  0.00    +0.000 A 
ATOM     26  C   UNL     1       7.174   4.957  16.707  0.00  0.00    +0.000 A 
ENDBRANCH  20  21
ENDBRANCH   3  20
TORSDOF 4
ENDMDL
MODEL 9
REMARK VINA RESULT:      -7.5      1.231      1.444
REMARK  Name = 
REMARK  4 active torsions:
REMARK  status: ('A' for Active; 'I' for Inactive)
REMARK    1  A    between atoms: N_4  and  N_5
REMARK    2  A    between atoms: C_6  and  C_7
REMARK    3  A    between atoms: N_9  and  C_10
REMARK    4  A    between atoms: C_10  and  C_11
REMARK                            x       y       z     vdW  Elec       q    Type
REMARK                         _______ _______ _______ _____ _____    ______ ____
ROOT
ATOM      1  C   UNL     1       2.137   5.842  20.032  0.00  0.00    +0.000 A 
ATOM      2  C   UNL     1       2.893   6.174  18.916  0.00  0.00    +0.000 A 
ATOM      3  N   UNL     1       3.711   5.151  18.588  0.00  0.00    +0.000 N 
ATOM      4  C   UNL     1       3.490   4.174  19.494  0.00  0.00    +0.000 A 
ATOM      5  C   UNL     1       4.100   2.920  19.580  0.00  0.00    +0.000 A 
ATOM      6  C   UNL     1       3.714   2.070  20.633  0.00  0.00    +0.000 A 
ATOM      7  C   UNL     1       2.735   2.481  21.564  0.00  0.00    +0.000 A 
ATOM      8  C   UNL     1       2.129   3.745  21.451  0.00  0.00    +0.000 A 
ATOM      9  C   UNL     1       2.533   4.569  20.401  0.00  0.00    +0.000 A 
ENDROOT
BRANCH   1  11
ATOM     10  N   UNL     1       1.286   7.976  20.611  0.00  0.00    +0.000 NA
ATOM     11  C   UNL     1       1.118   6.702  20.651  0.00  0.00    +0.000 C 
BRANCH  10  15
ATOM     12  N   UNL     1       1.826   9.419  22.880  0.00  0.00    +0.000 NA
ATOM     13  C   UNL     1       0.699   9.612  22.291  0.00  0.00    +0.000 C 
ATOM     14  N   UNL     1      -0.220  10.562  22.802  0.00  0.00    +0.000 N 
ATOM     15  N   UNL     1       0.373   8.865  21.126  0.00  0.00    +0.000 N 
ATOM     16  H   UNL     1       2.090   9.939  23.729  0.00  0.00    +0.000 HD
ATOM     17  H   UNL     1       0.005  11.111  23.645  0.00  0.00    +0.000 HD
ATOM     18  H   UNL     1      -1.121  10.720  22.330  0.00  0.00    +0.000 HD
ATOM     19  H   UNL     1      -0.539   9.007  20.665  0.00  0.00    +0.000 HD
ENDBRANCH  10  15
ENDBRANCH   1  11
BRANCH   3  20
ATOM     20  C   UNL     1       4.636   5.147  17.453  0.00  0.00    +0.000 C 
BRANCH  20  21
ATOM     21  C   UNL     1       5.894   5.897  17.804  0.00  0.00    +0.000 A 
ATOM     22  C   UNL     1       6.760   5.401  18.797  0.00  0.00    +0.000 A 
ATOM     23  C   UNL     1       7.930   6.093  19.124  0.00  0.00    +0.000 A 
ATOM     24  C   UNL     1       8.245   7.283  18.463  0.00  0.00    +0.000 A 
ATOM     25  C   UNL     1       7.393   7.780  17.473  0.00  0.00    +0.000 A 
ATOM     26  C   UNL     1       6.222   7.090  17.142  0.00  0.00    +0.000 A 
ENDBRANCH  20  21
ENDBRANCH   3  20
TORSDOF 4
ENDMDL
