MODEL 1
REMARK VINA RESULT:      -7.7      0.000      0.000
REMARK  Name = 
REMARK  8 active torsions:
REMARK  status: ('A' for Active; 'I' for Inactive)
REMARK    1  A    between atoms: C_1  and  C_2
REMARK    2  A    between atoms: C_2  and  O_4
REMARK    3  A    between atoms: O_4  and  C_5
REMARK    4  A    between atoms: C_13  and  C_14
REMARK    5  A    between atoms: C_13  and  O_15
REMARK    6  A    between atoms: O_15  and  O_16
REMARK    7  A    between atoms: C_20  and  C_21
REMARK    8  A    between atoms: C_20  and  C_22
REMARK                            x       y       z     vdW  Elec       q    Type
REMARK                         _______ _______ _______ _____ _____    ______ ____
ROOT
ATOM      1  C   UNL     1       5.651   4.840  14.455  0.00  0.00    +0.000 C 
ATOM      2  O   UNL     1       6.927   5.371  14.043  0.00  0.00    +0.000 OA
ATOM      3  C   UNL     1       7.753   4.909  15.048  0.00  0.00    +0.000 C 
ATOM      4  C   UNL     1       7.154   4.448  16.143  0.00  0.00    +0.000 C 
ATOM      5  C   UNL     1       5.673   4.697  16.026  0.00  0.00    +0.000 C 
ATOM      6  C   UNL     1       4.609   3.646  16.425  0.00  0.00    +0.000 C 
ATOM      7  C   UNL     1       3.720   4.356  17.397  0.00  0.00    +0.000 C 
ATOM      8  C   UNL     1       2.517   4.025  17.885  0.00  0.00    +0.000 C 
ATOM      9  C   UNL     1       2.338   4.233  19.406  0.00  0.00    +0.000 C 
ATOM     10  C   UNL     1       0.929   3.736  19.701  0.00  0.00    +0.000 C 
ATOM     11  C   UNL     1       3.688   3.624  19.933  0.00  0.00    +0.000 C 
ATOM     12  C   UNL     1       4.935   4.534  19.392  0.00  0.00    +0.000 C 
ATOM     13  C   UNL     1       4.509   5.362  18.140  0.00  0.00    +0.000 C 
ATOM     14  C   UNL     1       5.349   5.947  16.968  0.00  0.00    +0.000 C 
ATOM     15  C   UNL     1       4.458   6.970  16.191  0.00  0.00    +0.000 C 
ATOM     16  C   UNL     1       6.501   6.771  17.577  0.00  0.00    +0.000 C 
ENDROOT
BRANCH   1  17
ATOM     17  O   UNL     1       5.324   3.636  13.668  0.00  0.00    +0.000 OA
BRANCH  17  19
ATOM     18  C   UNL     1       4.461   3.274  11.498  0.00  0.00    +0.000 C 
ATOM     19  C   UNL     1       5.668   3.468  12.359  0.00  0.00    +0.000 C 
ATOM     20  O   UNL     1       6.795   3.454  11.896  0.00  0.00    +0.000 OA
ENDBRANCH  17  19
ENDBRANCH   1  17
BRANCH   9  21
ATOM     21  O   UNL     1       2.337   5.602  19.881  0.00  0.00    +0.000 OA
BRANCH  21  22
ATOM     22  O   UNL     1       2.259   5.542  21.357  0.00  0.00    +0.000 OA
ATOM     23  H   UNL     1       2.498   4.603  21.466  0.00  0.00    +0.000 HD
ENDBRANCH  21  22
ENDBRANCH   9  21
TORSDOF 4
ENDMDL
MODEL 2
REMARK VINA RESULT:      -7.0      1.445      1.632
REMARK  Name = 
REMARK  8 active torsions:
REMARK  status: ('A' for Active; 'I' for Inactive)
REMARK    1  A    between atoms: C_1  and  C_2
REMARK    2  A    between atoms: C_2  and  O_4
REMARK    3  A    between atoms: O_4  and  C_5
REMARK    4  A    between atoms: C_13  and  C_14
REMARK    5  A    between atoms: C_13  and  O_15
REMARK    6  A    between atoms: O_15  and  O_16
REMARK    7  A    between atoms: C_20  and  C_21
REMARK    8  A    between atoms: C_20  and  C_22
REMARK                            x       y       z     vdW  Elec       q    Type
REMARK                         _______ _______ _______ _____ _____    ______ ____
ROOT
ATOM      1  C   UNL     1       5.956   5.271  15.505  0.00  0.00    +0.000 C 
ATOM      2  O   UNL     1       7.233   5.934  15.625  0.00  0.00    +0.000 OA
ATOM      3  C   UNL     1       7.873   5.130  16.546  0.00  0.00    +0.000 C 
ATOM      4  C   UNL     1       7.107   4.277  17.223  0.00  0.00    +0.000 C 
ATOM      5  C   UNL     1       5.665   4.536  16.870  0.00  0.00    +0.000 C 
ATOM      6  C   UNL     1       4.649   3.402  16.595  0.00  0.00    +0.000 C 
ATOM      7  C   UNL     1       3.512   3.675  17.530  0.00  0.00    +0.000 C 
ATOM      8  C   UNL     1       2.273   3.170  17.569  0.00  0.00    +0.000 C 
ATOM      9  C   UNL     1       1.762   2.776  18.975  0.00  0.00    +0.000 C 
ATOM     10  C   UNL     1       0.377   2.190  18.732  0.00  0.00    +0.000 C 
ATOM     11  C   UNL     1       3.026   2.025  19.532  0.00  0.00    +0.000 C 
ATOM     12  C   UNL     1       4.263   3.086  19.669  0.00  0.00    +0.000 C 
ATOM     13  C   UNL     1       4.028   4.327  18.753  0.00  0.00    +0.000 C 
ATOM     14  C   UNL     1       5.032   5.326  18.109  0.00  0.00    +0.000 C 
ATOM     15  C   UNL     1       4.228   6.559  17.585  0.00  0.00    +0.000 C 
ATOM     16  C   UNL     1       5.947   5.864  19.227  0.00  0.00    +0.000 C 
ENDROOT
BRANCH   1  17
ATOM     17  O   UNL     1       5.918   4.459  14.275  0.00  0.00    +0.000 OA
BRANCH  17  19
ATOM     18  C   UNL     1       6.568   3.573  12.183  0.00  0.00    +0.000 C 
ATOM     19  C   UNL     1       6.803   4.598  13.246  0.00  0.00    +0.000 C 
ATOM     20  O   UNL     1       7.697   5.422  13.157  0.00  0.00    +0.000 OA
ENDBRANCH  17  19
ENDBRANCH   1  17
BRANCH   9  21
ATOM     21  O   UNL     1       1.529   3.858  19.910  0.00  0.00    +0.000 OA
BRANCH  21  22
ATOM     22  O   UNL     1       0.841   3.269  21.080  0.00  0.00    +0.000 OA
ATOM     23  H   UNL     1       1.046   3.972  21.724  0.00  0.00    +0.000 HD
ENDBRANCH  21  22
ENDBRANCH   9  21
TORSDOF 4
ENDMDL
MODEL 3
REMARK VINA RESULT:      -6.5      2.053      4.034
REMARK  Name = 
REMARK  8 active torsions:
REMARK  status: ('A' for Active; 'I' for Inactive)
REMARK    1  A    between atoms: C_1  and  C_2
REMARK    2  A    between atoms: C_2  and  O_4
REMARK    3  A    between atoms: O_4  and  C_5
REMARK    4  A    between atoms: C_13  and  C_14
REMARK    5  A    between atoms: C_13  and  O_15
REMARK    6  A    between atoms: O_15  and  O_16
REMARK    7  A    between atoms: C_20  and  C_21
REMARK    8  A    between atoms: C_20  and  C_22
REMARK                            x       y       z     vdW  Elec       q    Type
REMARK                         _______ _______ _______ _____ _____    ______ ____
ROOT
ATOM      1  C   UNL     1       6.952   6.072  16.666  0.00  0.00    +0.000 C 
ATOM      2  O   UNL     1       7.670   5.463  15.572  0.00  0.00    +0.000 OA
ATOM      3  C   UNL     1       6.650   5.232  14.671  0.00  0.00    +0.000 C 
ATOM      4  C   UNL     1       5.409   5.320  15.144  0.00  0.00    +0.000 C 
ATOM      5  C   UNL     1       5.473   5.526  16.635  0.00  0.00    +0.000 C 
ATOM      6  C   UNL     1       4.574   6.539  17.384  0.00  0.00    +0.000 C 
ATOM      7  C   UNL     1       3.899   5.732  18.449  0.00  0.00    +0.000 C 
ATOM      8  C   UNL     1       3.204   6.116  19.528  0.00  0.00    +0.000 C 
ATOM      9  C   UNL     1       1.894   5.335  19.784  0.00  0.00    +0.000 C 
ATOM     10  C   UNL     1       1.284   5.997  21.013  0.00  0.00    +0.000 C 
ATOM     11  C   UNL     1       1.297   5.303  18.330  0.00  0.00    +0.000 C 
ATOM     12  C   UNL     1       2.285   4.427  17.364  0.00  0.00    +0.000 C 
ATOM     13  C   UNL     1       3.719   4.344  17.974  0.00  0.00    +0.000 C 
ATOM     14  C   UNL     1       5.104   4.120  17.301  0.00  0.00    +0.000 C 
ATOM     15  C   UNL     1       6.142   3.783  18.420  0.00  0.00    +0.000 C 
ATOM     16  C   UNL     1       5.005   2.855  16.425  0.00  0.00    +0.000 C 
ENDROOT
BRANCH   1  17
ATOM     17  O   UNL     1       7.137   7.535  16.643  0.00  0.00    +0.000 OA
BRANCH  17  19
ATOM     18  C   UNL     1       8.291   7.332  18.695  0.00  0.00    +0.000 C 
ATOM     19  C   UNL     1       7.757   8.239  17.633  0.00  0.00    +0.000 C 
ATOM     20  O   UNL     1       7.878   9.450  17.703  0.00  0.00    +0.000 OA
ENDBRANCH  17  19
ENDBRANCH   1  17
BRANCH   9  21
ATOM     21  O   UNL     1       2.029   3.943  20.162  0.00  0.00    +0.000 OA
BRANCH  21  22
ATOM     22  O   UNL     1       0.661   3.430  20.394  0.00  0.00    +0.000 OA
ATOM     23  H   UNL     1       0.774   2.555  19.979  0.00  0.00    +0.000 HD
ENDBRANCH  21  22
ENDBRANCH   9  21
TORSDOF 4
ENDMDL
MODEL 4
REMARK VINA RESULT:      -6.4      2.005      3.982
REMARK  Name = 
REMARK  8 active torsions:
REMARK  status: ('A' for Active; 'I' for Inactive)
REMARK    1  A    between atoms: C_1  and  C_2
REMARK    2  A    between atoms: C_2  and  O_4
REMARK    3  A    between atoms: O_4  and  C_5
REMARK    4  A    between atoms: C_13  and  C_14
REMARK    5  A    between atoms: C_13  and  O_15
REMARK    6  A    between atoms: O_15  and  O_16
REMARK    7  A    between atoms: C_20  and  C_21
REMARK    8  A    between atoms: C_20  and  C_22
REMARK                            x       y       z     vdW  Elec       q    Type
REMARK                         _______ _______ _______ _____ _____    ______ ____
ROOT
ATOM      1  C   UNL     1       6.922   5.299  16.813  0.00  0.00    +0.000 C 
ATOM      2  O   UNL     1       7.465   4.319  15.903  0.00  0.00    +0.000 OA
ATOM      3  C   UNL     1       6.421   4.162  15.015  0.00  0.00    +0.000 C 
ATOM      4  C   UNL     1       5.241   4.647  15.395  0.00  0.00    +0.000 C 
ATOM      5  C   UNL     1       5.353   5.136  16.815  0.00  0.00    +0.000 C 
ATOM      6  C   UNL     1       4.735   6.471  17.297  0.00  0.00    +0.000 C 
ATOM      7  C   UNL     1       3.880   6.093  18.466  0.00  0.00    +0.000 C 
ATOM      8  C   UNL     1       3.302   6.851  19.407  0.00  0.00    +0.000 C 
ATOM      9  C   UNL     1       1.839   6.484  19.746  0.00  0.00    +0.000 C 
ATOM     10  C   UNL     1       1.412   7.516  20.783  0.00  0.00    +0.000 C 
ATOM     11  C   UNL     1       1.254   6.297  18.299  0.00  0.00    +0.000 C 
ATOM     12  C   UNL     1       1.992   5.025  17.583  0.00  0.00    +0.000 C 
ATOM     13  C   UNL     1       3.359   4.723  18.271  0.00  0.00    +0.000 C 
ATOM     14  C   UNL     1       4.644   4.033  17.731  0.00  0.00    +0.000 C 
ATOM     15  C   UNL     1       5.565   3.693  18.947  0.00  0.00    +0.000 C 
ATOM     16  C   UNL     1       4.233   2.677  17.122  0.00  0.00    +0.000 C 
ENDROOT
BRANCH   1  17
ATOM     17  O   UNL     1       7.466   6.635  16.505  0.00  0.00    +0.000 OA
BRANCH  17  19
ATOM     18  C   UNL     1       8.123   6.903  18.759  0.00  0.00    +0.000 C 
ATOM     19  C   UNL     1       7.801   7.556  17.454  0.00  0.00    +0.000 C 
ATOM     20  O   UNL     1       7.836   8.767  17.316  0.00  0.00    +0.000 OA
ENDBRANCH  17  19
ENDBRANCH   1  17
BRANCH   9  21
ATOM     21  O   UNL     1       1.621   5.212  20.403  0.00  0.00    +0.000 OA
BRANCH  21  22
ATOM     22  O   UNL     1       2.554   5.159  21.550  0.00  0.00    +0.000 OA
ATOM     23  H   UNL     1       3.231   5.767  21.201  0.00  0.00    +0.000 HD
ENDBRANCH  21  22
ENDBRANCH   9  21
TORSDOF 4
ENDMDL
MODEL 5
REMARK VINA RESULT:      -6.4      2.023      6.457
REMARK  Name = 
REMARK  8 active torsions:
REMARK  status: ('A' for Active; 'I' for Inactive)
REMARK    1  A    between atoms: C_1  and  C_2
REMARK    2  A    between atoms: C_2  and  O_4
REMARK    3  A    between atoms: O_4  and  C_5
REMARK    4  A    between atoms: C_13  and  C_14
REMARK    5  A    between atoms: C_13  and  O_15
REMARK    6  A    between atoms: O_15  and  O_16
REMARK    7  A    between atoms: C_20  and  C_21
REMARK    8  A    between atoms: C_20  and  C_22
REMARK                            x       y       z     vdW  Elec       q    Type
REMARK                         _______ _______ _______ _____ _____    ______ ____
ROOT
ATOM      1  C   UNL     1       2.386   6.405  18.394  0.00  0.00    +0.000 C 
ATOM      2  O   UNL     1       1.783   5.989  19.637  0.00  0.00    +0.000 OA
ATOM      3  C   UNL     1       2.897   5.673  20.389  0.00  0.00    +0.000 C 
ATOM      4  C   UNL     1       4.043   5.540  19.724  0.00  0.00    +0.000 C 
ATOM      5  C   UNL     1       3.761   5.647  18.248  0.00  0.00    +0.000 C 
ATOM      6  C   UNL     1       4.653   6.458  17.278  0.00  0.00    +0.000 C 
ATOM      7  C   UNL     1       5.026   5.485  16.202  0.00  0.00    +0.000 C 
ATOM      8  C   UNL     1       5.579   5.684  14.998  0.00  0.00    +0.000 C 
ATOM      9  C   UNL     1       6.709   4.699  14.618  0.00  0.00    +0.000 C 
ATOM     10  C   UNL     1       7.192   5.173  13.253  0.00  0.00    +0.000 C 
ATOM     11  C   UNL     1       7.528   4.681  15.960  0.00  0.00    +0.000 C 
ATOM     12  C   UNL     1       6.604   4.033  17.144  0.00  0.00    +0.000 C 
ATOM     13  C   UNL     1       5.091   4.123  16.772  0.00  0.00    +0.000 C 
ATOM     14  C   UNL     1       3.820   4.157  17.668  0.00  0.00    +0.000 C 
ATOM     15  C   UNL     1       2.574   3.901  16.760  0.00  0.00    +0.000 C 
ATOM     16  C   UNL     1       3.889   2.958  18.635  0.00  0.00    +0.000 C 
ENDROOT
BRANCH   1  17
ATOM     17  O   UNL     1       2.409   7.877  18.307  0.00  0.00    +0.000 OA
BRANCH  17  19
ATOM     18  C   UNL     1       0.745   9.521  17.970  0.00  0.00    +0.000 C 
ATOM     19  C   UNL     1       1.517   8.690  18.944  0.00  0.00    +0.000 C 
ATOM     20  O   UNL     1       1.340   8.778  20.147  0.00  0.00    +0.000 OA
ENDBRANCH  17  19
ENDBRANCH   1  17
BRANCH   9  21
ATOM     21  O   UNL     1       6.325   3.320  14.398  0.00  0.00    +0.000 OA
BRANCH  21  22
ATOM     22  O   UNL     1       6.258   3.124  12.933  0.00  0.00    +0.000 OA
ATOM     23  H   UNL     1       6.187   4.062  12.676  0.00  0.00    +0.000 HD
ENDBRANCH  21  22
ENDBRANCH   9  21
TORSDOF 4
ENDMDL
MODEL 6
REMARK VINA RESULT:      -6.3      2.481      6.752
REMARK  Name = 
REMARK  8 active torsions:
REMARK  status: ('A' for Active; 'I' for Inactive)
REMARK    1  A    between atoms: C_1  and  C_2
REMARK    2  A    between atoms: C_2  and  O_4
REMARK    3  A    between atoms: O_4  and  C_5
REMARK    4  A    between atoms: C_13  and  C_14
REMARK    5  A    between atoms: C_13  and  O_15
REMARK    6  A    between atoms: O_15  and  O_16
REMARK    7  A    between atoms: C_20  and  C_21
REMARK    8  A    between atoms: C_20  and  C_22
REMARK                            x       y       z     vdW  Elec       q    Type
REMARK                         _______ _______ _______ _____ _____    ______ ____
ROOT
ATOM      1  C   UNL     1       1.468   5.176  20.068  0.00  0.00    +0.000 C 
ATOM      2  O   UNL     1       0.606   4.116  20.534  0.00  0.00    +0.000 OA
ATOM      3  C   UNL     1       1.523   3.230  21.063  0.00  0.00    +0.000 C 
ATOM      4  C   UNL     1       2.798   3.429  20.733  0.00  0.00    +0.000 C 
ATOM      5  C   UNL     1       2.868   4.539  19.718  0.00  0.00    +0.000 C 
ATOM      6  C   UNL     1       3.930   5.663  19.772  0.00  0.00    +0.000 C 
ATOM      7  C   UNL     1       4.584   5.633  18.425  0.00  0.00    +0.000 C 
ATOM      8  C   UNL     1       5.396   6.514  17.828  0.00  0.00    +0.000 C 
ATOM      9  C   UNL     1       6.622   5.904  17.109  0.00  0.00    +0.000 C 
ATOM     10  C   UNL     1       7.393   7.105  16.575  0.00  0.00    +0.000 C 
ATOM     11  C   UNL     1       7.103   4.877  18.198  0.00  0.00    +0.000 C 
ATOM     12  C   UNL     1       5.952   3.731  18.400  0.00  0.00    +0.000 C 
ATOM     13  C   UNL     1       4.567   4.250  17.902  0.00  0.00    +0.000 C 
ATOM     14  C   UNL     1       3.120   3.841  18.301  0.00  0.00    +0.000 C 
ATOM     15  C   UNL     1       2.134   4.434  17.244  0.00  0.00    +0.000 C 
ATOM     16  C   UNL     1       3.007   2.309  18.168  0.00  0.00    +0.000 C 
ENDROOT
BRANCH   1  17
ATOM     17  O   UNL     1       1.452   6.300  21.023  0.00  0.00    +0.000 OA
BRANCH  17  19
ATOM     18  C   UNL     1       0.906   8.482  21.748  0.00  0.00    +0.000 C 
ATOM     19  C   UNL     1       1.432   7.612  20.651  0.00  0.00    +0.000 C 
ATOM     20  O   UNL     1       1.774   8.071  19.575  0.00  0.00    +0.000 OA
ENDBRANCH  17  19
ENDBRANCH   1  17
BRANCH   9  21
ATOM     21  O   UNL     1       6.355   5.102  15.933  0.00  0.00    +0.000 OA
BRANCH  21  22
ATOM     22  O   UNL     1       7.455   5.365  14.979  0.00  0.00    +0.000 OA
ATOM     23  H   UNL     1       8.196   5.307  15.610  0.00  0.00    +0.000 HD
ENDBRANCH  21  22
ENDBRANCH   9  21
TORSDOF 4
ENDMDL
MODEL 7
REMARK VINA RESULT:      -6.3      1.856      6.738
REMARK  Name = 
REMARK  8 active torsions:
REMARK  status: ('A' for Active; 'I' for Inactive)
REMARK    1  A    between atoms: C_1  and  C_2
REMARK    2  A    between atoms: C_2  and  O_4
REMARK    3  A    between atoms: O_4  and  C_5
REMARK    4  A    between atoms: C_13  and  C_14
REMARK    5  A    between atoms: C_13  and  O_15
REMARK    6  A    between atoms: O_15  and  O_16
REMARK    7  A    between atoms: C_20  and  C_21
REMARK    8  A    between atoms: C_20  and  C_22
REMARK                            x       y       z     vdW  Elec       q    Type
REMARK                         _______ _______ _______ _____ _____    ______ ____
ROOT
ATOM      1  C   UNL     1       1.606   5.342  20.070  0.00  0.00    +0.000 C 
ATOM      2  O   UNL     1       0.823   4.446  20.885  0.00  0.00    +0.000 OA
ATOM      3  C   UNL     1       1.773   3.520  21.265  0.00  0.00    +0.000 C 
ATOM      4  C   UNL     1       2.918   3.532  20.586  0.00  0.00    +0.000 C 
ATOM      5  C   UNL     1       2.796   4.513  19.450  0.00  0.00    +0.000 C 
ATOM      6  C   UNL     1       3.922   5.504  19.069  0.00  0.00    +0.000 C 
ATOM      7  C   UNL     1       4.171   5.256  17.614  0.00  0.00    +0.000 C 
ATOM      8  C   UNL     1       4.857   5.969  16.711  0.00  0.00    +0.000 C 
ATOM      9  C   UNL     1       5.780   5.147  15.781  0.00  0.00    +0.000 C 
ATOM     10  C   UNL     1       6.470   6.186  14.906  0.00  0.00    +0.000 C 
ATOM     11  C   UNL     1       6.456   4.192  16.830  0.00  0.00    +0.000 C 
ATOM     12  C   UNL     1       5.315   3.216  17.481  0.00  0.00    +0.000 C 
ATOM     13  C   UNL     1       3.894   3.838  17.304  0.00  0.00    +0.000 C 
ATOM     14  C   UNL     1       2.586   3.644  18.123  0.00  0.00    +0.000 C 
ATOM     15  C   UNL     1       1.399   4.234  17.295  0.00  0.00    +0.000 C 
ATOM     16  C   UNL     1       2.313   2.131  18.230  0.00  0.00    +0.000 C 
ENDROOT
BRANCH   1  17
ATOM     17  O   UNL     1       1.950   6.555  20.836  0.00  0.00    +0.000 OA
BRANCH  17  19
ATOM     18  C   UNL     1       0.924   8.563  21.542  0.00  0.00    +0.000 C 
ATOM     19  C   UNL     1       1.618   7.819  20.447  0.00  0.00    +0.000 C 
ATOM     20  O   UNL     1       1.823   8.325  19.357  0.00  0.00    +0.000 OA
ENDBRANCH  17  19
ENDBRANCH   1  17
BRANCH   9  21
ATOM     21  O   UNL     1       5.131   4.262  14.835  0.00  0.00    +0.000 OA
BRANCH  21  22
ATOM     22  O   UNL     1       6.205   3.523  14.136  0.00  0.00    +0.000 OA
ATOM     23  H   UNL     1       6.685   3.207  14.924  0.00  0.00    +0.000 HD
ENDBRANCH  21  22
ENDBRANCH   9  21
TORSDOF 4
ENDMDL
MODEL 8
REMARK VINA RESULT:      -6.3      1.648      6.224
REMARK  Name = 
REMARK  8 active torsions:
REMARK  status: ('A' for Active; 'I' for Inactive)
REMARK    1  A    between atoms: C_1  and  C_2
REMARK    2  A    between atoms: C_2  and  O_4
REMARK    3  A    between atoms: O_4  and  C_5
REMARK    4  A    between atoms: C_13  and  C_14
REMARK    5  A    between atoms: C_13  and  O_15
REMARK    6  A    between atoms: O_15  and  O_16
REMARK    7  A    between atoms: C_20  and  C_21
REMARK    8  A    between atoms: C_20  and  C_22
REMARK                            x       y       z     vdW  Elec       q    Type
REMARK                         _______ _______ _______ _____ _____    ______ ____
ROOT
ATOM      1  C   UNL     1       3.777   3.881  19.333  0.00  0.00    +0.000 C 
ATOM      2  O   UNL     1       3.221   4.686  20.394  0.00  0.00    +0.000 OA
ATOM      3  C   UNL     1       2.541   5.650  19.678  0.00  0.00    +0.000 C 
ATOM      4  C   UNL     1       2.832   5.742  18.382  0.00  0.00    +0.000 C 
ATOM      5  C   UNL     1       3.977   4.812  18.076  0.00  0.00    +0.000 C 
ATOM      6  C   UNL     1       4.016   3.913  16.817  0.00  0.00    +0.000 C 
ATOM      7  C   UNL     1       5.315   4.247  16.152  0.00  0.00    +0.000 C 
ATOM      8  C   UNL     1       5.980   3.624  15.171  0.00  0.00    +0.000 C 
ATOM      9  C   UNL     1       6.556   4.545  14.071  0.00  0.00    +0.000 C 
ATOM     10  C   UNL     1       7.202   3.596  13.070  0.00  0.00    +0.000 C 
ATOM     11  C   UNL     1       5.324   5.489  13.823  0.00  0.00    +0.000 C 
ATOM     12  C   UNL     1       5.033   6.359  15.178  0.00  0.00    +0.000 C 
ATOM     13  C   UNL     1       5.658   5.659  16.425  0.00  0.00    +0.000 C 
ATOM     14  C   UNL     1       5.279   5.729  17.932  0.00  0.00    +0.000 C 
ATOM     15  C   UNL     1       6.449   5.107  18.761  0.00  0.00    +0.000 C 
ATOM     16  C   UNL     1       5.221   7.216  18.338  0.00  0.00    +0.000 C 
ENDROOT
BRANCH   1  17
ATOM     17  O   UNL     1       2.975   2.656  19.151  0.00  0.00    +0.000 OA
BRANCH  17  19
ATOM     18  C   UNL     1       0.644   2.480  18.806  0.00  0.00    +0.000 C 
ATOM     19  C   UNL     1       1.783   2.429  19.773  0.00  0.00    +0.000 C 
ATOM     20  O   UNL     1       1.607   2.220  20.961  0.00  0.00    +0.000 OA
ENDBRANCH  17  19
ENDBRANCH   1  17
BRANCH   9  21
ATOM     21  O   UNL     1       7.633   5.433  14.462  0.00  0.00    +0.000 OA
BRANCH  21  22
ATOM     22  O   UNL     1       8.353   5.801  13.224  0.00  0.00    +0.000 OA
ATOM     23  H   UNL     1       7.704   6.439  12.876  0.00  0.00    +0.000 HD
ENDBRANCH  21  22
ENDBRANCH   9  21
TORSDOF 4
ENDMDL
MODEL 9
REMARK VINA RESULT:      -6.3      1.894      6.502
REMARK  Name = 
REMARK  8 active torsions:
REMARK  status: ('A' for Active; 'I' for Inactive)
REMARK    1  A    between atoms: C_1  and  C_2
REMARK    2  A    between atoms: C_2  and  O_4
REMARK    3  A    between atoms: O_4  and  C_5
REMARK    4  A    between atoms: C_13  and  C_14
REMARK    5  A    between atoms: C_13  and  O_15
REMARK    6  A    between atoms: O_15  and  O_16
REMARK    7  A    between atoms: C_20  and  C_21
REMARK    8  A    between atoms: C_20  and  C_22
REMARK                            x       y       z     vdW  Elec       q    Type
REMARK                         _______ _______ _______ _____ _____    ______ ____
ROOT
ATOM      1  C   UNL     1       1.969   6.083  19.495  0.00  0.00    +0.000 C 
ATOM      2  O   UNL     1       1.232   5.435  20.554  0.00  0.00    +0.000 OA
ATOM      3  C   UNL     1       2.231   4.728  21.191  0.00  0.00    +0.000 C 
ATOM      4  C   UNL     1       3.379   4.598  20.529  0.00  0.00    +0.000 C 
ATOM      5  C   UNL     1       3.210   5.174  19.148  0.00  0.00    +0.000 C 
ATOM      6  C   UNL     1       4.279   6.064  18.470  0.00  0.00    +0.000 C 
ATOM      7  C   UNL     1       4.555   5.396  17.160  0.00  0.00    +0.000 C 
ATOM      8  C   UNL     1       5.206   5.835  16.075  0.00  0.00    +0.000 C 
ATOM      9  C   UNL     1       6.183   4.823  15.433  0.00  0.00    +0.000 C 
ATOM     10  C   UNL     1       6.819   5.582  14.275  0.00  0.00    +0.000 C 
ATOM     11  C   UNL     1       6.905   4.278  16.719  0.00  0.00    +0.000 C 
ATOM     12  C   UNL     1       5.818   3.484  17.648  0.00  0.00    +0.000 C 
ATOM     13  C   UNL     1       4.365   3.937  17.303  0.00  0.00    +0.000 C 
ATOM     14  C   UNL     1       3.063   3.929  18.154  0.00  0.00    +0.000 C 
ATOM     15  C   UNL     1       1.850   4.165  17.197  0.00  0.00    +0.000 C 
ATOM     16  C   UNL     1       2.878   2.508  18.724  0.00  0.00    +0.000 C 
ENDROOT
BRANCH   1  17
ATOM     17  O   UNL     1       2.234   7.490  19.848  0.00  0.00    +0.000 OA
BRANCH  17  19
ATOM     18  C   UNL     1       1.890   8.678  17.835  0.00  0.00    +0.000 C 
ATOM     19  C   UNL     1       1.580   8.549  19.291  0.00  0.00    +0.000 C 
ATOM     20  O   UNL     1       0.837   9.330  19.861  0.00  0.00    +0.000 OA
ENDBRANCH  17  19
ENDBRANCH   1  17
BRANCH   9  21
ATOM     21  O   UNL     1       5.596   3.654  14.811  0.00  0.00    +0.000 OA
BRANCH  21  22
ATOM     22  O   UNL     1       6.352   3.410  13.563  0.00  0.00    +0.000 OA
ATOM     23  H   UNL     1       6.029   4.178  13.058  0.00  0.00    +0.000 HD
ENDBRANCH  21  22
ENDBRANCH   9  21
TORSDOF 4
ENDMDL
