MODEL 1
REMARK VINA RESULT:      -6.6      0.000      0.000
REMARK  Name = 
REMARK  8 active torsions:
REMARK  status: ('A' for Active; 'I' for Inactive)
REMARK    1  A    between atoms: C_1  and  C_2
REMARK    2  A    between atoms: C_5  and  C_7
REMARK    3  A    between atoms: C_10  and  C_11
REMARK    4  A    between atoms: C_11  and  C_12
REMARK    5  A    between atoms: C_11  and  C_13
REMARK    6  A    between atoms: C_11  and  C_14
REMARK    7  A    between atoms: C_17  and  C_18
REMARK    8  A    between atoms: C_17  and  C_19
REMARK                            x       y       z     vdW  Elec       q    Type
REMARK                         _______ _______ _______ _____ _____    ______ ____
ROOT
ATOM      1  C   UNL     1       1.373   3.028  21.685  0.00  0.00    +0.000 C 
ATOM      2  C   UNL     1       1.947   3.508  20.361  0.00  0.00    +0.000 C 
ATOM      3  C   UNL     1       3.019   4.591  20.592  0.00  0.00    +0.000 C 
ATOM      4  N   UNL     1       3.636   4.949  19.314  0.00  0.00    +0.000 N 
ATOM      5  C   UNL     1       3.526   6.155  18.611  0.00  0.00    +0.000 C 
ATOM      6  O   UNL     1       4.174   6.316  17.569  0.00  0.00    +0.000 OA
ATOM      7  C   UNL     1       4.231   3.794  18.643  0.00  0.00    +0.000 C 
ATOM      8  C   UNL     1       3.151   2.705  18.417  0.00  0.00    +0.000 C 
ATOM      9  C   UNL     1       2.110   3.147  17.376  0.00  0.00    +0.000 C 
ATOM     10  C   UNL     1       3.821   1.419  17.922  0.00  0.00    +0.000 C 
ATOM     11  O   UNL     1       2.506   2.371  19.672  0.00  0.00    +0.000 OA
ENDROOT
BRANCH   5  12
ATOM     12  C   UNL     1       2.628   7.180  19.114  0.00  0.00    +0.000 A 
ATOM     13  C   UNL     1       2.010   7.340  20.335  0.00  0.00    +0.000 A 
ATOM     14  N   UNL     1       1.212   8.454  20.486  0.00  0.00    +0.000 NA
ATOM     15  C   UNL     1       1.150   9.111  19.350  0.00  0.00    +0.000 A 
ATOM     16  S   UNL     1       2.082   8.425  18.066  0.00  0.00    +0.000 S 
BRANCH  15  17
ATOM     17  C   UNL     1       0.304  10.360  19.144  0.00  0.00    +0.000 C 
ATOM     18  C   UNL     1      -0.546  10.630  20.407  0.00  0.00    +0.000 C 
ATOM     19  C   UNL     1       1.199  11.584  18.889  0.00  0.00    +0.000 C 
ATOM     20  C   UNL     1      -0.657  10.157  17.959  0.00  0.00    +0.000 C 
ENDBRANCH  15  17
ENDBRANCH   5  12
TORSDOF 2
ENDMDL
MODEL 2
REMARK VINA RESULT:      -6.6      0.211      1.025
REMARK  Name = 
REMARK  8 active torsions:
REMARK  status: ('A' for Active; 'I' for Inactive)
REMARK    1  A    between atoms: C_1  and  C_2
REMARK    2  A    between atoms: C_5  and  C_7
REMARK    3  A    between atoms: C_10  and  C_11
REMARK    4  A    between atoms: C_11  and  C_12
REMARK    5  A    between atoms: C_11  and  C_13
REMARK    6  A    between atoms: C_11  and  C_14
REMARK    7  A    between atoms: C_17  and  C_18
REMARK    8  A    between atoms: C_17  and  C_19
REMARK                            x       y       z     vdW  Elec       q    Type
REMARK                         _______ _______ _______ _____ _____    ______ ____
ROOT
ATOM      1  C   UNL     1       1.454   3.149  21.647  0.00  0.00    +0.000 C 
ATOM      2  C   UNL     1       1.972   3.648  20.307  0.00  0.00    +0.000 C 
ATOM      3  C   UNL     1       3.036   4.745  20.508  0.00  0.00    +0.000 C 
ATOM      4  N   UNL     1       3.601   5.123  19.212  0.00  0.00    +0.000 N 
ATOM      5  C   UNL     1       3.449   6.333  18.525  0.00  0.00    +0.000 C 
ATOM      6  O   UNL     1       4.056   6.512  17.461  0.00  0.00    +0.000 OA
ATOM      7  C   UNL     1       4.187   3.982  18.509  0.00  0.00    +0.000 C 
ATOM      8  C   UNL     1       3.115   2.880  18.313  0.00  0.00    +0.000 C 
ATOM      9  C   UNL     1       2.029   3.316  17.315  0.00  0.00    +0.000 C 
ATOM     10  C   UNL     1       3.783   1.607  17.782  0.00  0.00    +0.000 C 
ATOM     11  O   UNL     1       2.521   2.526  19.588  0.00  0.00    +0.000 OA
ENDROOT
BRANCH   5  12
ATOM     12  C   UNL     1       2.555   7.341  19.069  0.00  0.00    +0.000 A 
ATOM     13  C   UNL     1       1.938   7.453  20.295  0.00  0.00    +0.000 A 
ATOM     14  N   UNL     1       1.145   8.563  20.492  0.00  0.00    +0.000 NA
ATOM     15  C   UNL     1       1.087   9.267  19.384  0.00  0.00    +0.000 A 
ATOM     16  S   UNL     1       2.016   8.631  18.074  0.00  0.00    +0.000 S 
BRANCH  15  17
ATOM     17  C   UNL     1       0.247  10.528  19.230  0.00  0.00    +0.000 C 
ATOM     18  C   UNL     1       1.148  11.706  18.791  0.00  0.00    +0.000 C 
ATOM     19  C   UNL     1      -0.842  10.326  18.164  0.00  0.00    +0.000 C 
ATOM     20  C   UNL     1      -0.399  10.900  20.576  0.00  0.00    +0.000 C 
ENDBRANCH  15  17
ENDBRANCH   5  12
TORSDOF 2
ENDMDL
MODEL 3
REMARK VINA RESULT:      -6.1      1.174      1.547
REMARK  Name = 
REMARK  8 active torsions:
REMARK  status: ('A' for Active; 'I' for Inactive)
REMARK    1  A    between atoms: C_1  and  C_2
REMARK    2  A    between atoms: C_5  and  C_7
REMARK    3  A    between atoms: C_10  and  C_11
REMARK    4  A    between atoms: C_11  and  C_12
REMARK    5  A    between atoms: C_11  and  C_13
REMARK    6  A    between atoms: C_11  and  C_14
REMARK    7  A    between atoms: C_17  and  C_18
REMARK    8  A    between atoms: C_17  and  C_19
REMARK                            x       y       z     vdW  Elec       q    Type
REMARK                         _______ _______ _______ _____ _____    ______ ____
ROOT
ATOM      1  C   UNL     1       1.087   3.422  21.197  0.00  0.00    +0.000 C 
ATOM      2  C   UNL     1       1.869   3.768  19.939  0.00  0.00    +0.000 C 
ATOM      3  C   UNL     1       2.903   4.874  20.227  0.00  0.00    +0.000 C 
ATOM      4  N   UNL     1       3.719   5.104  19.033  0.00  0.00    +0.000 N 
ATOM      5  C   UNL     1       3.736   6.232  18.205  0.00  0.00    +0.000 C 
ATOM      6  O   UNL     1       4.542   6.290  17.267  0.00  0.00    +0.000 OA
ATOM      7  C   UNL     1       4.398   3.889  18.584  0.00  0.00    +0.000 C 
ATOM      8  C   UNL     1       3.354   2.779  18.300  0.00  0.00    +0.000 C 
ATOM      9  C   UNL     1       2.496   3.109  17.068  0.00  0.00    +0.000 C 
ATOM     10  C   UNL     1       4.078   1.452  18.049  0.00  0.00    +0.000 C 
ATOM     11  O   UNL     1       2.515   2.570  19.465  0.00  0.00    +0.000 OA
ENDROOT
BRANCH   5  12
ATOM     12  C   UNL     1       2.781   7.299  18.453  0.00  0.00    +0.000 A 
ATOM     13  C   UNL     1       2.309   8.313  17.649  0.00  0.00    +0.000 A 
ATOM     14  N   UNL     1       1.382   9.167  18.207  0.00  0.00    +0.000 NA
ATOM     15  C   UNL     1       1.200   8.858  19.470  0.00  0.00    +0.000 A 
ATOM     16  S   UNL     1       2.119   7.503  20.023  0.00  0.00    +0.000 S 
BRANCH  15  17
ATOM     17  C   UNL     1       0.286   9.638  20.405  0.00  0.00    +0.000 C 
ATOM     18  C   UNL     1       1.083  10.771  21.092  0.00  0.00    +0.000 C 
ATOM     19  C   UNL     1      -0.878  10.269  19.623  0.00  0.00    +0.000 C 
ATOM     20  C   UNL     1      -0.263   8.710  21.503  0.00  0.00    +0.000 C 
ENDBRANCH  15  17
ENDBRANCH   5  12
TORSDOF 2
ENDMDL
MODEL 4
REMARK VINA RESULT:      -6.0      1.385      1.522
REMARK  Name = 
REMARK  8 active torsions:
REMARK  status: ('A' for Active; 'I' for Inactive)
REMARK    1  A    between atoms: C_1  and  C_2
REMARK    2  A    between atoms: C_5  and  C_7
REMARK    3  A    between atoms: C_10  and  C_11
REMARK    4  A    between atoms: C_11  and  C_12
REMARK    5  A    between atoms: C_11  and  C_13
REMARK    6  A    between atoms: C_11  and  C_14
REMARK    7  A    between atoms: C_17  and  C_18
REMARK    8  A    between atoms: C_17  and  C_19
REMARK                            x       y       z     vdW  Elec       q    Type
REMARK                         _______ _______ _______ _____ _____    ______ ____
ROOT
ATOM      1  C   UNL     1       2.125   3.505  21.691  0.00  0.00    +0.000 C 
ATOM      2  C   UNL     1       2.130   4.217  20.347  0.00  0.00    +0.000 C 
ATOM      3  C   UNL     1       3.093   5.419  20.370  0.00  0.00    +0.000 C 
ATOM      4  N   UNL     1       3.167   6.013  19.034  0.00  0.00    +0.000 N 
ATOM      5  C   UNL     1       2.686   7.261  18.617  0.00  0.00    +0.000 C 
ATOM      6  O   UNL     1       2.894   7.639  17.457  0.00  0.00    +0.000 OA
ATOM      7  C   UNL     1       3.596   5.049  18.022  0.00  0.00    +0.000 C 
ATOM      8  C   UNL     1       2.627   3.839  18.005  0.00  0.00    +0.000 C 
ATOM      9  C   UNL     1       1.240   4.231  17.470  0.00  0.00    +0.000 C 
ATOM     10  C   UNL     1       3.203   2.738  17.109  0.00  0.00    +0.000 C 
ATOM     11  O   UNL     1       2.517   3.268  19.334  0.00  0.00    +0.000 OA
ENDROOT
BRANCH   5  12
ATOM     12  C   UNL     1       1.928   8.069  19.556  0.00  0.00    +0.000 A 
ATOM     13  C   UNL     1       1.509   7.826  20.846  0.00  0.00    +0.000 A 
ATOM     14  N   UNL     1       0.801   8.833  21.468  0.00  0.00    +0.000 NA
ATOM     15  C   UNL     1       0.606   9.822  20.627  0.00  0.00    +0.000 A 
ATOM     16  S   UNL     1       1.299   9.587  19.061  0.00  0.00    +0.000 S 
BRANCH  15  17
ATOM     17  C   UNL     1      -0.194  11.072  20.967  0.00  0.00    +0.000 C 
ATOM     18  C   UNL     1      -0.834  10.919  22.366  0.00  0.00    +0.000 C 
ATOM     19  C   UNL     1       0.718  12.311  20.983  0.00  0.00    +0.000 C 
ATOM     20  C   UNL     1      -1.327  11.269  19.945  0.00  0.00    +0.000 C 
ENDBRANCH  15  17
ENDBRANCH   5  12
TORSDOF 2
ENDMDL
MODEL 5
REMARK VINA RESULT:      -5.9      9.418     10.662
REMARK  Name = 
REMARK  8 active torsions:
REMARK  status: ('A' for Active; 'I' for Inactive)
REMARK    1  A    between atoms: C_1  and  C_2
REMARK    2  A    between atoms: C_5  and  C_7
REMARK    3  A    between atoms: C_10  and  C_11
REMARK    4  A    between atoms: C_11  and  C_12
REMARK    5  A    between atoms: C_11  and  C_13
REMARK    6  A    between atoms: C_11  and  C_14
REMARK    7  A    between atoms: C_17  and  C_18
REMARK    8  A    between atoms: C_17  and  C_19
REMARK                            x       y       z     vdW  Elec       q    Type
REMARK                         _______ _______ _______ _____ _____    ______ ____
ROOT
ATOM      1  C   UNL     1       8.808  12.957  22.407  0.00  0.00    +0.000 C 
ATOM      2  C   UNL     1       9.246  13.209  20.972  0.00  0.00    +0.000 C 
ATOM      3  C   UNL     1       9.502  14.710  20.735  0.00  0.00    +0.000 C 
ATOM      4  N   UNL     1      10.034  14.909  19.386  0.00  0.00    +0.000 N 
ATOM      5  C   UNL     1       9.409  15.527  18.296  0.00  0.00    +0.000 C 
ATOM      6  O   UNL     1      10.033  15.672  17.236  0.00  0.00    +0.000 OA
ATOM      7  C   UNL     1      11.263  14.150  19.157  0.00  0.00    +0.000 C 
ATOM      8  C   UNL     1      11.002  12.642  19.401  0.00  0.00    +0.000 C 
ATOM      9  C   UNL     1      10.081  12.044  18.323  0.00  0.00    +0.000 C 
ATOM     10  C   UNL     1      12.333  11.884  19.380  0.00  0.00    +0.000 C 
ATOM     11  O   UNL     1      10.438  12.438  20.722  0.00  0.00    +0.000 OA
ENDROOT
BRANCH   5  12
ATOM     12  C   UNL     1       8.029  15.960  18.431  0.00  0.00    +0.000 A 
ATOM     13  C   UNL     1       7.478  17.181  18.755  0.00  0.00    +0.000 A 
ATOM     14  N   UNL     1       6.102  17.252  18.786  0.00  0.00    +0.000 NA
ATOM     15  C   UNL     1       5.593  16.061  18.565  0.00  0.00    +0.000 A 
ATOM     16  S   UNL     1       6.758  14.818  18.277  0.00  0.00    +0.000 S 
BRANCH  15  17
ATOM     17  C   UNL     1       4.099  15.766  18.589  0.00  0.00    +0.000 C 
ATOM     18  C   UNL     1       3.536  16.032  20.005  0.00  0.00    +0.000 C 
ATOM     19  C   UNL     1       3.352  16.668  17.592  0.00  0.00    +0.000 C 
ATOM     20  C   UNL     1       3.847  14.287  18.248  0.00  0.00    +0.000 C 
ENDBRANCH  15  17
ENDBRANCH   5  12
TORSDOF 2
ENDMDL
MODEL 6
REMARK VINA RESULT:      -5.8      3.247      7.930
REMARK  Name = 
REMARK  8 active torsions:
REMARK  status: ('A' for Active; 'I' for Inactive)
REMARK    1  A    between atoms: C_1  and  C_2
REMARK    2  A    between atoms: C_5  and  C_7
REMARK    3  A    between atoms: C_10  and  C_11
REMARK    4  A    between atoms: C_11  and  C_12
REMARK    5  A    between atoms: C_11  and  C_13
REMARK    6  A    between atoms: C_11  and  C_14
REMARK    7  A    between atoms: C_17  and  C_18
REMARK    8  A    between atoms: C_17  and  C_19
REMARK                            x       y       z     vdW  Elec       q    Type
REMARK                         _______ _______ _______ _____ _____    ______ ____
ROOT
ATOM      1  C   UNL     1       1.640  13.883  18.508  0.00  0.00    +0.000 C 
ATOM      2  C   UNL     1       0.688  12.906  19.182  0.00  0.00    +0.000 C 
ATOM      3  C   UNL     1       1.439  12.026  20.200  0.00  0.00    +0.000 C 
ATOM      4  N   UNL     1       0.482  11.179  20.915  0.00  0.00    +0.000 N 
ATOM      5  C   UNL     1       0.332   9.790  20.834  0.00  0.00    +0.000 C 
ATOM      6  O   UNL     1      -0.490   9.220  21.564  0.00  0.00    +0.000 OA
ATOM      7  C   UNL     1      -0.549  11.962  21.597  0.00  0.00    +0.000 C 
ATOM      8  C   UNL     1      -1.298  12.848  20.570  0.00  0.00    +0.000 C 
ATOM      9  C   UNL     1      -2.154  12.005  19.610  0.00  0.00    +0.000 C 
ATOM     10  C   UNL     1      -2.217  13.824  21.313  0.00  0.00    +0.000 C 
ATOM     11  O   UNL     1      -0.355  13.663  19.828  0.00  0.00    +0.000 OA
ENDROOT
BRANCH   5  12
ATOM     12  C   UNL     1       1.128   9.053  19.868  0.00  0.00    +0.000 A 
ATOM     13  C   UNL     1       1.431   9.304  18.547  0.00  0.00    +0.000 A 
ATOM     14  N   UNL     1       2.239   8.386  17.911  0.00  0.00    +0.000 NA
ATOM     15  C   UNL     1       2.494   7.384  18.721  0.00  0.00    +0.000 A 
ATOM     16  S   UNL     1       1.794   7.530  20.294  0.00  0.00    +0.000 S 
BRANCH  15  17
ATOM     17  C   UNL     1       3.310   6.162  18.320  0.00  0.00    +0.000 C 
ATOM     18  C   UNL     1       2.370   5.060  17.780  0.00  0.00    +0.000 C 
ATOM     19  C   UNL     1       4.319   6.523  17.218  0.00  0.00    +0.000 C 
ATOM     20  C   UNL     1       4.050   5.596  19.545  0.00  0.00    +0.000 C 
ENDBRANCH  15  17
ENDBRANCH   5  12
TORSDOF 2
ENDMDL
MODEL 7
REMARK VINA RESULT:      -5.8      2.765      7.494
REMARK  Name = 
REMARK  8 active torsions:
REMARK  status: ('A' for Active; 'I' for Inactive)
REMARK    1  A    between atoms: C_1  and  C_2
REMARK    2  A    between atoms: C_5  and  C_7
REMARK    3  A    between atoms: C_10  and  C_11
REMARK    4  A    between atoms: C_11  and  C_12
REMARK    5  A    between atoms: C_11  and  C_13
REMARK    6  A    between atoms: C_11  and  C_14
REMARK    7  A    between atoms: C_17  and  C_18
REMARK    8  A    between atoms: C_17  and  C_19
REMARK                            x       y       z     vdW  Elec       q    Type
REMARK                         _______ _______ _______ _____ _____    ______ ____
ROOT
ATOM      1  C   UNL     1      -1.208  11.260  22.562  0.00  0.00    +0.000 C 
ATOM      2  C   UNL     1      -0.194  11.510  21.456  0.00  0.00    +0.000 C 
ATOM      3  C   UNL     1      -0.544  10.689  20.200  0.00  0.00    +0.000 C 
ATOM      4  N   UNL     1       0.376  11.036  19.115  0.00  0.00    +0.000 N 
ATOM      5  C   UNL     1       1.374  10.239  18.542  0.00  0.00    +0.000 C 
ATOM      6  O   UNL     1       2.022  10.670  17.579  0.00  0.00    +0.000 OA
ATOM      7  C   UNL     1       0.347  12.465  18.801  0.00  0.00    +0.000 C 
ATOM      8  C   UNL     1       0.695  13.287  20.068  0.00  0.00    +0.000 C 
ATOM      9  C   UNL     1       2.166  13.105  20.476  0.00  0.00    +0.000 C 
ATOM     10  C   UNL     1       0.445  14.774  19.794  0.00  0.00    +0.000 C 
ATOM     11  O   UNL     1      -0.187  12.921  21.160  0.00  0.00    +0.000 OA
ENDROOT
BRANCH   5  12
ATOM     12  C   UNL     1       1.641   8.931  19.114  0.00  0.00    +0.000 A 
ATOM     13  C   UNL     1       1.452   8.429  20.383  0.00  0.00    +0.000 A 
ATOM     14  N   UNL     1       1.812   7.114  20.590  0.00  0.00    +0.000 NA
ATOM     15  C   UNL     1       2.354   6.627  19.498  0.00  0.00    +0.000 A 
ATOM     16  S   UNL     1       2.419   7.729  18.168  0.00  0.00    +0.000 S 
BRANCH  15  17
ATOM     17  C   UNL     1       2.921   5.217  19.395  0.00  0.00    +0.000 C 
ATOM     18  C   UNL     1       2.484   4.387  20.624  0.00  0.00    +0.000 C 
ATOM     19  C   UNL     1       2.404   4.516  18.127  0.00  0.00    +0.000 C 
ATOM     20  C   UNL     1       4.458   5.266  19.378  0.00  0.00    +0.000 C 
ENDBRANCH  15  17
ENDBRANCH   5  12
TORSDOF 2
ENDMDL
MODEL 8
REMARK VINA RESULT:      -5.8      5.193      7.567
REMARK  Name = 
REMARK  8 active torsions:
REMARK  status: ('A' for Active; 'I' for Inactive)
REMARK    1  A    between atoms: C_1  and  C_2
REMARK    2  A    between atoms: C_5  and  C_7
REMARK    3  A    between atoms: C_10  and  C_11
REMARK    4  A    between atoms: C_11  and  C_12
REMARK    5  A    between atoms: C_11  and  C_13
REMARK    6  A    between atoms: C_11  and  C_14
REMARK    7  A    between atoms: C_17  and  C_18
REMARK    8  A    between atoms: C_17  and  C_19
REMARK                            x       y       z     vdW  Elec       q    Type
REMARK                         _______ _______ _______ _____ _____    ______ ____
ROOT
ATOM      1  C   UNL     1       0.105   8.571  22.045  0.00  0.00    +0.000 C 
ATOM      2  C   UNL     1      -0.068   9.549  20.892  0.00  0.00    +0.000 C 
ATOM      3  C   UNL     1       0.165  10.997  21.365  0.00  0.00    +0.000 C 
ATOM      4  N   UNL     1       0.109  11.903  20.217  0.00  0.00    +0.000 N 
ATOM      5  C   UNL     1      -0.865  12.864  19.924  0.00  0.00    +0.000 C 
ATOM      6  O   UNL     1      -0.723  13.598  18.937  0.00  0.00    +0.000 OA
ATOM      7  C   UNL     1       1.085  11.551  19.185  0.00  0.00    +0.000 C 
ATOM      8  C   UNL     1       0.849  10.093  18.716  0.00  0.00    +0.000 C 
ATOM      9  C   UNL     1      -0.468   9.955  17.935  0.00  0.00    +0.000 C 
ATOM     10  C   UNL     1       2.003   9.658  17.806  0.00  0.00    +0.000 C 
ATOM     11  O   UNL     1       0.864   9.192  19.852  0.00  0.00    +0.000 OA
ENDROOT
BRANCH   5  12
ATOM     12  C   UNL     1      -2.038  12.957  20.777  0.00  0.00    +0.000 A 
ATOM     13  C   UNL     1      -3.368  12.686  20.540  0.00  0.00    +0.000 A 
ATOM     14  N   UNL     1      -4.237  12.876  21.593  0.00  0.00    +0.000 NA
ATOM     15  C   UNL     1      -3.585  13.370  22.621  0.00  0.00    +0.000 A 
ATOM     16  S   UNL     1      -1.891  13.594  22.363  0.00  0.00    +0.000 S 
BRANCH  15  17
ATOM     17  C   UNL     1      -4.252  13.758  23.934  0.00  0.00    +0.000 C 
ATOM     18  C   UNL     1      -4.508  12.492  24.784  0.00  0.00    +0.000 C 
ATOM     19  C   UNL     1      -3.351  14.709  24.739  0.00  0.00    +0.000 C 
ATOM     20  C   UNL     1      -5.609  14.428  23.660  0.00  0.00    +0.000 C 
ENDBRANCH  15  17
ENDBRANCH   5  12
TORSDOF 2
ENDMDL
MODEL 9
REMARK VINA RESULT:      -5.8      5.231      7.655
REMARK  Name = 
REMARK  8 active torsions:
REMARK  status: ('A' for Active; 'I' for Inactive)
REMARK    1  A    between atoms: C_1  and  C_2
REMARK    2  A    between atoms: C_5  and  C_7
REMARK    3  A    between atoms: C_10  and  C_11
REMARK    4  A    between atoms: C_11  and  C_12
REMARK    5  A    between atoms: C_11  and  C_13
REMARK    6  A    between atoms: C_11  and  C_14
REMARK    7  A    between atoms: C_17  and  C_18
REMARK    8  A    between atoms: C_17  and  C_19
REMARK                            x       y       z     vdW  Elec       q    Type
REMARK                         _______ _______ _______ _____ _____    ______ ____
ROOT
ATOM      1  C   UNL     1      -0.030   8.590  22.042  0.00  0.00    +0.000 C 
ATOM      2  C   UNL     1      -0.177   9.568  20.886  0.00  0.00    +0.000 C 
ATOM      3  C   UNL     1       0.041  11.016  21.366  0.00  0.00    +0.000 C 
ATOM      4  N   UNL     1       0.011  11.923  20.218  0.00  0.00    +0.000 N 
ATOM      5  C   UNL     1      -0.959  12.883  19.902  0.00  0.00    +0.000 C 
ATOM      6  O   UNL     1      -0.794  13.618  18.920  0.00  0.00    +0.000 OA
ATOM      7  C   UNL     1       1.012  11.575  19.210  0.00  0.00    +0.000 C 
ATOM      8  C   UNL     1       0.792  10.117  18.734  0.00  0.00    +0.000 C 
ATOM      9  C   UNL     1      -0.506   9.976  17.920  0.00  0.00    +0.000 C 
ATOM     10  C   UNL     1       1.969   9.685  17.853  0.00  0.00    +0.000 C 
ATOM     11  O   UNL     1       0.781   9.214  19.870  0.00  0.00    +0.000 OA
ENDROOT
BRANCH   5  12
ATOM     12  C   UNL     1      -2.152  12.972  20.726  0.00  0.00    +0.000 A 
ATOM     13  C   UNL     1      -3.480  12.737  20.445  0.00  0.00    +0.000 A 
ATOM     14  N   UNL     1      -4.374  12.910  21.480  0.00  0.00    +0.000 NA
ATOM     15  C   UNL     1      -3.741  13.357  22.541  0.00  0.00    +0.000 A 
ATOM     16  S   UNL     1      -2.036  13.553  22.336  0.00  0.00    +0.000 S 
BRANCH  15  17
ATOM     17  C   UNL     1      -4.435  13.715  23.848  0.00  0.00    +0.000 C 
ATOM     18  C   UNL     1      -3.677  14.868  24.544  0.00  0.00    +0.000 C 
ATOM     19  C   UNL     1      -5.880  14.172  23.586  0.00  0.00    +0.000 C 
ATOM     20  C   UNL     1      -4.432  12.503  24.796  0.00  0.00    +0.000 C 
ENDBRANCH  15  17
ENDBRANCH   5  12
TORSDOF 2
ENDMDL
