MODEL 1
REMARK VINA RESULT:      -8.5      0.000      0.000
REMARK  Name = 
REMARK  6 active torsions:
REMARK  status: ('A' for Active; 'I' for Inactive)
REMARK    1  A    between atoms: C_1  and  C_2
REMARK    2  A    between atoms: C_9  and  C_10
REMARK    3  A    between atoms: C_10  and  O_11
REMARK    4  A    between atoms: C_10  and  C_12
REMARK    5  A    between atoms: C_12  and  C_13
REMARK    6  A    between atoms: C_13  and  C_14
REMARK                            x       y       z     vdW  Elec       q    Type
REMARK                         _______ _______ _______ _____ _____    ______ ____
ROOT
ATOM      1  C   UNL     1       1.439   2.491  20.375  0.00  0.00    +0.000 C 
ATOM      2  C   UNL     1       2.350   2.762  19.254  0.00  0.00    +0.000 A 
ATOM      3  N   UNL     1       2.380   2.261  18.042  0.00  0.00    +0.000 NA
ATOM      4  N   UNL     1       3.460   2.854  17.416  0.00  0.00    +0.000 NA
ATOM      5  C   UNL     1       4.008   3.673  18.288  0.00  0.00    +0.000 A 
ATOM      6  N   UNL     1       5.120   4.436  18.203  0.00  0.00    +0.000 N 
ATOM      7  C   UNL     1       5.775   4.567  16.908  0.00  0.00    +0.000 C 
ATOM      8  C   UNL     1       7.288   4.615  17.129  0.00  0.00    +0.000 C 
ATOM      9  C   UNL     1       7.730   5.679  18.154  0.00  0.00    +0.000 C 
ATOM     10  C   UNL     1       6.888   5.543  19.437  0.00  0.00    +0.000 C 
ATOM     11  C   UNL     1       5.385   5.474  19.183  0.00  0.00    +0.000 C 
ATOM     12  O   UNL     1       3.342   3.669  19.483  0.00  0.00    +0.000 OA
ENDROOT
BRANCH   9  13
ATOM     13  C   UNL     1       7.764   7.100  17.540  0.00  0.00    +0.000 C 
BRANCH  13  14
ATOM     14  O   UNL     1       6.473   7.518  17.109  0.00  0.00    +0.000 OA
ATOM     15  H   UNL     1       5.839   7.389  17.834  0.00  0.00    +0.000 HD
ENDBRANCH  13  14
BRANCH  13  16
ATOM     16  C   UNL     1       8.339   8.183  18.457  0.00  0.00    +0.000 C 
BRANCH  16  17
ATOM     17  C   UNL     1       8.247   9.593  17.874  0.00  0.00    +0.000 C 
BRANCH  17  18
ATOM     18  C   UNL     1       9.241  10.484  18.569  0.00  0.00    +0.000 A 
ATOM     19  C   UNL     1      10.255  11.116  17.835  0.00  0.00    +0.000 A 
ATOM     20  C   UNL     1      11.239  11.852  18.490  0.00  0.00    +0.000 A 
ATOM     21  C   UNL     1      11.220  11.961  19.879  0.00  0.00    +0.000 A 
ATOM     22  C   UNL     1      10.208  11.346  20.616  0.00  0.00    +0.000 A 
ATOM     23  C   UNL     1       9.221  10.610  19.964  0.00  0.00    +0.000 A 
ENDBRANCH  17  18
ENDBRANCH  16  17
ENDBRANCH  13  16
ENDBRANCH   9  13
TORSDOF 5
ENDMDL
MODEL 2
REMARK VINA RESULT:      -8.5      5.023      6.896
REMARK  Name = 
REMARK  6 active torsions:
REMARK  status: ('A' for Active; 'I' for Inactive)
REMARK    1  A    between atoms: C_1  and  C_2
REMARK    2  A    between atoms: C_9  and  C_10
REMARK    3  A    between atoms: C_10  and  O_11
REMARK    4  A    between atoms: C_10  and  C_12
REMARK    5  A    between atoms: C_12  and  C_13
REMARK    6  A    between atoms: C_13  and  C_14
REMARK                            x       y       z     vdW  Elec       q    Type
REMARK                         _______ _______ _______ _____ _____    ______ ____
ROOT
ATOM      1  C   UNL     1       6.700   4.752  13.999  0.00  0.00    +0.000 C 
ATOM      2  C   UNL     1       6.589   4.586  15.455  0.00  0.00    +0.000 A 
ATOM      3  N   UNL     1       7.478   4.770  16.402  0.00  0.00    +0.000 NA
ATOM      4  N   UNL     1       6.841   4.444  17.585  0.00  0.00    +0.000 NA
ATOM      5  C   UNL     1       5.613   4.087  17.274  0.00  0.00    +0.000 A 
ATOM      6  N   UNL     1       4.610   3.617  18.048  0.00  0.00    +0.000 N 
ATOM      7  C   UNL     1       4.775   3.649  19.495  0.00  0.00    +0.000 C 
ATOM      8  C   UNL     1       4.124   2.399  20.088  0.00  0.00    +0.000 C 
ATOM      9  C   UNL     1       2.663   2.188  19.639  0.00  0.00    +0.000 C 
ATOM     10  C   UNL     1       2.572   2.305  18.105  0.00  0.00    +0.000 C 
ATOM     11  C   UNL     1       3.251   3.550  17.541  0.00  0.00    +0.000 C 
ATOM     12  O   UNL     1       5.382   4.163  15.928  0.00  0.00    +0.000 OA
ENDROOT
BRANCH   9  13
ATOM     13  C   UNL     1       1.677   3.087  20.425  0.00  0.00    +0.000 C 
BRANCH  13  14
ATOM     14  O   UNL     1       2.063   3.223  21.788  0.00  0.00    +0.000 OA
ATOM     15  H   UNL     1       1.289   3.065  22.355  0.00  0.00    +0.000 HD
ENDBRANCH  13  14
BRANCH  13  16
ATOM     16  C   UNL     1       1.478   4.487  19.839  0.00  0.00    +0.000 C 
BRANCH  16  17
ATOM     17  C   UNL     1       2.115   5.597  20.674  0.00  0.00    +0.000 C 
BRANCH  17  18
ATOM     18  C   UNL     1       2.058   6.892  19.907  0.00  0.00    +0.000 A 
ATOM     19  C   UNL     1       1.405   8.006  20.452  0.00  0.00    +0.000 A 
ATOM     20  C   UNL     1       1.256   9.169  19.700  0.00  0.00    +0.000 A 
ATOM     21  C   UNL     1       1.756   9.226  18.400  0.00  0.00    +0.000 A 
ATOM     22  C   UNL     1       2.417   8.126  17.854  0.00  0.00    +0.000 A 
ATOM     23  C   UNL     1       2.568   6.962  18.605  0.00  0.00    +0.000 A 
ENDBRANCH  17  18
ENDBRANCH  16  17
ENDBRANCH  13  16
ENDBRANCH   9  13
TORSDOF 5
ENDMDL
MODEL 3
REMARK VINA RESULT:      -8.2      1.329      1.747
REMARK  Name = 
REMARK  6 active torsions:
REMARK  status: ('A' for Active; 'I' for Inactive)
REMARK    1  A    between atoms: C_1  and  C_2
REMARK    2  A    between atoms: C_9  and  C_10
REMARK    3  A    between atoms: C_10  and  O_11
REMARK    4  A    between atoms: C_10  and  C_12
REMARK    5  A    between atoms: C_12  and  C_13
REMARK    6  A    between atoms: C_13  and  C_14
REMARK                            x       y       z     vdW  Elec       q    Type
REMARK                         _______ _______ _______ _____ _____    ______ ____
ROOT
ATOM      1  C   UNL     1       1.660   1.960  19.477  0.00  0.00    +0.000 C 
ATOM      2  C   UNL     1       2.045   3.217  18.822  0.00  0.00    +0.000 A 
ATOM      3  N   UNL     1       1.330   4.067  18.124  0.00  0.00    +0.000 NA
ATOM      4  N   UNL     1       2.206   5.061  17.728  0.00  0.00    +0.000 NA
ATOM      5  C   UNL     1       3.388   4.747  18.214  0.00  0.00    +0.000 A 
ATOM      6  N   UNL     1       4.590   5.346  18.063  0.00  0.00    +0.000 N 
ATOM      7  C   UNL     1       4.640   6.652  17.420  0.00  0.00    +0.000 C 
ATOM      8  C   UNL     1       5.908   6.730  16.569  0.00  0.00    +0.000 C 
ATOM      9  C   UNL     1       7.195   6.374  17.341  0.00  0.00    +0.000 C 
ATOM     10  C   UNL     1       6.995   5.044  18.094  0.00  0.00    +0.000 C 
ATOM     11  C   UNL     1       5.710   4.988  18.914  0.00  0.00    +0.000 C 
ATOM     12  O   UNL     1       3.354   3.583  18.932  0.00  0.00    +0.000 OA
ENDROOT
BRANCH   9  13
ATOM     13  C   UNL     1       7.695   7.551  18.212  0.00  0.00    +0.000 C 
BRANCH  13  14
ATOM     14  O   UNL     1       8.622   7.116  19.202  0.00  0.00    +0.000 OA
ATOM     15  H   UNL     1       9.458   6.874  18.769  0.00  0.00    +0.000 HD
ENDBRANCH  13  14
BRANCH  13  16
ATOM     16  C   UNL     1       8.332   8.704  17.432  0.00  0.00    +0.000 C 
BRANCH  16  17
ATOM     17  C   UNL     1       8.024  10.083  18.015  0.00  0.00    +0.000 C 
BRANCH  17  18
ATOM     18  C   UNL     1       9.280  10.662  18.611  0.00  0.00    +0.000 A 
ATOM     19  C   UNL     1       9.402  10.795  20.002  0.00  0.00    +0.000 A 
ATOM     20  C   UNL     1      10.514  11.430  20.550  0.00  0.00    +0.000 A 
ATOM     21  C   UNL     1      11.509  11.935  19.715  0.00  0.00    +0.000 A 
ATOM     22  C   UNL     1      11.401  11.796  18.332  0.00  0.00    +0.000 A 
ATOM     23  C   UNL     1      10.290  11.161  17.781  0.00  0.00    +0.000 A 
ENDBRANCH  17  18
ENDBRANCH  16  17
ENDBRANCH  13  16
ENDBRANCH   9  13
TORSDOF 5
ENDMDL
MODEL 4
REMARK VINA RESULT:      -8.0      5.211      6.795
REMARK  Name = 
REMARK  6 active torsions:
REMARK  status: ('A' for Active; 'I' for Inactive)
REMARK    1  A    between atoms: C_1  and  C_2
REMARK    2  A    between atoms: C_9  and  C_10
REMARK    3  A    between atoms: C_10  and  O_11
REMARK    4  A    between atoms: C_10  and  C_12
REMARK    5  A    between atoms: C_12  and  C_13
REMARK    6  A    between atoms: C_13  and  C_14
REMARK                            x       y       z     vdW  Elec       q    Type
REMARK                         _______ _______ _______ _____ _____    ______ ____
ROOT
ATOM      1  C   UNL     1       5.662   4.307  13.624  0.00  0.00    +0.000 C 
ATOM      2  C   UNL     1       5.765   4.232  15.088  0.00  0.00    +0.000 A 
ATOM      3  N   UNL     1       6.788   4.443  15.882  0.00  0.00    +0.000 NA
ATOM      4  N   UNL     1       6.326   4.210  17.163  0.00  0.00    +0.000 NA
ATOM      5  C   UNL     1       5.057   3.875  17.059  0.00  0.00    +0.000 A 
ATOM      6  N   UNL     1       4.169   3.486  18.000  0.00  0.00    +0.000 N 
ATOM      7  C   UNL     1       4.547   3.599  19.402  0.00  0.00    +0.000 C 
ATOM      8  C   UNL     1       3.961   2.409  20.163  0.00  0.00    +0.000 C 
ATOM      9  C   UNL     1       2.446   2.220  19.947  0.00  0.00    +0.000 C 
ATOM     10  C   UNL     1       2.131   2.248  18.438  0.00  0.00    +0.000 C 
ATOM     11  C   UNL     1       2.748   3.434  17.703  0.00  0.00    +0.000 C 
ATOM     12  O   UNL     1       4.631   3.879  15.759  0.00  0.00    +0.000 OA
ENDROOT
BRANCH   9  13
ATOM     13  C   UNL     1       1.609   3.196  20.809  0.00  0.00    +0.000 C 
BRANCH  13  14
ATOM     14  O   UNL     1       2.223   3.443  22.070  0.00  0.00    +0.000 OA
ATOM     15  H   UNL     1       2.537   4.363  22.096  0.00  0.00    +0.000 HD
ENDBRANCH  13  14
BRANCH  13  16
ATOM     16  C   UNL     1       1.311   4.545  20.148  0.00  0.00    +0.000 C 
BRANCH  16  17
ATOM     17  C   UNL     1       2.119   5.705  20.728  0.00  0.00    +0.000 C 
BRANCH  17  18
ATOM     18  C   UNL     1       1.983   6.904  19.829  0.00  0.00    +0.000 A 
ATOM     19  C   UNL     1       2.538   6.885  18.540  0.00  0.00    +0.000 A 
ATOM     20  C   UNL     1       2.510   8.030  17.749  0.00  0.00    +0.000 A 
ATOM     21  C   UNL     1       1.931   9.200  18.236  0.00  0.00    +0.000 A 
ATOM     22  C   UNL     1       1.367   9.225  19.511  0.00  0.00    +0.000 A 
ATOM     23  C   UNL     1       1.392   8.081  20.305  0.00  0.00    +0.000 A 
ENDBRANCH  17  18
ENDBRANCH  16  17
ENDBRANCH  13  16
ENDBRANCH   9  13
TORSDOF 5
ENDMDL
MODEL 5
REMARK VINA RESULT:      -7.9      3.617      6.117
REMARK  Name = 
REMARK  6 active torsions:
REMARK  status: ('A' for Active; 'I' for Inactive)
REMARK    1  A    between atoms: C_1  and  C_2
REMARK    2  A    between atoms: C_9  and  C_10
REMARK    3  A    between atoms: C_10  and  O_11
REMARK    4  A    between atoms: C_10  and  C_12
REMARK    5  A    between atoms: C_12  and  C_13
REMARK    6  A    between atoms: C_13  and  C_14
REMARK                            x       y       z     vdW  Elec       q    Type
REMARK                         _______ _______ _______ _____ _____    ______ ____
ROOT
ATOM      1  C   UNL     1       0.165   9.415  22.880  0.00  0.00    +0.000 C 
ATOM      2  C   UNL     1       0.789   8.914  21.649  0.00  0.00    +0.000 A 
ATOM      3  N   UNL     1       1.220   9.557  20.590  0.00  0.00    +0.000 NA
ATOM      4  N   UNL     1       1.693   8.588  19.725  0.00  0.00    +0.000 NA
ATOM      5  C   UNL     1       1.518   7.426  20.319  0.00  0.00    +0.000 A 
ATOM      6  N   UNL     1       1.748   6.169  19.879  0.00  0.00    +0.000 N 
ATOM      7  C   UNL     1       2.470   5.992  18.626  0.00  0.00    +0.000 C 
ATOM      8  C   UNL     1       1.879   4.790  17.888  0.00  0.00    +0.000 C 
ATOM      9  C   UNL     1       1.810   3.509  18.745  0.00  0.00    +0.000 C 
ATOM     10  C   UNL     1       1.151   3.830  20.102  0.00  0.00    +0.000 C 
ATOM     11  C   UNL     1       1.746   5.048  20.802  0.00  0.00    +0.000 C 
ATOM     12  O   UNL     1       0.953   7.563  21.557  0.00  0.00    +0.000 OA
ENDROOT
BRANCH   9  13
ATOM     13  C   UNL     1       3.180   2.794  18.835  0.00  0.00    +0.000 C 
BRANCH  13  14
ATOM     14  O   UNL     1       3.125   1.482  18.287  0.00  0.00    +0.000 OA
ATOM     15  H   UNL     1       3.704   0.896  18.803  0.00  0.00    +0.000 HD
ENDBRANCH  13  14
BRANCH  13  16
ATOM     16  C   UNL     1       4.341   3.543  18.175  0.00  0.00    +0.000 C 
BRANCH  16  17
ATOM     17  C   UNL     1       5.392   4.041  19.166  0.00  0.00    +0.000 C 
BRANCH  17  18
ATOM     18  C   UNL     1       6.179   5.160  18.536  0.00  0.00    +0.000 A 
ATOM     19  C   UNL     1       7.351   5.628  19.146  0.00  0.00    +0.000 A 
ATOM     20  C   UNL     1       8.019   6.733  18.625  0.00  0.00    +0.000 A 
ATOM     21  C   UNL     1       7.522   7.378  17.494  0.00  0.00    +0.000 A 
ATOM     22  C   UNL     1       6.363   6.913  16.874  0.00  0.00    +0.000 A 
ATOM     23  C   UNL     1       5.693   5.806  17.392  0.00  0.00    +0.000 A 
ENDBRANCH  17  18
ENDBRANCH  16  17
ENDBRANCH  13  16
ENDBRANCH   9  13
TORSDOF 5
ENDMDL
MODEL 6
REMARK VINA RESULT:      -7.9      3.901      6.252
REMARK  Name = 
REMARK  6 active torsions:
REMARK  status: ('A' for Active; 'I' for Inactive)
REMARK    1  A    between atoms: C_1  and  C_2
REMARK    2  A    between atoms: C_9  and  C_10
REMARK    3  A    between atoms: C_10  and  O_11
REMARK    4  A    between atoms: C_10  and  C_12
REMARK    5  A    between atoms: C_12  and  C_13
REMARK    6  A    between atoms: C_13  and  C_14
REMARK                            x       y       z     vdW  Elec       q    Type
REMARK                         _______ _______ _______ _____ _____    ______ ____
ROOT
ATOM      1  C   UNL     1      -0.161   9.673  23.286  0.00  0.00    +0.000 C 
ATOM      2  C   UNL     1       0.506   9.384  22.009  0.00  0.00    +0.000 A 
ATOM      3  N   UNL     1       0.804  10.176  21.007  0.00  0.00    +0.000 NA
ATOM      4  N   UNL     1       1.405   9.372  20.057  0.00  0.00    +0.000 NA
ATOM      5  C   UNL     1       1.430   8.151  20.548  0.00  0.00    +0.000 A 
ATOM      6  N   UNL     1       1.847   6.989  19.997  0.00  0.00    +0.000 N 
ATOM      7  C   UNL     1       2.558   7.037  18.727  0.00  0.00    +0.000 C 
ATOM      8  C   UNL     1       2.148   5.823  17.892  0.00  0.00    +0.000 C 
ATOM      9  C   UNL     1       2.303   4.480  18.634  0.00  0.00    +0.000 C 
ATOM     10  C   UNL     1       1.633   4.574  20.019  0.00  0.00    +0.000 C 
ATOM     11  C   UNL     1       2.043   5.808  20.818  0.00  0.00    +0.000 C 
ATOM     12  O   UNL     1       0.879   8.090  21.798  0.00  0.00    +0.000 OA
ENDROOT
BRANCH   9  13
ATOM     13  C   UNL     1       3.770   3.987  18.648  0.00  0.00    +0.000 C 
BRANCH  13  14
ATOM     14  O   UNL     1       4.041   3.176  19.787  0.00  0.00    +0.000 OA
ATOM     15  H   UNL     1       4.879   2.704  19.648  0.00  0.00    +0.000 HD
ENDBRANCH  13  14
BRANCH  13  16
ATOM     16  C   UNL     1       4.203   3.219  17.397  0.00  0.00    +0.000 C 
BRANCH  16  17
ATOM     17  C   UNL     1       4.887   4.093  16.346  0.00  0.00    +0.000 C 
BRANCH  17  18
ATOM     18  C   UNL     1       5.815   5.060  17.032  0.00  0.00    +0.000 A 
ATOM     19  C   UNL     1       5.720   6.434  16.771  0.00  0.00    +0.000 A 
ATOM     20  C   UNL     1       6.647   7.317  17.318  0.00  0.00    +0.000 A 
ATOM     21  C   UNL     1       7.674   6.836  18.128  0.00  0.00    +0.000 A 
ATOM     22  C   UNL     1       7.769   5.472  18.403  0.00  0.00    +0.000 A 
ATOM     23  C   UNL     1       6.842   4.586  17.858  0.00  0.00    +0.000 A 
ENDBRANCH  17  18
ENDBRANCH  16  17
ENDBRANCH  13  16
ENDBRANCH   9  13
TORSDOF 5
ENDMDL
MODEL 7
REMARK VINA RESULT:      -7.8      4.850      8.018
REMARK  Name = 
REMARK  6 active torsions:
REMARK  status: ('A' for Active; 'I' for Inactive)
REMARK    1  A    between atoms: C_1  and  C_2
REMARK    2  A    between atoms: C_9  and  C_10
REMARK    3  A    between atoms: C_10  and  O_11
REMARK    4  A    between atoms: C_10  and  C_12
REMARK    5  A    between atoms: C_12  and  C_13
REMARK    6  A    between atoms: C_13  and  C_14
REMARK                            x       y       z     vdW  Elec       q    Type
REMARK                         _______ _______ _______ _____ _____    ______ ____
ROOT
ATOM      1  C   UNL     1       0.301  11.446  19.311  0.00  0.00    +0.000 C 
ATOM      2  C   UNL     1       0.784  10.119  19.715  0.00  0.00    +0.000 A 
ATOM      3  N   UNL     1       0.606   9.451  20.831  0.00  0.00    +0.000 NA
ATOM      4  N   UNL     1       1.302   8.267  20.677  0.00  0.00    +0.000 NA
ATOM      5  C   UNL     1       1.852   8.297  19.481  0.00  0.00    +0.000 A 
ATOM      6  N   UNL     1       2.682   7.423  18.871  0.00  0.00    +0.000 N 
ATOM      7  C   UNL     1       2.914   6.129  19.501  0.00  0.00    +0.000 C 
ATOM      8  C   UNL     1       4.372   5.729  19.272  0.00  0.00    +0.000 C 
ATOM      9  C   UNL     1       4.804   5.781  17.793  0.00  0.00    +0.000 C 
ATOM     10  C   UNL     1       4.397   7.136  17.182  0.00  0.00    +0.000 C 
ATOM     11  C   UNL     1       2.944   7.518  17.447  0.00  0.00    +0.000 C 
ATOM     12  O   UNL     1       1.553   9.450  18.809  0.00  0.00    +0.000 OA
ENDROOT
BRANCH   9  13
ATOM     13  C   UNL     1       4.329   4.537  17.004  0.00  0.00    +0.000 C 
BRANCH  13  14
ATOM     14  O   UNL     1       4.862   4.516  15.684  0.00  0.00    +0.000 OA
ATOM     15  H   UNL     1       5.473   5.265  15.576  0.00  0.00    +0.000 HD
ENDBRANCH  13  14
BRANCH  13  16
ATOM     16  C   UNL     1       4.644   3.194  17.669  0.00  0.00    +0.000 C 
BRANCH  16  17
ATOM     17  C   UNL     1       3.434   2.266  17.779  0.00  0.00    +0.000 C 
BRANCH  17  18
ATOM     18  C   UNL     1       2.707   2.547  19.067  0.00  0.00    +0.000 A 
ATOM     19  C   UNL     1       3.368   2.402  20.296  0.00  0.00    +0.000 A 
ATOM     20  C   UNL     1       2.669   2.555  21.490  0.00  0.00    +0.000 A 
ATOM     21  C   UNL     1       1.307   2.852  21.467  0.00  0.00    +0.000 A 
ATOM     22  C   UNL     1       0.645   3.010  20.251  0.00  0.00    +0.000 A 
ATOM     23  C   UNL     1       1.342   2.859  19.054  0.00  0.00    +0.000 A 
ENDBRANCH  17  18
ENDBRANCH  16  17
ENDBRANCH  13  16
ENDBRANCH   9  13
TORSDOF 5
ENDMDL
MODEL 8
REMARK VINA RESULT:      -7.7      4.742      6.896
REMARK  Name = 
REMARK  6 active torsions:
REMARK  status: ('A' for Active; 'I' for Inactive)
REMARK    1  A    between atoms: C_1  and  C_2
REMARK    2  A    between atoms: C_9  and  C_10
REMARK    3  A    between atoms: C_10  and  O_11
REMARK    4  A    between atoms: C_10  and  C_12
REMARK    5  A    between atoms: C_12  and  C_13
REMARK    6  A    between atoms: C_13  and  C_14
REMARK                            x       y       z     vdW  Elec       q    Type
REMARK                         _______ _______ _______ _____ _____    ______ ____
ROOT
ATOM      1  C   UNL     1       6.652   3.633  12.635  0.00  0.00    +0.000 C 
ATOM      2  C   UNL     1       6.579   4.346  13.918  0.00  0.00    +0.000 A 
ATOM      3  N   UNL     1       7.297   5.342  14.379  0.00  0.00    +0.000 NA
ATOM      4  N   UNL     1       6.812   5.601  15.647  0.00  0.00    +0.000 NA
ATOM      5  C   UNL     1       5.836   4.746  15.867  0.00  0.00    +0.000 A 
ATOM      6  N   UNL     1       5.082   4.533  16.968  0.00  0.00    +0.000 N 
ATOM      7  C   UNL     1       5.184   5.477  18.073  0.00  0.00    +0.000 C 
ATOM      8  C   UNL     1       5.069   4.704  19.388  0.00  0.00    +0.000 C 
ATOM      9  C   UNL     1       3.825   3.796  19.466  0.00  0.00    +0.000 C 
ATOM     10  C   UNL     1       3.733   2.933  18.192  0.00  0.00    +0.000 C 
ATOM     11  C   UNL     1       3.876   3.729  16.898  0.00  0.00    +0.000 C 
ATOM     12  O   UNL     1       5.628   3.919  14.797  0.00  0.00    +0.000 OA
ENDROOT
BRANCH   9  13
ATOM     13  C   UNL     1       2.543   4.593  19.810  0.00  0.00    +0.000 C 
BRANCH  13  14
ATOM     14  O   UNL     1       2.245   4.534  21.201  0.00  0.00    +0.000 OA
ATOM     15  H   UNL     1       2.654   5.295  21.647  0.00  0.00    +0.000 HD
ENDBRANCH  13  14
BRANCH  13  16
ATOM     16  C   UNL     1       2.567   6.064  19.386  0.00  0.00    +0.000 C 
BRANCH  16  17
ATOM     17  C   UNL     1       2.124   7.027  20.487  0.00  0.00    +0.000 C 
BRANCH  17  18
ATOM     18  C   UNL     1       1.583   8.284  19.860  0.00  0.00    +0.000 A 
ATOM     19  C   UNL     1       0.678   9.090  20.565  0.00  0.00    +0.000 A 
ATOM     20  C   UNL     1       0.092  10.192  19.947  0.00  0.00    +0.000 A 
ATOM     21  C   UNL     1       0.405  10.497  18.623  0.00  0.00    +0.000 A 
ATOM     22  C   UNL     1       1.313   9.708  17.918  0.00  0.00    +0.000 A 
ATOM     23  C   UNL     1       1.901   8.605  18.534  0.00  0.00    +0.000 A 
ENDBRANCH  17  18
ENDBRANCH  16  17
ENDBRANCH  13  16
ENDBRANCH   9  13
TORSDOF 5
ENDMDL
MODEL 9
REMARK VINA RESULT:      -7.6      4.691      7.856
REMARK  Name = 
REMARK  6 active torsions:
REMARK  status: ('A' for Active; 'I' for Inactive)
REMARK    1  A    between atoms: C_1  and  C_2
REMARK    2  A    between atoms: C_9  and  C_10
REMARK    3  A    between atoms: C_10  and  O_11
REMARK    4  A    between atoms: C_10  and  C_12
REMARK    5  A    between atoms: C_12  and  C_13
REMARK    6  A    between atoms: C_13  and  C_14
REMARK                            x       y       z     vdW  Elec       q    Type
REMARK                         _______ _______ _______ _____ _____    ______ ____
ROOT
ATOM      1  C   UNL     1       0.414  10.892  18.939  0.00  0.00    +0.000 C 
ATOM      2  C   UNL     1       0.988   9.629  19.423  0.00  0.00    +0.000 A 
ATOM      3  N   UNL     1       0.848   9.017  20.574  0.00  0.00    +0.000 NA
ATOM      4  N   UNL     1       1.629   7.880  20.494  0.00  0.00    +0.000 NA
ATOM      5  C   UNL     1       2.187   7.880  19.302  0.00  0.00    +0.000 A 
ATOM      6  N   UNL     1       3.084   7.035  18.749  0.00  0.00    +0.000 N 
ATOM      7  C   UNL     1       3.403   5.800  19.454  0.00  0.00    +0.000 C 
ATOM      8  C   UNL     1       4.888   5.495  19.258  0.00  0.00    +0.000 C 
ATOM      9  C   UNL     1       5.331   5.492  17.781  0.00  0.00    +0.000 C 
ATOM     10  C   UNL     1       4.832   6.776  17.088  0.00  0.00    +0.000 C 
ATOM     11  C   UNL     1       3.352   7.066  17.322  0.00  0.00    +0.000 C 
ATOM     12  O   UNL     1       1.812   8.967  18.561  0.00  0.00    +0.000 OA
ENDROOT
BRANCH   9  13
ATOM     13  C   UNL     1       4.955   4.173  17.063  0.00  0.00    +0.000 C 
BRANCH  13  14
ATOM     14  O   UNL     1       5.910   3.827  16.065  0.00  0.00    +0.000 OA
ATOM     15  H   UNL     1       6.560   3.214  16.447  0.00  0.00    +0.000 HD
ENDBRANCH  13  14
BRANCH  13  16
ATOM     16  C   UNL     1       4.768   2.968  17.988  0.00  0.00    +0.000 C 
BRANCH  16  17
ATOM     17  C   UNL     1       3.411   2.282  17.835  0.00  0.00    +0.000 C 
BRANCH  17  18
ATOM     18  C   UNL     1       2.624   2.448  19.108  0.00  0.00    +0.000 A 
ATOM     19  C   UNL     1       1.264   2.789  19.056  0.00  0.00    +0.000 A 
ATOM     20  C   UNL     1       0.562   3.050  20.230  0.00  0.00    +0.000 A 
ATOM     21  C   UNL     1       1.211   2.974  21.461  0.00  0.00    +0.000 A 
ATOM     22  C   UNL     1       2.559   2.624  21.523  0.00  0.00    +0.000 A 
ATOM     23  C   UNL     1       3.264   2.361  20.350  0.00  0.00    +0.000 A 
ENDBRANCH  17  18
ENDBRANCH  16  17
ENDBRANCH  13  16
ENDBRANCH   9  13
TORSDOF 5
ENDMDL
