MODEL 1
REMARK VINA RESULT:      -6.8      0.000      0.000
REMARK  Name = 
REMARK  10 active torsions:
REMARK  status: ('A' for Active; 'I' for Inactive)
REMARK    1  A    between atoms: C_1  and  C_2
REMARK    2  A    between atoms: C_2  and  C_3
REMARK    3  A    between atoms: C_4  and  N_5
REMARK    4  A    between atoms: C_6  and  O_8
REMARK    5  A    between atoms: O_8  and  C_9
REMARK    6  A    between atoms: C_9  and  C_10
REMARK    7  A    between atoms: C_10  and  C_11
REMARK    8  A    between atoms: C_11  and  C_12
REMARK    9  A    between atoms: C_17  and  C_18
REMARK   10  A    between atoms: C_17  and  C_19
REMARK                            x       y       z     vdW  Elec       q    Type
REMARK                         _______ _______ _______ _____ _____    ______ ____
ROOT
ATOM      1  N   UNL     1       2.822   5.413  19.089  0.00  0.00    +0.000 N 
ATOM      2  C   UNL     1       3.168   6.429  18.229  0.00  0.00    +0.000 C 
ATOM      3  O   UNL     1       2.674   7.548  18.326  0.00  0.00    +0.000 OA
ATOM      4  H   UNL     1       2.294   5.768  19.872  0.00  0.00    +0.000 HD
ENDROOT
BRANCH   1   8
ATOM      5  C   UNL     1       1.411   3.451  20.946  0.00  0.00    +0.000 C 
ATOM      6  C   UNL     1       1.677   3.125  19.486  0.00  0.00    +0.000 C 
ATOM      7  C   UNL     1       0.537   2.339  18.879  0.00  0.00    +0.000 C 
ATOM      8  C   UNL     1       2.431   4.117  18.599  0.00  0.00    +0.000 C 
ATOM      9  C   UNL     1       3.115   2.829  19.035  0.00  0.00    +0.000 C 
ATOM     10  C   UNL     1       4.218   2.819  20.074  0.00  0.00    +0.000 C 
ATOM     11  C   UNL     1       3.375   1.805  17.947  0.00  0.00    +0.000 C 
ENDBRANCH   1   8
BRANCH   2  12
ATOM     12  O   UNL     1       4.139   6.075  17.347  0.00  0.00    +0.000 OA
BRANCH  12  13
ATOM     13  C   UNL     1       5.486   6.443  17.696  0.00  0.00    +0.000 C 
BRANCH  13  14
ATOM     14  C   UNL     1       6.274   5.299  18.347  0.00  0.00    +0.000 C 
BRANCH  14  15
ATOM     15  C   UNL     1       7.436   4.841  17.464  0.00  0.00    +0.000 C 
BRANCH  15  16
ATOM     16  C   UNL     1       7.021   4.556  16.056  0.00  0.00    +0.000 A 
ATOM     17  C   UNL     1       6.141   3.607  15.580  0.00  0.00    +0.000 A 
ATOM     18  N   UNL     1       6.139   3.755  14.213  0.00  0.00    +0.000 N 
ATOM     19  C   UNL     1       7.005   4.772  13.923  0.00  0.00    +0.000 A 
ATOM     20  N   UNL     1       7.555   5.268  15.006  0.00  0.00    +0.000 NA
ATOM     21  H   UNL     1       5.597   3.218  13.559  0.00  0.00    +0.000 HD
ENDBRANCH  15  16
ENDBRANCH  14  15
ENDBRANCH  13  14
ENDBRANCH  12  13
ENDBRANCH   2  12
TORSDOF 6
ENDMDL
MODEL 2
REMARK VINA RESULT:      -6.4      1.719      2.554
REMARK  Name = 
REMARK  10 active torsions:
REMARK  status: ('A' for Active; 'I' for Inactive)
REMARK    1  A    between atoms: C_1  and  C_2
REMARK    2  A    between atoms: C_2  and  C_3
REMARK    3  A    between atoms: C_4  and  N_5
REMARK    4  A    between atoms: C_6  and  O_8
REMARK    5  A    between atoms: O_8  and  C_9
REMARK    6  A    between atoms: C_9  and  C_10
REMARK    7  A    between atoms: C_10  and  C_11
REMARK    8  A    between atoms: C_11  and  C_12
REMARK    9  A    between atoms: C_17  and  C_18
REMARK   10  A    between atoms: C_17  and  C_19
REMARK                            x       y       z     vdW  Elec       q    Type
REMARK                         _______ _______ _______ _____ _____    ______ ____
ROOT
ATOM      1  N   UNL     1       3.299   5.123  19.512  0.00  0.00    +0.000 N 
ATOM      2  C   UNL     1       2.872   6.359  19.087  0.00  0.00    +0.000 C 
ATOM      3  O   UNL     1       2.456   7.201  19.877  0.00  0.00    +0.000 OA
ATOM      4  H   UNL     1       3.396   5.101  20.516  0.00  0.00    +0.000 HD
ENDROOT
BRANCH   1   8
ATOM      5  C   UNL     1       1.455   3.260  21.067  0.00  0.00    +0.000 C 
ATOM      6  C   UNL     1       1.853   2.978  19.628  0.00  0.00    +0.000 C 
ATOM      7  C   UNL     1       0.710   2.371  18.847  0.00  0.00    +0.000 C 
ATOM      8  C   UNL     1       2.820   3.912  18.898  0.00  0.00    +0.000 C 
ATOM      9  C   UNL     1       3.291   2.528  19.323  0.00  0.00    +0.000 C 
ATOM     10  C   UNL     1       4.253   2.329  20.477  0.00  0.00    +0.000 C 
ATOM     11  C   UNL     1       3.556   1.537  18.207  0.00  0.00    +0.000 C 
ENDBRANCH   1   8
BRANCH   2  12
ATOM     12  O   UNL     1       3.034   6.550  17.751  0.00  0.00    +0.000 OA
BRANCH  12  13
ATOM     13  C   UNL     1       4.380   6.776  17.296  0.00  0.00    +0.000 C 
BRANCH  13  14
ATOM     14  C   UNL     1       4.898   5.666  16.372  0.00  0.00    +0.000 C 
BRANCH  14  15
ATOM     15  C   UNL     1       6.415   5.750  16.187  0.00  0.00    +0.000 C 
BRANCH  15  16
ATOM     16  C   UNL     1       7.146   6.003  17.466  0.00  0.00    +0.000 A 
ATOM     17  C   UNL     1       7.794   7.144  17.891  0.00  0.00    +0.000 A 
ATOM     18  N   UNL     1       8.315   6.837  19.125  0.00  0.00    +0.000 N 
ATOM     19  C   UNL     1       7.966   5.543  19.393  0.00  0.00    +0.000 A 
ATOM     20  N   UNL     1       7.270   5.013  18.415  0.00  0.00    +0.000 NA
ATOM     21  H   UNL     1       8.846   7.453  19.716  0.00  0.00    +0.000 HD
ENDBRANCH  15  16
ENDBRANCH  14  15
ENDBRANCH  13  14
ENDBRANCH  12  13
ENDBRANCH   2  12
TORSDOF 6
ENDMDL
MODEL 3
REMARK VINA RESULT:      -6.3      1.914      5.318
REMARK  Name = 
REMARK  10 active torsions:
REMARK  status: ('A' for Active; 'I' for Inactive)
REMARK    1  A    between atoms: C_1  and  C_2
REMARK    2  A    between atoms: C_2  and  C_3
REMARK    3  A    between atoms: C_4  and  N_5
REMARK    4  A    between atoms: C_6  and  O_8
REMARK    5  A    between atoms: O_8  and  C_9
REMARK    6  A    between atoms: C_9  and  C_10
REMARK    7  A    between atoms: C_10  and  C_11
REMARK    8  A    between atoms: C_11  and  C_12
REMARK    9  A    between atoms: C_17  and  C_18
REMARK   10  A    between atoms: C_17  and  C_19
REMARK                            x       y       z     vdW  Elec       q    Type
REMARK                         _______ _______ _______ _____ _____    ______ ____
ROOT
ATOM      1  N   UNL     1       3.931   5.038  17.696  0.00  0.00    +0.000 N 
ATOM      2  C   UNL     1       2.946   5.724  18.366  0.00  0.00    +0.000 C 
ATOM      3  O   UNL     1       1.945   6.138  17.789  0.00  0.00    +0.000 OA
ATOM      4  H   UNL     1       3.624   4.777  16.772  0.00  0.00    +0.000 HD
ENDROOT
BRANCH   1   8
ATOM      5  C   UNL     1       5.228   6.794  15.569  0.00  0.00    +0.000 C 
ATOM      6  C   UNL     1       5.989   6.328  16.799  0.00  0.00    +0.000 C 
ATOM      7  C   UNL     1       6.931   7.397  17.304  0.00  0.00    +0.000 C 
ATOM      8  C   UNL     1       5.318   5.408  17.819  0.00  0.00    +0.000 C 
ATOM      9  C   UNL     1       6.404   4.852  16.908  0.00  0.00    +0.000 C 
ATOM     10  C   UNL     1       6.085   3.918  15.759  0.00  0.00    +0.000 C 
ATOM     11  C   UNL     1       7.713   4.478  17.575  0.00  0.00    +0.000 C 
ENDBRANCH   1   8
BRANCH   2  12
ATOM     12  O   UNL     1       3.172   5.815  19.703  0.00  0.00    +0.000 OA
BRANCH  12  13
ATOM     13  C   UNL     1       2.011   5.982  20.538  0.00  0.00    +0.000 C 
BRANCH  13  14
ATOM     14  C   UNL     1       1.246   4.674  20.777  0.00  0.00    +0.000 C 
BRANCH  14  15
ATOM     15  C   UNL     1       2.198   3.504  21.034  0.00  0.00    +0.000 C 
BRANCH  15  16
ATOM     16  C   UNL     1       2.464   2.688  19.810  0.00  0.00    +0.000 A 
ATOM     17  C   UNL     1       1.583   2.243  18.848  0.00  0.00    +0.000 A 
ATOM     18  N   UNL     1       2.340   1.520  17.957  0.00  0.00    +0.000 N 
ATOM     19  C   UNL     1       3.629   1.557  18.409  0.00  0.00    +0.000 A 
ATOM     20  N   UNL     1       3.735   2.244  19.522  0.00  0.00    +0.000 NA
ATOM     21  H   UNL     1       2.003   1.059  17.129  0.00  0.00    +0.000 HD
ENDBRANCH  15  16
ENDBRANCH  14  15
ENDBRANCH  13  14
ENDBRANCH  12  13
ENDBRANCH   2  12
TORSDOF 6
ENDMDL
MODEL 4
REMARK VINA RESULT:      -6.3      1.262      2.277
REMARK  Name = 
REMARK  10 active torsions:
REMARK  status: ('A' for Active; 'I' for Inactive)
REMARK    1  A    between atoms: C_1  and  C_2
REMARK    2  A    between atoms: C_2  and  C_3
REMARK    3  A    between atoms: C_4  and  N_5
REMARK    4  A    between atoms: C_6  and  O_8
REMARK    5  A    between atoms: O_8  and  C_9
REMARK    6  A    between atoms: C_9  and  C_10
REMARK    7  A    between atoms: C_10  and  C_11
REMARK    8  A    between atoms: C_11  and  C_12
REMARK    9  A    between atoms: C_17  and  C_18
REMARK   10  A    between atoms: C_17  and  C_19
REMARK                            x       y       z     vdW  Elec       q    Type
REMARK                         _______ _______ _______ _____ _____    ______ ____
ROOT
ATOM      1  N   UNL     1       3.520   5.548  19.366  0.00  0.00    +0.000 N 
ATOM      2  C   UNL     1       4.398   5.965  18.394  0.00  0.00    +0.000 C 
ATOM      3  O   UNL     1       4.026   6.638  17.438  0.00  0.00    +0.000 OA
ATOM      4  H   UNL     1       2.633   6.021  19.277  0.00  0.00    +0.000 HD
ENDROOT
BRANCH   1   8
ATOM      5  C   UNL     1       1.962   3.523  17.704  0.00  0.00    +0.000 C 
ATOM      6  C   UNL     1       2.732   3.117  18.949  0.00  0.00    +0.000 C 
ATOM      7  C   UNL     1       3.375   1.759  18.782  0.00  0.00    +0.000 C 
ATOM      8  C   UNL     1       3.461   4.171  19.783  0.00  0.00    +0.000 C 
ATOM      9  C   UNL     1       2.195   3.527  20.329  0.00  0.00    +0.000 C 
ATOM     10  C   UNL     1       0.883   4.281  20.406  0.00  0.00    +0.000 C 
ATOM     11  C   UNL     1       2.370   2.603  21.518  0.00  0.00    +0.000 C 
ENDBRANCH   1   8
BRANCH   2  12
ATOM     12  O   UNL     1       5.687   5.617  18.652  0.00  0.00    +0.000 OA
BRANCH  12  13
ATOM     13  C   UNL     1       6.163   4.415  18.020  0.00  0.00    +0.000 C 
BRANCH  13  14
ATOM     14  C   UNL     1       6.817   4.669  16.656  0.00  0.00    +0.000 C 
BRANCH  14  15
ATOM     15  C   UNL     1       5.845   4.395  15.506  0.00  0.00    +0.000 C 
BRANCH  15  16
ATOM     16  C   UNL     1       6.496   4.468  14.162  0.00  0.00    +0.000 A 
ATOM     17  C   UNL     1       6.259   3.711  13.034  0.00  0.00    +0.000 A 
ATOM     18  N   UNL     1       7.142   4.170  12.087  0.00  0.00    +0.000 N 
ATOM     19  C   UNL     1       7.867   5.170  12.671  0.00  0.00    +0.000 A 
ATOM     20  N   UNL     1       7.508   5.368  13.917  0.00  0.00    +0.000 NA
ATOM     21  H   UNL     1       7.230   3.833  11.143  0.00  0.00    +0.000 HD
ENDBRANCH  15  16
ENDBRANCH  14  15
ENDBRANCH  13  14
ENDBRANCH  12  13
ENDBRANCH   2  12
TORSDOF 6
ENDMDL
MODEL 5
REMARK VINA RESULT:      -6.3      1.876      2.573
REMARK  Name = 
REMARK  10 active torsions:
REMARK  status: ('A' for Active; 'I' for Inactive)
REMARK    1  A    between atoms: C_1  and  C_2
REMARK    2  A    between atoms: C_2  and  C_3
REMARK    3  A    between atoms: C_4  and  N_5
REMARK    4  A    between atoms: C_6  and  O_8
REMARK    5  A    between atoms: O_8  and  C_9
REMARK    6  A    between atoms: C_9  and  C_10
REMARK    7  A    between atoms: C_10  and  C_11
REMARK    8  A    between atoms: C_11  and  C_12
REMARK    9  A    between atoms: C_17  and  C_18
REMARK   10  A    between atoms: C_17  and  C_19
REMARK                            x       y       z     vdW  Elec       q    Type
REMARK                         _______ _______ _______ _____ _____    ______ ____
ROOT
ATOM      1  N   UNL     1       2.725   5.403  19.742  0.00  0.00    +0.000 N 
ATOM      2  C   UNL     1       2.480   6.670  19.266  0.00  0.00    +0.000 C 
ATOM      3  O   UNL     1       1.963   7.532  19.971  0.00  0.00    +0.000 OA
ATOM      4  H   UNL     1       2.606   5.365  20.743  0.00  0.00    +0.000 HD
ENDROOT
BRANCH   1   8
ATOM      5  C   UNL     1       1.521   3.033  21.233  0.00  0.00    +0.000 C 
ATOM      6  C   UNL     1       1.652   3.047  19.719  0.00  0.00    +0.000 C 
ATOM      7  C   UNL     1       0.471   2.376  19.056  0.00  0.00    +0.000 C 
ATOM      8  C   UNL     1       2.306   4.235  19.012  0.00  0.00    +0.000 C 
ATOM      9  C   UNL     1       3.046   2.906  19.087  0.00  0.00    +0.000 C 
ATOM     10  C   UNL     1       4.242   2.705  19.995  0.00  0.00    +0.000 C 
ATOM     11  C   UNL     1       3.216   2.158  17.780  0.00  0.00    +0.000 C 
ENDBRANCH   1   8
BRANCH   2  12
ATOM     12  O   UNL     1       2.932   6.862  17.999  0.00  0.00    +0.000 OA
BRANCH  12  13
ATOM     13  C   UNL     1       4.360   6.836  17.819  0.00  0.00    +0.000 C 
BRANCH  13  14
ATOM     14  C   UNL     1       4.786   6.271  16.458  0.00  0.00    +0.000 C 
BRANCH  14  15
ATOM     15  C   UNL     1       6.223   5.747  16.491  0.00  0.00    +0.000 C 
BRANCH  15  16
ATOM     16  C   UNL     1       7.123   6.567  17.358  0.00  0.00    +0.000 A 
ATOM     17  C   UNL     1       7.749   6.225  18.538  0.00  0.00    +0.000 A 
ATOM     18  N   UNL     1       8.437   7.348  18.933  0.00  0.00    +0.000 N 
ATOM     19  C   UNL     1       8.203   8.309  17.990  0.00  0.00    +0.000 A 
ATOM     20  N   UNL     1       7.413   7.874  17.036  0.00  0.00    +0.000 NA
ATOM     21  H   UNL     1       9.006   7.437  19.757  0.00  0.00    +0.000 HD
ENDBRANCH  15  16
ENDBRANCH  14  15
ENDBRANCH  13  14
ENDBRANCH  12  13
ENDBRANCH   2  12
TORSDOF 6
ENDMDL
MODEL 6
REMARK VINA RESULT:      -6.3      2.313      5.951
REMARK  Name = 
REMARK  10 active torsions:
REMARK  status: ('A' for Active; 'I' for Inactive)
REMARK    1  A    between atoms: C_1  and  C_2
REMARK    2  A    between atoms: C_2  and  C_3
REMARK    3  A    between atoms: C_4  and  N_5
REMARK    4  A    between atoms: C_6  and  O_8
REMARK    5  A    between atoms: O_8  and  C_9
REMARK    6  A    between atoms: C_9  and  C_10
REMARK    7  A    between atoms: C_10  and  C_11
REMARK    8  A    between atoms: C_11  and  C_12
REMARK    9  A    between atoms: C_17  and  C_18
REMARK   10  A    between atoms: C_17  and  C_19
REMARK                            x       y       z     vdW  Elec       q    Type
REMARK                         _______ _______ _______ _____ _____    ______ ____
ROOT
ATOM      1  N   UNL     1       4.698   4.429  18.472  0.00  0.00    +0.000 N 
ATOM      2  C   UNL     1       4.491   3.153  18.940  0.00  0.00    +0.000 C 
ATOM      3  O   UNL     1       5.079   2.728  19.929  0.00  0.00    +0.000 OA
ATOM      4  H   UNL     1       5.216   4.978  19.142  0.00  0.00    +0.000 HD
ENDROOT
BRANCH   1   8
ATOM      5  C   UNL     1       7.595   4.514  17.530  0.00  0.00    +0.000 C 
ATOM      6  C   UNL     1       6.432   4.681  16.566  0.00  0.00    +0.000 C 
ATOM      7  C   UNL     1       6.717   4.022  15.236  0.00  0.00    +0.000 C 
ATOM      8  C   UNL     1       4.994   4.681  17.086  0.00  0.00    +0.000 C 
ATOM      9  C   UNL     1       5.615   5.983  16.598  0.00  0.00    +0.000 C 
ATOM     10  C   UNL     1       6.030   7.081  17.555  0.00  0.00    +0.000 C 
ATOM     11  C   UNL     1       5.050   6.556  15.313  0.00  0.00    +0.000 C 
ENDBRANCH   1   8
BRANCH   2  12
ATOM     12  O   UNL     1       3.538   2.477  18.245  0.00  0.00    +0.000 OA
BRANCH  12  13
ATOM     13  C   UNL     1       2.355   2.107  18.977  0.00  0.00    +0.000 C 
BRANCH  13  14
ATOM     14  C   UNL     1       1.266   3.187  18.947  0.00  0.00    +0.000 C 
BRANCH  14  15
ATOM     15  C   UNL     1       1.208   3.966  20.263  0.00  0.00    +0.000 C 
BRANCH  15  16
ATOM     16  C   UNL     1       1.642   5.389  20.119  0.00  0.00    +0.000 A 
ATOM     17  C   UNL     1       1.555   6.425  21.024  0.00  0.00    +0.000 A 
ATOM     18  N   UNL     1       2.075   7.523  20.382  0.00  0.00    +0.000 N 
ATOM     19  C   UNL     1       2.451   7.113  19.134  0.00  0.00    +0.000 A 
ATOM     20  N   UNL     1       2.198   5.840  18.943  0.00  0.00    +0.000 NA
ATOM     21  H   UNL     1       2.165   8.449  20.766  0.00  0.00    +0.000 HD
ENDBRANCH  15  16
ENDBRANCH  14  15
ENDBRANCH  13  14
ENDBRANCH  12  13
ENDBRANCH   2  12
TORSDOF 6
ENDMDL
MODEL 7
REMARK VINA RESULT:      -6.3      1.377      2.080
REMARK  Name = 
REMARK  10 active torsions:
REMARK  status: ('A' for Active; 'I' for Inactive)
REMARK    1  A    between atoms: C_1  and  C_2
REMARK    2  A    between atoms: C_2  and  C_3
REMARK    3  A    between atoms: C_4  and  N_5
REMARK    4  A    between atoms: C_6  and  O_8
REMARK    5  A    between atoms: O_8  and  C_9
REMARK    6  A    between atoms: C_9  and  C_10
REMARK    7  A    between atoms: C_10  and  C_11
REMARK    8  A    between atoms: C_11  and  C_12
REMARK    9  A    between atoms: C_17  and  C_18
REMARK   10  A    between atoms: C_17  and  C_19
REMARK                            x       y       z     vdW  Elec       q    Type
REMARK                         _______ _______ _______ _____ _____    ______ ____
ROOT
ATOM      1  N   UNL     1       3.134   6.143  19.187  0.00  0.00    +0.000 N 
ATOM      2  C   UNL     1       3.497   6.856  18.069  0.00  0.00    +0.000 C 
ATOM      3  O   UNL     1       2.716   7.620  17.511  0.00  0.00    +0.000 OA
ATOM      4  H   UNL     1       2.259   6.481  19.560  0.00  0.00    +0.000 HD
ENDROOT
BRANCH   1   8
ATOM      5  C   UNL     1       1.405   4.239  17.552  0.00  0.00    +0.000 C 
ATOM      6  C   UNL     1       2.538   3.739  18.432  0.00  0.00    +0.000 C 
ATOM      7  C   UNL     1       3.256   2.570  17.799  0.00  0.00    +0.000 C 
ATOM      8  C   UNL     1       3.351   4.723  19.275  0.00  0.00    +0.000 C 
ATOM      9  C   UNL     1       2.373   3.779  19.960  0.00  0.00    +0.000 C 
ATOM     10  C   UNL     1       1.061   4.267  20.539  0.00  0.00    +0.000 C 
ATOM     11  C   UNL     1       2.982   2.688  20.818  0.00  0.00    +0.000 C 
ENDBRANCH   1   8
BRANCH   2  12
ATOM     12  O   UNL     1       4.798   6.673  17.718  0.00  0.00    +0.000 OA
BRANCH  12  13
ATOM     13  C   UNL     1       5.048   6.347  16.339  0.00  0.00    +0.000 C 
BRANCH  13  14
ATOM     14  C   UNL     1       5.276   4.848  16.106  0.00  0.00    +0.000 C 
BRANCH  14  15
ATOM     15  C   UNL     1       6.727   4.551  15.721  0.00  0.00    +0.000 C 
BRANCH  15  16
ATOM     16  C   UNL     1       6.956   4.581  14.244  0.00  0.00    +0.000 A 
ATOM     17  C   UNL     1       6.420   3.777  13.260  0.00  0.00    +0.000 A 
ATOM     18  N   UNL     1       6.977   4.211  12.081  0.00  0.00    +0.000 N 
ATOM     19  C   UNL     1       7.815   5.245  12.394  0.00  0.00    +0.000 A 
ATOM     20  N   UNL     1       7.829   5.486  13.684  0.00  0.00    +0.000 NA
ATOM     21  H   UNL     1       6.795   3.838  11.165  0.00  0.00    +0.000 HD
ENDBRANCH  15  16
ENDBRANCH  14  15
ENDBRANCH  13  14
ENDBRANCH  12  13
ENDBRANCH   2  12
TORSDOF 6
ENDMDL
MODEL 8
REMARK VINA RESULT:      -6.2      2.071      5.216
REMARK  Name = 
REMARK  10 active torsions:
REMARK  status: ('A' for Active; 'I' for Inactive)
REMARK    1  A    between atoms: C_1  and  C_2
REMARK    2  A    between atoms: C_2  and  C_3
REMARK    3  A    between atoms: C_4  and  N_5
REMARK    4  A    between atoms: C_6  and  O_8
REMARK    5  A    between atoms: O_8  and  C_9
REMARK    6  A    between atoms: C_9  and  C_10
REMARK    7  A    between atoms: C_10  and  C_11
REMARK    8  A    between atoms: C_11  and  C_12
REMARK    9  A    between atoms: C_17  and  C_18
REMARK   10  A    between atoms: C_17  and  C_19
REMARK                            x       y       z     vdW  Elec       q    Type
REMARK                         _______ _______ _______ _____ _____    ______ ____
ROOT
ATOM      1  N   UNL     1       3.671   6.438  17.327  0.00  0.00    +0.000 N 
ATOM      2  C   UNL     1       2.797   6.680  18.361  0.00  0.00    +0.000 C 
ATOM      3  O   UNL     1       2.613   7.813  18.794  0.00  0.00    +0.000 OA
ATOM      4  H   UNL     1       3.956   7.300  16.888  0.00  0.00    +0.000 HD
ENDROOT
BRANCH   1   8
ATOM      5  C   UNL     1       6.619   7.209  17.354  0.00  0.00    +0.000 C 
ATOM      6  C   UNL     1       6.166   5.765  17.489  0.00  0.00    +0.000 C 
ATOM      7  C   UNL     1       7.044   4.998  18.450  0.00  0.00    +0.000 C 
ATOM      8  C   UNL     1       4.679   5.414  17.422  0.00  0.00    +0.000 C 
ATOM      9  C   UNL     1       5.590   5.043  16.260  0.00  0.00    +0.000 C 
ATOM     10  C   UNL     1       5.542   5.780  14.937  0.00  0.00    +0.000 C 
ATOM     11  C   UNL     1       5.850   3.563  16.057  0.00  0.00    +0.000 C 
ENDBRANCH   1   8
BRANCH   2  12
ATOM     12  O   UNL     1       2.135   5.567  18.773  0.00  0.00    +0.000 OA
BRANCH  12  13
ATOM     13  C   UNL     1       1.921   5.438  20.191  0.00  0.00    +0.000 C 
BRANCH  13  14
ATOM     14  C   UNL     1       0.981   4.283  20.557  0.00  0.00    +0.000 C 
BRANCH  14  15
ATOM     15  C   UNL     1       1.752   3.087  21.122  0.00  0.00    +0.000 C 
BRANCH  15  16
ATOM     16  C   UNL     1       2.758   2.537  20.164  0.00  0.00    +0.000 A 
ATOM     17  C   UNL     1       4.128   2.444  20.293  0.00  0.00    +0.000 A 
ATOM     18  N   UNL     1       4.575   1.883  19.120  0.00  0.00    +0.000 N 
ATOM     19  C   UNL     1       3.474   1.662  18.341  0.00  0.00    +0.000 A 
ATOM     20  N   UNL     1       2.370   2.050  18.936  0.00  0.00    +0.000 NA
ATOM     21  H   UNL     1       5.530   1.673  18.888  0.00  0.00    +0.000 HD
ENDBRANCH  15  16
ENDBRANCH  14  15
ENDBRANCH  13  14
ENDBRANCH  12  13
ENDBRANCH   2  12
TORSDOF 6
ENDMDL
MODEL 9
REMARK VINA RESULT:      -6.2      1.716      2.760
REMARK  Name = 
REMARK  10 active torsions:
REMARK  status: ('A' for Active; 'I' for Inactive)
REMARK    1  A    between atoms: C_1  and  C_2
REMARK    2  A    between atoms: C_2  and  C_3
REMARK    3  A    between atoms: C_4  and  N_5
REMARK    4  A    between atoms: C_6  and  O_8
REMARK    5  A    between atoms: O_8  and  C_9
REMARK    6  A    between atoms: C_9  and  C_10
REMARK    7  A    between atoms: C_10  and  C_11
REMARK    8  A    between atoms: C_11  and  C_12
REMARK    9  A    between atoms: C_17  and  C_18
REMARK   10  A    between atoms: C_17  and  C_19
REMARK                            x       y       z     vdW  Elec       q    Type
REMARK                         _______ _______ _______ _____ _____    ______ ____
ROOT
ATOM      1  N   UNL     1       3.797   4.526  19.360  0.00  0.00    +0.000 N 
ATOM      2  C   UNL     1       3.963   5.366  18.285  0.00  0.00    +0.000 C 
ATOM      3  O   UNL     1       4.450   6.485  18.414  0.00  0.00    +0.000 OA
ATOM      4  H   UNL     1       4.288   4.874  20.169  0.00  0.00    +0.000 HD
ENDROOT
BRANCH   1   8
ATOM      5  C   UNL     1       3.652   2.226  21.356  0.00  0.00    +0.000 C 
ATOM      6  C   UNL     1       2.415   2.755  20.649  0.00  0.00    +0.000 C 
ATOM      7  C   UNL     1       1.210   2.743  21.561  0.00  0.00    +0.000 C 
ATOM      8  C   UNL     1       2.537   3.878  19.618  0.00  0.00    +0.000 C 
ATOM      9  C   UNL     1       2.226   2.463  19.152  0.00  0.00    +0.000 C 
ATOM     10  C   UNL     1       3.255   1.609  18.440  0.00  0.00    +0.000 C 
ATOM     11  C   UNL     1       0.835   2.230  18.593  0.00  0.00    +0.000 C 
ENDBRANCH   1   8
BRANCH   2  12
ATOM     12  O   UNL     1       3.607   4.799  17.102  0.00  0.00    +0.000 OA
BRANCH  12  13
ATOM     13  C   UNL     1       4.588   3.949  16.480  0.00  0.00    +0.000 C 
BRANCH  13  14
ATOM     14  C   UNL     1       5.404   4.664  15.396  0.00  0.00    +0.000 C 
BRANCH  14  15
ATOM     15  C   UNL     1       6.905   4.604  15.689  0.00  0.00    +0.000 C 
BRANCH  15  16
ATOM     16  C   UNL     1       7.282   5.313  16.950  0.00  0.00    +0.000 A 
ATOM     17  C   UNL     1       7.422   6.665  17.183  0.00  0.00    +0.000 A 
ATOM     18  N   UNL     1       7.803   6.777  18.500  0.00  0.00    +0.000 N 
ATOM     19  C   UNL     1       7.876   5.508  19.001  0.00  0.00    +0.000 A 
ATOM     20  N   UNL     1       7.576   4.607  18.095  0.00  0.00    +0.000 NA
ATOM     21  H   UNL     1       7.986   7.633  18.994  0.00  0.00    +0.000 HD
ENDBRANCH  15  16
ENDBRANCH  14  15
ENDBRANCH  13  14
ENDBRANCH  12  13
ENDBRANCH   2  12
TORSDOF 6
ENDMDL
