MODEL 1
REMARK VINA RESULT:      -6.9      0.000      0.000
REMARK  Name = 
REMARK  1 active torsions:
REMARK  status: ('A' for Active; 'I' for Inactive)
REMARK    1  A    between atoms: C_2  and  C_3
REMARK                            x       y       z     vdW  Elec       q    Type
REMARK                         _______ _______ _______ _____ _____    ______ ____
ROOT
ATOM      1  O   UNL     1       4.079   2.425  17.368  0.00  0.00    +0.000 OA
ATOM      2  C   UNL     1       4.140   3.333  18.196  0.00  0.00    +0.000 C 
ATOM      3  N   UNL     1       5.073   4.364  18.082  0.00  0.00    +0.000 N 
ATOM      4  C   UNL     1       5.821   4.507  16.827  0.00  0.00    +0.000 C 
ATOM      5  C   UNL     1       7.324   4.617  17.090  0.00  0.00    +0.000 C 
ATOM      6  O   UNL     1       7.604   5.690  18.003  0.00  0.00    +0.000 OA
ATOM      7  C   UNL     1       6.959   5.455  19.261  0.00  0.00    +0.000 C 
ATOM      8  C   UNL     1       5.438   5.355  19.103  0.00  0.00    +0.000 C 
ENDROOT
BRANCH   2   9
ATOM      9  C   UNL     1       3.146   3.335  19.302  0.00  0.00    +0.000 A 
ATOM     10  C   UNL     1       1.873   3.894  19.139  0.00  0.00    +0.000 A 
ATOM     11  C   UNL     1       0.943   3.863  20.180  0.00  0.00    +0.000 A 
ATOM     12  C   UNL     1       1.254   3.207  21.370  0.00  0.00    +0.000 A 
ATOM     13  C   UNL     1       2.498   2.596  21.520  0.00  0.00    +0.000 A 
ATOM     14  C   UNL     1       3.439   2.666  20.495  0.00  0.00    +0.000 A 
ATOM     15  F   UNL     1       4.630   2.081  20.692  0.00  0.00    +0.000 F 
ENDBRANCH   2   9
TORSDOF 1
ENDMDL
MODEL 2
REMARK VINA RESULT:      -6.8      1.238      1.755
REMARK  Name = 
REMARK  1 active torsions:
REMARK  status: ('A' for Active; 'I' for Inactive)
REMARK    1  A    between atoms: C_2  and  C_3
REMARK                            x       y       z     vdW  Elec       q    Type
REMARK                         _______ _______ _______ _____ _____    ______ ____
ROOT
ATOM      1  O   UNL     1       4.068   2.418  17.291  0.00  0.00    +0.000 OA
ATOM      2  C   UNL     1       4.105   3.302  18.147  0.00  0.00    +0.000 C 
ATOM      3  N   UNL     1       5.016   4.357  18.068  0.00  0.00    +0.000 N 
ATOM      4  C   UNL     1       5.765   4.553  16.821  0.00  0.00    +0.000 C 
ATOM      5  C   UNL     1       7.264   4.689  17.093  0.00  0.00    +0.000 C 
ATOM      6  O   UNL     1       7.517   5.740  18.040  0.00  0.00    +0.000 OA
ATOM      7  C   UNL     1       6.873   5.453  19.288  0.00  0.00    +0.000 C 
ATOM      8  C   UNL     1       5.355   5.323  19.121  0.00  0.00    +0.000 C 
ENDROOT
BRANCH   2   9
ATOM      9  C   UNL     1       3.108   3.248  19.248  0.00  0.00    +0.000 A 
ATOM     10  C   UNL     1       3.406   2.646  20.477  0.00  0.00    +0.000 A 
ATOM     11  C   UNL     1       2.467   2.628  21.508  0.00  0.00    +0.000 A 
ATOM     12  C   UNL     1       1.244   3.278  21.346  0.00  0.00    +0.000 A 
ATOM     13  C   UNL     1       0.960   3.931  20.147  0.00  0.00    +0.000 A 
ATOM     14  C   UNL     1       1.884   3.910  19.104  0.00  0.00    +0.000 A 
ATOM     15  F   UNL     1       1.558   4.534  17.963  0.00  0.00    +0.000 F 
ENDBRANCH   2   9
TORSDOF 1
ENDMDL
MODEL 3
REMARK VINA RESULT:      -6.8      1.778      2.121
REMARK  Name = 
REMARK  1 active torsions:
REMARK  status: ('A' for Active; 'I' for Inactive)
REMARK    1  A    between atoms: C_2  and  C_3
REMARK                            x       y       z     vdW  Elec       q    Type
REMARK                         _______ _______ _______ _____ _____    ______ ____
ROOT
ATOM      1  O   UNL     1       5.523   3.346  19.727  0.00  0.00    +0.000 OA
ATOM      2  C   UNL     1       4.680   3.836  18.976  0.00  0.00    +0.000 C 
ATOM      3  N   UNL     1       5.048   4.591  17.861  0.00  0.00    +0.000 N 
ATOM      4  C   UNL     1       6.452   4.587  17.435  0.00  0.00    +0.000 C 
ATOM      5  C   UNL     1       6.972   6.013  17.237  0.00  0.00    +0.000 C 
ATOM      6  O   UNL     1       6.137   6.737  16.319  0.00  0.00    +0.000 OA
ATOM      7  C   UNL     1       4.800   6.828  16.827  0.00  0.00    +0.000 C 
ATOM      8  C   UNL     1       4.181   5.442  17.035  0.00  0.00    +0.000 C 
ENDROOT
BRANCH   2   9
ATOM      9  C   UNL     1       3.248   3.553  19.257  0.00  0.00    +0.000 A 
ATOM     10  C   UNL     1       2.505   4.348  20.137  0.00  0.00    +0.000 A 
ATOM     11  C   UNL     1       1.154   4.084  20.368  0.00  0.00    +0.000 A 
ATOM     12  C   UNL     1       0.515   3.064  19.664  0.00  0.00    +0.000 A 
ATOM     13  C   UNL     1       1.233   2.304  18.741  0.00  0.00    +0.000 A 
ATOM     14  C   UNL     1       2.591   2.543  18.545  0.00  0.00    +0.000 A 
ATOM     15  F   UNL     1       3.245   1.773  17.663  0.00  0.00    +0.000 F 
ENDBRANCH   2   9
TORSDOF 1
ENDMDL
MODEL 4
REMARK VINA RESULT:      -6.7      2.447      2.949
REMARK  Name = 
REMARK  1 active torsions:
REMARK  status: ('A' for Active; 'I' for Inactive)
REMARK    1  A    between atoms: C_2  and  C_3
REMARK                            x       y       z     vdW  Elec       q    Type
REMARK                         _______ _______ _______ _____ _____    ______ ____
ROOT
ATOM      1  O   UNL     1       2.380   6.940  18.366  0.00  0.00    +0.000 OA
ATOM      2  C   UNL     1       2.959   5.856  18.427  0.00  0.00    +0.000 C 
ATOM      3  N   UNL     1       4.154   5.627  17.744  0.00  0.00    +0.000 N 
ATOM      4  C   UNL     1       4.862   6.769  17.153  0.00  0.00    +0.000 C 
ATOM      5  C   UNL     1       5.218   6.499  15.689  0.00  0.00    +0.000 C 
ATOM      6  O   UNL     1       5.971   5.282  15.565  0.00  0.00    +0.000 OA
ATOM      7  C   UNL     1       5.201   4.169  16.037  0.00  0.00    +0.000 C 
ATOM      8  C   UNL     1       4.815   4.336  17.511  0.00  0.00    +0.000 C 
ENDROOT
BRANCH   2   9
ATOM      9  C   UNL     1       2.377   4.804  19.302  0.00  0.00    +0.000 A 
ATOM     10  C   UNL     1       2.687   4.733  20.665  0.00  0.00    +0.000 A 
ATOM     11  C   UNL     1       2.110   3.755  21.477  0.00  0.00    +0.000 A 
ATOM     12  C   UNL     1       1.161   2.883  20.946  0.00  0.00    +0.000 A 
ATOM     13  C   UNL     1       0.801   2.984  19.602  0.00  0.00    +0.000 A 
ATOM     14  C   UNL     1       1.411   3.934  18.786  0.00  0.00    +0.000 A 
ATOM     15  F   UNL     1       1.048   3.980  17.495  0.00  0.00    +0.000 F 
ENDBRANCH   2   9
TORSDOF 1
ENDMDL
MODEL 5
REMARK VINA RESULT:      -6.7      1.155      1.231
REMARK  Name = 
REMARK  1 active torsions:
REMARK  status: ('A' for Active; 'I' for Inactive)
REMARK    1  A    between atoms: C_2  and  C_3
REMARK                            x       y       z     vdW  Elec       q    Type
REMARK                         _______ _______ _______ _____ _____    ______ ____
ROOT
ATOM      1  O   UNL     1       3.073   3.383  16.700  0.00  0.00    +0.000 OA
ATOM      2  C   UNL     1       3.732   3.927  17.585  0.00  0.00    +0.000 C 
ATOM      3  N   UNL     1       4.923   4.598  17.301  0.00  0.00    +0.000 N 
ATOM      4  C   UNL     1       5.262   4.876  15.900  0.00  0.00    +0.000 C 
ATOM      5  C   UNL     1       6.688   4.424  15.578  0.00  0.00    +0.000 C 
ATOM      6  O   UNL     1       7.629   5.023  16.484  0.00  0.00    +0.000 OA
ATOM      7  C   UNL     1       7.342   4.629  17.832  0.00  0.00    +0.000 C 
ATOM      8  C   UNL     1       5.935   5.062  18.258  0.00  0.00    +0.000 C 
ENDROOT
BRANCH   2   9
ATOM      9  C   UNL     1       3.193   3.902  18.971  0.00  0.00    +0.000 A 
ATOM     10  C   UNL     1       2.371   4.926  19.454  0.00  0.00    +0.000 A 
ATOM     11  C   UNL     1       1.853   4.872  20.749  0.00  0.00    +0.000 A 
ATOM     12  C   UNL     1       2.094   3.756  21.548  0.00  0.00    +0.000 A 
ATOM     13  C   UNL     1       2.863   2.702  21.054  0.00  0.00    +0.000 A 
ATOM     14  C   UNL     1       3.414   2.779  19.776  0.00  0.00    +0.000 A 
ATOM     15  F   UNL     1       4.164   1.752  19.352  0.00  0.00    +0.000 F 
ENDBRANCH   2   9
TORSDOF 1
ENDMDL
MODEL 6
REMARK VINA RESULT:      -6.6      1.856      2.280
REMARK  Name = 
REMARK  1 active torsions:
REMARK  status: ('A' for Active; 'I' for Inactive)
REMARK    1  A    between atoms: C_2  and  C_3
REMARK                            x       y       z     vdW  Elec       q    Type
REMARK                         _______ _______ _______ _____ _____    ______ ____
ROOT
ATOM      1  O   UNL     1       5.587   3.551  19.701  0.00  0.00    +0.000 OA
ATOM      2  C   UNL     1       4.797   3.911  18.830  0.00  0.00    +0.000 C 
ATOM      3  N   UNL     1       5.230   4.580  17.684  0.00  0.00    +0.000 N 
ATOM      4  C   UNL     1       6.668   4.630  17.394  0.00  0.00    +0.000 C 
ATOM      5  C   UNL     1       7.123   6.062  17.104  0.00  0.00    +0.000 C 
ATOM      6  O   UNL     1       6.344   6.640  16.043  0.00  0.00    +0.000 OA
ATOM      7  C   UNL     1       4.959   6.690  16.413  0.00  0.00    +0.000 C 
ATOM      8  C   UNL     1       4.403   5.291  16.699  0.00  0.00    +0.000 C 
ENDROOT
BRANCH   2   9
ATOM      9  C   UNL     1       3.362   3.561  19.002  0.00  0.00    +0.000 A 
ATOM     10  C   UNL     1       2.821   2.398  18.442  0.00  0.00    +0.000 A 
ATOM     11  C   UNL     1       1.478   2.072  18.637  0.00  0.00    +0.000 A 
ATOM     12  C   UNL     1       0.681   2.871  19.454  0.00  0.00    +0.000 A 
ATOM     13  C   UNL     1       1.226   4.001  20.064  0.00  0.00    +0.000 A 
ATOM     14  C   UNL     1       2.555   4.346  19.833  0.00  0.00    +0.000 A 
ATOM     15  F   UNL     1       3.030   5.452  20.424  0.00  0.00    +0.000 F 
ENDBRANCH   2   9
TORSDOF 1
ENDMDL
MODEL 7
REMARK VINA RESULT:      -6.6      2.281      2.936
REMARK  Name = 
REMARK  1 active torsions:
REMARK  status: ('A' for Active; 'I' for Inactive)
REMARK    1  A    between atoms: C_2  and  C_3
REMARK                            x       y       z     vdW  Elec       q    Type
REMARK                         _______ _______ _______ _____ _____    ______ ____
ROOT
ATOM      1  O   UNL     1       4.981   5.382  19.747  0.00  0.00    +0.000 OA
ATOM      2  C   UNL     1       4.787   4.736  18.718  0.00  0.00    +0.000 C 
ATOM      3  N   UNL     1       5.710   4.736  17.671  0.00  0.00    +0.000 N 
ATOM      4  C   UNL     1       7.042   5.308  17.901  0.00  0.00    +0.000 C 
ATOM      5  C   UNL     1       7.409   6.310  16.804  0.00  0.00    +0.000 C 
ATOM      6  O   UNL     1       7.305   5.704  15.505  0.00  0.00    +0.000 OA
ATOM      7  C   UNL     1       5.960   5.269  15.265  0.00  0.00    +0.000 C 
ATOM      8  C   UNL     1       5.508   4.238  16.304  0.00  0.00    +0.000 C 
ENDROOT
BRANCH   2   9
ATOM      9  C   UNL     1       3.560   3.901  18.641  0.00  0.00    +0.000 A 
ATOM     10  C   UNL     1       3.555   2.567  19.067  0.00  0.00    +0.000 A 
ATOM     11  C   UNL     1       2.387   1.806  19.012  0.00  0.00    +0.000 A 
ATOM     12  C   UNL     1       1.193   2.394  18.598  0.00  0.00    +0.000 A 
ATOM     13  C   UNL     1       1.174   3.739  18.229  0.00  0.00    +0.000 A 
ATOM     14  C   UNL     1       2.352   4.483  18.244  0.00  0.00    +0.000 A 
ATOM     15  F   UNL     1       2.289   5.767  17.860  0.00  0.00    +0.000 F 
ENDBRANCH   2   9
TORSDOF 1
ENDMDL
MODEL 8
REMARK VINA RESULT:      -6.6      1.862      2.333
REMARK  Name = 
REMARK  1 active torsions:
REMARK  status: ('A' for Active; 'I' for Inactive)
REMARK    1  A    between atoms: C_2  and  C_3
REMARK                            x       y       z     vdW  Elec       q    Type
REMARK                         _______ _______ _______ _____ _____    ______ ____
ROOT
ATOM      1  O   UNL     1       4.992   5.477  19.807  0.00  0.00    +0.000 OA
ATOM      2  C   UNL     1       4.769   4.814  18.794  0.00  0.00    +0.000 C 
ATOM      3  N   UNL     1       5.681   4.766  17.738  0.00  0.00    +0.000 N 
ATOM      4  C   UNL     1       7.031   5.304  17.943  0.00  0.00    +0.000 C 
ATOM      5  C   UNL     1       7.415   6.271  16.821  0.00  0.00    +0.000 C 
ATOM      6  O   UNL     1       7.280   5.641  15.536  0.00  0.00    +0.000 OA
ATOM      7  C   UNL     1       5.921   5.240  15.318  0.00  0.00    +0.000 C 
ATOM      8  C   UNL     1       5.450   4.244  16.384  0.00  0.00    +0.000 C 
ENDROOT
BRANCH   2   9
ATOM      9  C   UNL     1       3.518   4.013  18.747  0.00  0.00    +0.000 A 
ATOM     10  C   UNL     1       2.351   4.513  18.156  0.00  0.00    +0.000 A 
ATOM     11  C   UNL     1       1.193   3.737  18.097  0.00  0.00    +0.000 A 
ATOM     12  C   UNL     1       1.212   2.424  18.566  0.00  0.00    +0.000 A 
ATOM     13  C   UNL     1       2.386   1.896  19.103  0.00  0.00    +0.000 A 
ATOM     14  C   UNL     1       3.528   2.689  19.198  0.00  0.00    +0.000 A 
ATOM     15  F   UNL     1       4.627   2.146  19.741  0.00  0.00    +0.000 F 
ENDBRANCH   2   9
TORSDOF 1
ENDMDL
MODEL 9
REMARK VINA RESULT:      -6.5      2.106      5.175
REMARK  Name = 
REMARK  1 active torsions:
REMARK  status: ('A' for Active; 'I' for Inactive)
REMARK    1  A    between atoms: C_2  and  C_3
REMARK                            x       y       z     vdW  Elec       q    Type
REMARK                         _______ _______ _______ _____ _____    ______ ____
ROOT
ATOM      1  O   UNL     1       2.843   5.961  17.848  0.00  0.00    +0.000 OA
ATOM      2  C   UNL     1       3.428   4.915  18.128  0.00  0.00    +0.000 C 
ATOM      3  N   UNL     1       2.809   3.910  18.874  0.00  0.00    +0.000 N 
ATOM      4  C   UNL     1       1.363   3.992  19.110  0.00  0.00    +0.000 C 
ATOM      5  C   UNL     1       1.035   3.815  20.593  0.00  0.00    +0.000 C 
ATOM      6  O   UNL     1       1.589   2.588  21.095  0.00  0.00    +0.000 OA
ATOM      7  C   UNL     1       3.016   2.595  20.963  0.00  0.00    +0.000 C 
ATOM      8  C   UNL     1       3.446   2.744  19.500  0.00  0.00    +0.000 C 
ENDROOT
BRANCH   2   9
ATOM      9  C   UNL     1       4.803   4.723  17.599  0.00  0.00    +0.000 A 
ATOM     10  C   UNL     1       5.028   4.310  16.280  0.00  0.00    +0.000 A 
ATOM     11  C   UNL     1       6.327   4.161  15.792  0.00  0.00    +0.000 A 
ATOM     12  C   UNL     1       7.415   4.492  16.598  0.00  0.00    +0.000 A 
ATOM     13  C   UNL     1       7.200   4.960  17.895  0.00  0.00    +0.000 A 
ATOM     14  C   UNL     1       5.903   5.068  18.392  0.00  0.00    +0.000 A 
ATOM     15  F   UNL     1       5.746   5.502  19.651  0.00  0.00    +0.000 F 
ENDBRANCH   2   9
TORSDOF 1
ENDMDL
