MODEL 1
REMARK VINA RESULT:      -7.9      0.000      0.000
REMARK  Name = 
REMARK  3 active torsions:
REMARK  status: ('A' for Active; 'I' for Inactive)
REMARK    1  A    between atoms: C_2  and  C_18
REMARK    2  A    between atoms: N_3  and  C_4
REMARK    3  A    between atoms: C_21  and  C_22
REMARK                            x       y       z     vdW  Elec       q    Type
REMARK                         _______ _______ _______ _____ _____    ______ ____
ROOT
ATOM      1  O   UNL     1       2.193   4.979  18.307  0.00  0.00    +0.000 OA
ATOM      2  C   UNL     1       3.131   5.763  18.211  0.00  0.00    +0.000 C 
ATOM      3  N   UNL     1       3.074   7.063  18.658  0.00  0.00    +0.000 N 
ATOM      4  H   UNL     1       3.900   7.635  18.506  0.00  0.00    +0.000 HD
ENDROOT
BRANCH   3   5
ATOM      5  C   UNL     1       1.862   7.605  19.243  0.00  0.00    +0.000 C 
ATOM      6  C   UNL     1       1.830   7.471  20.761  0.00  0.00    +0.000 C 
ATOM      7  C   UNL     1       0.776   8.495  21.164  0.00  0.00    +0.000 C 
ATOM      8  N   UNL     1       1.009   9.595  20.243  0.00  0.00    +0.000 N 
ATOM      9  C   UNL     1       0.745  10.922  20.546  0.00  0.00    +0.000 A 
ATOM     10  N   UNL     1       0.108  11.183  21.676  0.00  0.00    +0.000 NA
ATOM     11  C   UNL     1      -0.164  12.493  22.026  0.00  0.00    +0.000 A 
ATOM     12  C   UNL     1       0.184  13.557  21.288  0.00  0.00    +0.000 A 
ATOM     13  N   UNL     1       0.849  13.328  20.104  0.00  0.00    +0.000 N 
ATOM     14  C   UNL     1       1.332  14.179  19.151  0.00  0.00    +0.000 A 
ATOM     15  C   UNL     1       1.912  13.362  18.204  0.00  0.00    +0.000 A 
ATOM     16  N   UNL     1       1.793  12.039  18.550  0.00  0.00    +0.000 NA
ATOM     17  C   UNL     1       1.143  12.050  19.699  0.00  0.00    +0.000 A 
ATOM     18  C   UNL     1       1.661   9.125  19.021  0.00  0.00    +0.000 C 
ENDBRANCH   3   5
BRANCH   2  19
ATOM     19  C   UNL     1       4.413   5.397  17.599  0.00  0.00    +0.000 A 
ATOM     20  C   UNL     1       5.567   5.183  18.326  0.00  0.00    +0.000 A 
ATOM     21  S   UNL     1       6.856   4.764  17.289  0.00  0.00    +0.000 S 
ATOM     22  C   UNL     1       5.802   4.877  15.925  0.00  0.00    +0.000 A 
ATOM     23  N   UNL     1       4.561   5.234  16.216  0.00  0.00    +0.000 NA
BRANCH  22  24
ATOM     24  C   UNL     1       6.300   4.642  14.558  0.00  0.00    +0.000 A 
ATOM     25  C   UNL     1       7.423   5.300  14.028  0.00  0.00    +0.000 A 
ATOM     26  C   UNL     1       7.858   5.041  12.723  0.00  0.00    +0.000 A 
ATOM     27  C   UNL     1       7.179   4.119  11.930  0.00  0.00    +0.000 A 
ATOM     28  C   UNL     1       6.070   3.452  12.441  0.00  0.00    +0.000 A 
ATOM     29  C   UNL     1       5.637   3.709  13.744  0.00  0.00    +0.000 A 
ENDBRANCH  22  24
ENDBRANCH   2  19
TORSDOF 3
ENDMDL
MODEL 2
REMARK VINA RESULT:      -7.7      3.722      5.329
REMARK  Name = 
REMARK  3 active torsions:
REMARK  status: ('A' for Active; 'I' for Inactive)
REMARK    1  A    between atoms: C_2  and  C_18
REMARK    2  A    between atoms: N_3  and  C_4
REMARK    3  A    between atoms: C_21  and  C_22
REMARK                            x       y       z     vdW  Elec       q    Type
REMARK                         _______ _______ _______ _____ _____    ______ ____
ROOT
ATOM      1  O   UNL     1       1.383  11.112  18.864  0.00  0.00    +0.000 OA
ATOM      2  C   UNL     1       0.880  10.009  18.678  0.00  0.00    +0.000 C 
ATOM      3  N   UNL     1      -0.428   9.835  18.287  0.00  0.00    +0.000 N 
ATOM      4  H   UNL     1      -0.750   8.877  18.186  0.00  0.00    +0.000 HD
ENDROOT
BRANCH   3   5
ATOM      5  C   UNL     1      -1.317  10.967  18.107  0.00  0.00    +0.000 C 
ATOM      6  C   UNL     1      -2.594  10.600  17.359  0.00  0.00    +0.000 C 
ATOM      7  C   UNL     1      -3.531  11.747  17.717  0.00  0.00    +0.000 C 
ATOM      8  N   UNL     1      -3.206  12.024  19.106  0.00  0.00    +0.000 N 
ATOM      9  C   UNL     1      -4.115  12.531  20.022  0.00  0.00    +0.000 A 
ATOM     10  N   UNL     1      -5.296  12.923  19.571  0.00  0.00    +0.000 NA
ATOM     11  C   UNL     1      -6.238  13.421  20.450  0.00  0.00    +0.000 A 
ATOM     12  C   UNL     1      -6.048  13.538  21.773  0.00  0.00    +0.000 A 
ATOM     13  N   UNL     1      -4.831  13.140  22.283  0.00  0.00    +0.000 N 
ATOM     14  C   UNL     1      -4.338  13.127  23.557  0.00  0.00    +0.000 A 
ATOM     15  C   UNL     1      -3.067  12.606  23.443  0.00  0.00    +0.000 A 
ATOM     16  N   UNL     1      -2.770  12.305  22.136  0.00  0.00    +0.000 NA
ATOM     17  C   UNL     1      -3.852  12.642  21.460  0.00  0.00    +0.000 A 
ATOM     18  C   UNL     1      -1.847  11.588  19.422  0.00  0.00    +0.000 C 
ENDBRANCH   3   5
BRANCH   2  19
ATOM     19  C   UNL     1       1.621   8.757  18.865  0.00  0.00    +0.000 A 
ATOM     20  C   UNL     1       1.644   8.061  20.058  0.00  0.00    +0.000 A 
ATOM     21  S   UNL     1       2.593   6.651  19.906  0.00  0.00    +0.000 S 
ATOM     22  C   UNL     1       2.911   7.037  18.253  0.00  0.00    +0.000 A 
ATOM     23  N   UNL     1       2.366   8.169  17.837  0.00  0.00    +0.000 NA
BRANCH  22  24
ATOM     24  C   UNL     1       3.774   6.176  17.424  0.00  0.00    +0.000 A 
ATOM     25  C   UNL     1       4.771   6.684  16.573  0.00  0.00    +0.000 A 
ATOM     26  C   UNL     1       5.567   5.825  15.806  0.00  0.00    +0.000 A 
ATOM     27  C   UNL     1       5.380   4.446  15.880  0.00  0.00    +0.000 A 
ATOM     28  C   UNL     1       4.402   3.925  16.723  0.00  0.00    +0.000 A 
ATOM     29  C   UNL     1       3.610   4.783  17.490  0.00  0.00    +0.000 A 
ENDBRANCH  22  24
ENDBRANCH   2  19
TORSDOF 3
ENDMDL
MODEL 3
REMARK VINA RESULT:      -7.7      3.069      4.431
REMARK  Name = 
REMARK  3 active torsions:
REMARK  status: ('A' for Active; 'I' for Inactive)
REMARK    1  A    between atoms: C_2  and  C_18
REMARK    2  A    between atoms: N_3  and  C_4
REMARK    3  A    between atoms: C_21  and  C_22
REMARK                            x       y       z     vdW  Elec       q    Type
REMARK                         _______ _______ _______ _____ _____    ______ ____
ROOT
ATOM      1  O   UNL     1       2.135  10.558  17.633  0.00  0.00    +0.000 OA
ATOM      2  C   UNL     1       1.587   9.515  17.972  0.00  0.00    +0.000 C 
ATOM      3  N   UNL     1       0.226   9.400  18.145  0.00  0.00    +0.000 N 
ATOM      4  H   UNL     1      -0.120   8.496  18.453  0.00  0.00    +0.000 HD
ENDROOT
BRANCH   3   5
ATOM      5  C   UNL     1      -0.652  10.541  17.973  0.00  0.00    +0.000 C 
ATOM      6  C   UNL     1      -2.042  10.147  17.486  0.00  0.00    +0.000 C 
ATOM      7  C   UNL     1      -2.881  11.367  17.846  0.00  0.00    +0.000 C 
ATOM      8  N   UNL     1      -2.329  11.786  19.124  0.00  0.00    +0.000 N 
ATOM      9  C   UNL     1      -3.066  12.433  20.104  0.00  0.00    +0.000 A 
ATOM     10  N   UNL     1      -4.295  12.821  19.801  0.00  0.00    +0.000 NA
ATOM     11  C   UNL     1      -5.071  13.456  20.752  0.00  0.00    +0.000 A 
ATOM     12  C   UNL     1      -4.666  13.715  22.004  0.00  0.00    +0.000 A 
ATOM     13  N   UNL     1      -3.394  13.327  22.360  0.00  0.00    +0.000 N 
ATOM     14  C   UNL     1      -2.701  13.438  23.534  0.00  0.00    +0.000 A 
ATOM     15  C   UNL     1      -1.479  12.854  23.283  0.00  0.00    +0.000 A 
ATOM     16  N   UNL     1      -1.404  12.392  21.992  0.00  0.00    +0.000 NA
ATOM     17  C   UNL     1      -2.572  12.697  21.460  0.00  0.00    +0.000 A 
ATOM     18  C   UNL     1      -0.948  11.332  19.272  0.00  0.00    +0.000 C 
ENDBRANCH   3   5
BRANCH   2  19
ATOM     19  C   UNL     1       2.330   8.278  18.238  0.00  0.00    +0.000 A 
ATOM     20  C   UNL     1       2.107   7.483  19.346  0.00  0.00    +0.000 A 
ATOM     21  S   UNL     1       3.141   6.127  19.322  0.00  0.00    +0.000 S 
ATOM     22  C   UNL     1       3.823   6.664  17.830  0.00  0.00    +0.000 A 
ATOM     23  N   UNL     1       3.330   7.807  17.380  0.00  0.00    +0.000 NA
BRANCH  22  24
ATOM     24  C   UNL     1       4.905   5.909  17.172  0.00  0.00    +0.000 A 
ATOM     25  C   UNL     1       6.228   6.377  17.096  0.00  0.00    +0.000 A 
ATOM     26  C   UNL     1       7.221   5.622  16.462  0.00  0.00    +0.000 A 
ATOM     27  C   UNL     1       6.908   4.388  15.897  0.00  0.00    +0.000 A 
ATOM     28  C   UNL     1       5.604   3.905  15.970  0.00  0.00    +0.000 A 
ATOM     29  C   UNL     1       4.613   4.658  16.605  0.00  0.00    +0.000 A 
ENDBRANCH  22  24
ENDBRANCH   2  19
TORSDOF 3
ENDMDL
MODEL 4
REMARK VINA RESULT:      -7.6      4.540      7.296
REMARK  Name = 
REMARK  3 active torsions:
REMARK  status: ('A' for Active; 'I' for Inactive)
REMARK    1  A    between atoms: C_2  and  C_18
REMARK    2  A    between atoms: N_3  and  C_4
REMARK    3  A    between atoms: C_21  and  C_22
REMARK                            x       y       z     vdW  Elec       q    Type
REMARK                         _______ _______ _______ _____ _____    ______ ____
ROOT
ATOM      1  O   UNL     1      -0.127   9.734  23.036  0.00  0.00    +0.000 OA
ATOM      2  C   UNL     1      -0.074  10.382  21.997  0.00  0.00    +0.000 C 
ATOM      3  N   UNL     1      -0.624  11.637  21.864  0.00  0.00    +0.000 N 
ATOM      4  H   UNL     1      -0.545  12.076  20.951  0.00  0.00    +0.000 HD
ENDROOT
BRANCH   3   5
ATOM      5  C   UNL     1      -1.347  12.261  22.955  0.00  0.00    +0.000 C 
ATOM      6  C   UNL     1      -0.996  13.735  23.129  0.00  0.00    +0.000 C 
ATOM      7  C   UNL     1      -2.172  14.264  23.941  0.00  0.00    +0.000 C 
ATOM      8  N   UNL     1      -3.309  13.545  23.391  0.00  0.00    +0.000 N 
ATOM      9  C   UNL     1      -4.599  14.053  23.360  0.00  0.00    +0.000 A 
ATOM     10  N   UNL     1      -4.832  15.188  23.999  0.00  0.00    +0.000 NA
ATOM     11  C   UNL     1      -6.100  15.739  23.983  0.00  0.00    +0.000 A 
ATOM     12  C   UNL     1      -7.148  15.199  23.344  0.00  0.00    +0.000 A 
ATOM     13  N   UNL     1      -6.947  14.017  22.666  0.00  0.00    +0.000 N 
ATOM     14  C   UNL     1      -7.790  13.234  21.929  0.00  0.00    +0.000 A 
ATOM     15  C   UNL     1      -7.010  12.186  21.488  0.00  0.00    +0.000 A 
ATOM     16  N   UNL     1      -5.718  12.306  21.938  0.00  0.00    +0.000 NA
ATOM     17  C   UNL     1      -5.713  13.417  22.649  0.00  0.00    +0.000 A 
ATOM     18  C   UNL     1      -2.886  12.286  22.780  0.00  0.00    +0.000 C 
ENDBRANCH   3   5
BRANCH   2  19
ATOM     19  C   UNL     1       0.574   9.881  20.780  0.00  0.00    +0.000 A 
ATOM     20  C   UNL     1       0.630  10.598  19.601  0.00  0.00    +0.000 A 
ATOM     21  S   UNL     1       1.467   9.713  18.406  0.00  0.00    +0.000 S 
ATOM     22  C   UNL     1       1.722   8.426  19.529  0.00  0.00    +0.000 A 
ATOM     23  N   UNL     1       1.191   8.626  20.725  0.00  0.00    +0.000 NA
BRANCH  22  24
ATOM     24  C   UNL     1       2.431   7.197  19.130  0.00  0.00    +0.000 A 
ATOM     25  C   UNL     1       3.205   7.105  17.961  0.00  0.00    +0.000 A 
ATOM     26  C   UNL     1       3.861   5.915  17.625  0.00  0.00    +0.000 A 
ATOM     27  C   UNL     1       3.756   4.800  18.454  0.00  0.00    +0.000 A 
ATOM     28  C   UNL     1       3.000   4.876  19.621  0.00  0.00    +0.000 A 
ATOM     29  C   UNL     1       2.347   6.065  19.956  0.00  0.00    +0.000 A 
ENDBRANCH  22  24
ENDBRANCH   2  19
TORSDOF 3
ENDMDL
MODEL 5
REMARK VINA RESULT:      -7.6      4.021      5.843
REMARK  Name = 
REMARK  3 active torsions:
REMARK  status: ('A' for Active; 'I' for Inactive)
REMARK    1  A    between atoms: C_2  and  C_18
REMARK    2  A    between atoms: N_3  and  C_4
REMARK    3  A    between atoms: C_21  and  C_22
REMARK                            x       y       z     vdW  Elec       q    Type
REMARK                         _______ _______ _______ _____ _____    ______ ____
ROOT
ATOM      1  O   UNL     1       2.231  10.466  17.604  0.00  0.00    +0.000 OA
ATOM      2  C   UNL     1       1.624   9.426  17.834  0.00  0.00    +0.000 C 
ATOM      3  N   UNL     1       0.255   9.365  17.960  0.00  0.00    +0.000 N 
ATOM      4  H   UNL     1      -0.144   8.457  18.177  0.00  0.00    +0.000 HD
ENDROOT
BRANCH   3   5
ATOM      5  C   UNL     1      -0.563  10.560  17.867  0.00  0.00    +0.000 C 
ATOM      6  C   UNL     1      -1.909  10.302  17.199  0.00  0.00    +0.000 C 
ATOM      7  C   UNL     1      -2.738  11.500  17.645  0.00  0.00    +0.000 C 
ATOM      8  N   UNL     1      -2.304  11.715  19.015  0.00  0.00    +0.000 N 
ATOM      9  C   UNL     1      -3.114  12.256  20.002  0.00  0.00    +0.000 A 
ATOM     10  N   UNL     1      -4.292  12.740  19.641  0.00  0.00    +0.000 NA
ATOM     11  C   UNL     1      -5.138  13.276  20.593  0.00  0.00    +0.000 A 
ATOM     12  C   UNL     1      -4.853  13.342  21.902  0.00  0.00    +0.000 A 
ATOM     13  N   UNL     1      -3.637  12.849  22.320  0.00  0.00    +0.000 N 
ATOM     14  C   UNL     1      -3.063  12.766  23.558  0.00  0.00    +0.000 A 
ATOM     15  C   UNL     1      -1.842  12.163  23.346  0.00  0.00    +0.000 A 
ATOM     16  N   UNL     1      -1.653  11.879  22.016  0.00  0.00    +0.000 NA
ATOM     17  C   UNL     1      -2.751  12.309  21.422  0.00  0.00    +0.000 A 
ATOM     18  C   UNL     1      -0.961  11.179  19.230  0.00  0.00    +0.000 C 
ENDBRANCH   3   5
BRANCH   2  19
ATOM     19  C   UNL     1       2.299   8.135  18.009  0.00  0.00    +0.000 A 
ATOM     20  C   UNL     1       3.527   7.839  17.450  0.00  0.00    +0.000 A 
ATOM     21  S   UNL     1       4.007   6.258  17.873  0.00  0.00    +0.000 S 
ATOM     22  C   UNL     1       2.558   6.056  18.790  0.00  0.00    +0.000 A 
ATOM     23  N   UNL     1       1.742   7.098  18.766  0.00  0.00    +0.000 NA
BRANCH  22  24
ATOM     24  C   UNL     1       2.267   4.789  19.484  0.00  0.00    +0.000 A 
ATOM     25  C   UNL     1       1.811   3.638  18.818  0.00  0.00    +0.000 A 
ATOM     26  C   UNL     1       1.550   2.457  19.521  0.00  0.00    +0.000 A 
ATOM     27  C   UNL     1       1.744   2.406  20.899  0.00  0.00    +0.000 A 
ATOM     28  C   UNL     1       2.203   3.533  21.575  0.00  0.00    +0.000 A 
ATOM     29  C   UNL     1       2.465   4.712  20.872  0.00  0.00    +0.000 A 
ENDBRANCH  22  24
ENDBRANCH   2  19
TORSDOF 3
ENDMDL
MODEL 6
REMARK VINA RESULT:      -7.6      4.865      6.385
REMARK  Name = 
REMARK  3 active torsions:
REMARK  status: ('A' for Active; 'I' for Inactive)
REMARK    1  A    between atoms: C_2  and  C_18
REMARK    2  A    between atoms: N_3  and  C_4
REMARK    3  A    between atoms: C_21  and  C_22
REMARK                            x       y       z     vdW  Elec       q    Type
REMARK                         _______ _______ _______ _____ _____    ______ ____
ROOT
ATOM      1  O   UNL     1       0.263  11.520  18.754  0.00  0.00    +0.000 OA
ATOM      2  C   UNL     1       0.069  10.346  18.457  0.00  0.00    +0.000 C 
ATOM      3  N   UNL     1      -0.970   9.934  17.654  0.00  0.00    +0.000 N 
ATOM      4  H   UNL     1      -1.054   8.935  17.492  0.00  0.00    +0.000 HD
ENDROOT
BRANCH   3   5
ATOM      5  C   UNL     1      -1.940  10.879  17.135  0.00  0.00    +0.000 C 
ATOM      6  C   UNL     1      -2.957  10.229  16.203  0.00  0.00    +0.000 C 
ATOM      7  C   UNL     1      -4.095  11.242  16.193  0.00  0.00    +0.000 C 
ATOM      8  N   UNL     1      -4.129  11.721  17.564  0.00  0.00    +0.000 N 
ATOM      9  C   UNL     1      -5.280  12.172  18.193  0.00  0.00    +0.000 A 
ATOM     10  N   UNL     1      -6.372  12.315  17.458  0.00  0.00    +0.000 NA
ATOM     11  C   UNL     1      -7.545  12.748  18.045  0.00  0.00    +0.000 A 
ATOM     12  C   UNL     1      -7.673  13.040  19.348  0.00  0.00    +0.000 A 
ATOM     13  N   UNL     1      -6.560  12.905  20.148  0.00  0.00    +0.000 N 
ATOM     14  C   UNL     1      -6.366  13.115  21.485  0.00  0.00    +0.000 A 
ATOM     15  C   UNL     1      -5.044  12.798  21.708  0.00  0.00    +0.000 A 
ATOM     16  N   UNL     1      -4.424  12.405  20.547  0.00  0.00    +0.000 NA
ATOM     17  C   UNL     1      -5.363  12.485  19.623  0.00  0.00    +0.000 A 
ATOM     18  C   UNL     1      -2.830  11.550  18.211  0.00  0.00    +0.000 C 
ENDBRANCH   3   5
BRANCH   2  19
ATOM     19  C   UNL     1       0.923   9.254  18.937  0.00  0.00    +0.000 A 
ATOM     20  C   UNL     1       0.961   8.846  20.257  0.00  0.00    +0.000 A 
ATOM     21  S   UNL     1       2.053   7.548  20.446  0.00  0.00    +0.000 S 
ATOM     22  C   UNL     1       2.407   7.592  18.757  0.00  0.00    +0.000 A 
ATOM     23  N   UNL     1       1.771   8.538  18.085  0.00  0.00    +0.000 NA
BRANCH  22  24
ATOM     24  C   UNL     1       3.390   6.668  18.162  0.00  0.00    +0.000 A 
ATOM     25  C   UNL     1       4.099   6.959  16.984  0.00  0.00    +0.000 A 
ATOM     26  C   UNL     1       5.024   6.049  16.459  0.00  0.00    +0.000 A 
ATOM     27  C   UNL     1       5.257   4.837  17.105  0.00  0.00    +0.000 A 
ATOM     28  C   UNL     1       4.570   4.536  18.278  0.00  0.00    +0.000 A 
ATOM     29  C   UNL     1       3.648   5.445  18.802  0.00  0.00    +0.000 A 
ENDBRANCH  22  24
ENDBRANCH   2  19
TORSDOF 3
ENDMDL
MODEL 7
REMARK VINA RESULT:      -7.5      1.647      2.201
REMARK  Name = 
REMARK  3 active torsions:
REMARK  status: ('A' for Active; 'I' for Inactive)
REMARK    1  A    between atoms: C_2  and  C_18
REMARK    2  A    between atoms: N_3  and  C_4
REMARK    3  A    between atoms: C_21  and  C_22
REMARK                            x       y       z     vdW  Elec       q    Type
REMARK                         _______ _______ _______ _____ _____    ______ ____
ROOT
ATOM      1  O   UNL     1       0.711   5.579  20.625  0.00  0.00    +0.000 OA
ATOM      2  C   UNL     1       1.758   6.035  20.178  0.00  0.00    +0.000 C 
ATOM      3  N   UNL     1       2.023   7.384  20.111  0.00  0.00    +0.000 N 
ATOM      4  H   UNL     1       2.912   7.654  19.699  0.00  0.00    +0.000 HD
ENDROOT
BRANCH   3   5
ATOM      5  C   UNL     1       1.043   8.365  20.535  0.00  0.00    +0.000 C 
ATOM      6  C   UNL     1       1.117   8.664  22.029  0.00  0.00    +0.000 C 
ATOM      7  C   UNL     1       0.393  10.000  22.138  0.00  0.00    +0.000 C 
ATOM      8  N   UNL     1       0.809  10.704  20.936  0.00  0.00    +0.000 N 
ATOM      9  C   UNL     1       0.912  12.084  20.851  0.00  0.00    +0.000 A 
ATOM     10  N   UNL     1       0.466  12.803  21.868  0.00  0.00    +0.000 NA
ATOM     11  C   UNL     1       0.563  14.181  21.832  0.00  0.00    +0.000 A 
ATOM     12  C   UNL     1       1.097  14.873  20.815  0.00  0.00    +0.000 A 
ATOM     13  N   UNL     1       1.573  14.162  19.736  0.00  0.00    +0.000 N 
ATOM     14  C   UNL     1       2.165  14.561  18.570  0.00  0.00    +0.000 A 
ATOM     15  C   UNL     1       2.434  13.394  17.889  0.00  0.00    +0.000 A 
ATOM     16  N   UNL     1       2.020  12.296  18.602  0.00  0.00    +0.000 NA
ATOM     17  C   UNL     1       1.501  12.792  19.709  0.00  0.00    +0.000 A 
ATOM     18  C   UNL     1       1.208   9.764  19.891  0.00  0.00    +0.000 C 
ENDBRANCH   3   5
BRANCH   2  19
ATOM     19  C   UNL     1       2.835   5.186  19.658  0.00  0.00    +0.000 A 
ATOM     20  C   UNL     1       3.253   4.025  20.279  0.00  0.00    +0.000 A 
ATOM     21  S   UNL     1       4.512   3.295  19.389  0.00  0.00    +0.000 S 
ATOM     22  C   UNL     1       4.426   4.559  18.217  0.00  0.00    +0.000 A 
ATOM     23  N   UNL     1       3.527   5.494  18.481  0.00  0.00    +0.000 NA
BRANCH  22  24
ATOM     24  C   UNL     1       5.338   4.587  17.059  0.00  0.00    +0.000 A 
ATOM     25  C   UNL     1       6.720   4.809  17.178  0.00  0.00    +0.000 A 
ATOM     26  C   UNL     1       7.546   4.824  16.048  0.00  0.00    +0.000 A 
ATOM     27  C   UNL     1       7.002   4.615  14.782  0.00  0.00    +0.000 A 
ATOM     28  C   UNL     1       5.636   4.385  14.646  0.00  0.00    +0.000 A 
ATOM     29  C   UNL     1       4.813   4.368  15.775  0.00  0.00    +0.000 A 
ENDBRANCH  22  24
ENDBRANCH   2  19
TORSDOF 3
ENDMDL
MODEL 8
REMARK VINA RESULT:      -7.3      2.106      3.506
REMARK  Name = 
REMARK  3 active torsions:
REMARK  status: ('A' for Active; 'I' for Inactive)
REMARK    1  A    between atoms: C_2  and  C_18
REMARK    2  A    between atoms: N_3  and  C_4
REMARK    3  A    between atoms: C_21  and  C_22
REMARK                            x       y       z     vdW  Elec       q    Type
REMARK                         _______ _______ _______ _____ _____    ______ ____
ROOT
ATOM      1  O   UNL     1       1.243   9.386  17.857  0.00  0.00    +0.000 OA
ATOM      2  C   UNL     1       1.537   8.782  18.883  0.00  0.00    +0.000 C 
ATOM      3  N   UNL     1       1.105   9.165  20.132  0.00  0.00    +0.000 N 
ATOM      4  H   UNL     1       1.429   8.609  20.918  0.00  0.00    +0.000 HD
ENDROOT
BRANCH   3   5
ATOM      5  C   UNL     1       0.292  10.353  20.315  0.00  0.00    +0.000 C 
ATOM      6  C   UNL     1      -0.385  10.399  21.681  0.00  0.00    +0.000 C 
ATOM      7  C   UNL     1      -0.741  11.873  21.827  0.00  0.00    +0.000 C 
ATOM      8  N   UNL     1       0.395  12.553  21.229  0.00  0.00    +0.000 N 
ATOM      9  C   UNL     1       0.827  13.813  21.614  0.00  0.00    +0.000 A 
ATOM     10  N   UNL     1       0.074  14.493  22.464  0.00  0.00    +0.000 NA
ATOM     11  C   UNL     1       0.472  15.747  22.886  0.00  0.00    +0.000 A 
ATOM     12  C   UNL     1       1.604  16.350  22.493  0.00  0.00    +0.000 A 
ATOM     13  N   UNL     1       2.416  15.676  21.608  0.00  0.00    +0.000 N 
ATOM     14  C   UNL     1       3.611  16.007  21.033  0.00  0.00    +0.000 A 
ATOM     15  C   UNL     1       3.942  14.924  20.248  0.00  0.00    +0.000 A 
ATOM     16  N   UNL     1       2.982  13.945  20.323  0.00  0.00    +0.000 NA
ATOM     17  C   UNL     1       2.073  14.430  21.148  0.00  0.00    +0.000 A 
ATOM     18  C   UNL     1       1.077  11.687  20.269  0.00  0.00    +0.000 C 
ENDBRANCH   3   5
BRANCH   2  19
ATOM     19  C   UNL     1       2.393   7.591  18.885  0.00  0.00    +0.000 A 
ATOM     20  C   UNL     1       2.312   6.601  19.845  0.00  0.00    +0.000 A 
ATOM     21  S   UNL     1       3.447   5.368  19.525  0.00  0.00    +0.000 S 
ATOM     22  C   UNL     1       3.977   6.213  18.116  0.00  0.00    +0.000 A 
ATOM     23  N   UNL     1       3.365   7.367  17.903  0.00  0.00    +0.000 NA
BRANCH  22  24
ATOM     24  C   UNL     1       5.067   5.683  17.277  0.00  0.00    +0.000 A 
ATOM     25  C   UNL     1       5.033   5.709  15.872  0.00  0.00    +0.000 A 
ATOM     26  C   UNL     1       6.094   5.195  15.118  0.00  0.00    +0.000 A 
ATOM     27  C   UNL     1       7.207   4.651  15.757  0.00  0.00    +0.000 A 
ATOM     28  C   UNL     1       7.262   4.626  17.148  0.00  0.00    +0.000 A 
ATOM     29  C   UNL     1       6.203   5.141  17.899  0.00  0.00    +0.000 A 
ENDBRANCH  22  24
ENDBRANCH   2  19
TORSDOF 3
ENDMDL
MODEL 9
REMARK VINA RESULT:      -7.3      2.028      3.569
REMARK  Name = 
REMARK  3 active torsions:
REMARK  status: ('A' for Active; 'I' for Inactive)
REMARK    1  A    between atoms: C_2  and  C_18
REMARK    2  A    between atoms: N_3  and  C_4
REMARK    3  A    between atoms: C_21  and  C_22
REMARK                            x       y       z     vdW  Elec       q    Type
REMARK                         _______ _______ _______ _____ _____    ______ ____
ROOT
ATOM      1  O   UNL     1       1.277   9.401  17.433  0.00  0.00    +0.000 OA
ATOM      2  C   UNL     1       1.626   8.925  18.507  0.00  0.00    +0.000 C 
ATOM      3  N   UNL     1       1.264   9.461  19.722  0.00  0.00    +0.000 N 
ATOM      4  H   UNL     1       1.631   9.002  20.551  0.00  0.00    +0.000 HD
ENDROOT
BRANCH   3   5
ATOM      5  C   UNL     1       0.465  10.668  19.803  0.00  0.00    +0.000 C 
ATOM      6  C   UNL     1       0.090  11.032  21.236  0.00  0.00    +0.000 C 
ATOM      7  C   UNL     1      -0.283  12.505  21.119  0.00  0.00    +0.000 C 
ATOM      8  N   UNL     1       0.675  13.017  20.155  0.00  0.00    +0.000 N 
ATOM      9  C   UNL     1       1.130  14.327  20.145  0.00  0.00    +0.000 A 
ATOM     10  N   UNL     1       0.549  15.191  20.961  0.00  0.00    +0.000 NA
ATOM     11  C   UNL     1       0.980  16.504  20.995  0.00  0.00    +0.000 A 
ATOM     12  C   UNL     1       1.980  16.988  20.244  0.00  0.00    +0.000 A 
ATOM     13  N   UNL     1       2.612  16.121  19.381  0.00  0.00    +0.000 N 
ATOM     14  C   UNL     1       3.646  16.299  18.505  0.00  0.00    +0.000 A 
ATOM     15  C   UNL     1       3.844  15.062  17.931  0.00  0.00    +0.000 A 
ATOM     16  N   UNL     1       2.959  14.136  18.428  0.00  0.00    +0.000 NA
ATOM     17  C   UNL     1       2.227  14.807  19.297  0.00  0.00    +0.000 A 
ATOM     18  C   UNL     1       1.172  11.948  19.291  0.00  0.00    +0.000 C 
ENDBRANCH   3   5
BRANCH   2  19
ATOM     19  C   UNL     1       2.479   7.736  18.609  0.00  0.00    +0.000 A 
ATOM     20  C   UNL     1       2.403   6.834  19.652  0.00  0.00    +0.000 A 
ATOM     21  S   UNL     1       3.532   5.574  19.434  0.00  0.00    +0.000 S 
ATOM     22  C   UNL     1       4.056   6.291  17.953  0.00  0.00    +0.000 A 
ATOM     23  N   UNL     1       3.445   7.424  17.644  0.00  0.00    +0.000 NA
BRANCH  22  24
ATOM     24  C   UNL     1       5.139   5.687  17.157  0.00  0.00    +0.000 A 
ATOM     25  C   UNL     1       5.140   5.675  15.751  0.00  0.00    +0.000 A 
ATOM     26  C   UNL     1       6.194   5.090  15.039  0.00  0.00    +0.000 A 
ATOM     27  C   UNL     1       7.263   4.512  15.720  0.00  0.00    +0.000 A 
ATOM     28  C   UNL     1       7.282   4.523  17.112  0.00  0.00    +0.000 A 
ATOM     29  C   UNL     1       6.231   5.109  17.822  0.00  0.00    +0.000 A 
ENDBRANCH  22  24
ENDBRANCH   2  19
TORSDOF 3
ENDMDL
