MODEL 1
REMARK VINA RESULT:      -8.0      0.000      0.000
REMARK  Name = 
REMARK  5 active torsions:
REMARK  status: ('A' for Active; 'I' for Inactive)
REMARK    1  A    between atoms: C_1  and  C_2
REMARK    2  A    between atoms: C_2  and  C_16
REMARK    3  A    between atoms: N_3  and  N_4
REMARK    4  A    between atoms: N_4  and  C_5
REMARK    5  A    between atoms: C_19  and  O_20
REMARK                            x       y       z     vdW  Elec       q    Type
REMARK                         _______ _______ _______ _____ _____    ______ ____
ROOT
ATOM      1  N   UNL     1       2.659   6.602  20.084  0.00  0.00    +0.000 N 
ATOM      2  H   UNL     1       3.674   6.552  20.076  0.00  0.00    +0.000 HD
ENDROOT
BRANCH   1   3
ATOM      3  C   UNL     1       2.091   7.812  19.614  0.00  0.00    +0.000 A 
ATOM      4  C   UNL     1       2.244   8.148  18.264  0.00  0.00    +0.000 A 
ATOM      5  C   UNL     1       1.663   9.301  17.789  0.00  0.00    +0.000 A 
ATOM      6  N   UNL     1       0.929  10.132  18.551  0.00  0.00    +0.000 NA
ATOM      7  C   UNL     1       0.751   9.815  19.842  0.00  0.00    +0.000 A 
ATOM      8  C   UNL     1      -0.004  10.687  20.608  0.00  0.00    +0.000 A 
ATOM      9  C   UNL     1      -0.235  10.451  21.958  0.00  0.00    +0.000 A 
ATOM     10 CL   UNL     1      -1.160  11.569  22.880  0.00  0.00    +0.000 Cl
ATOM     11  C   UNL     1       0.275   9.311  22.569  0.00  0.00    +0.000 A 
ATOM     12  C   UNL     1       1.031   8.418  21.816  0.00  0.00    +0.000 A 
ATOM     13  C   UNL     1       1.297   8.653  20.440  0.00  0.00    +0.000 A 
ENDBRANCH   1   3
BRANCH   1  16
ATOM     14  C   UNL     1       1.665   3.373  18.687  0.00  0.00    +0.000 C 
ATOM     15  C   UNL     1       2.518   4.587  19.003  0.00  0.00    +0.000 C 
ATOM     16  N   UNL     1       1.990   5.451  19.823  0.00  0.00    +0.000 NA
BRANCH  15  17
ATOM     17  C   UNL     1       3.878   4.653  18.372  0.00  0.00    +0.000 A 
ATOM     18  C   UNL     1       5.033   4.673  19.166  0.00  0.00    +0.000 A 
ATOM     19  C   UNL     1       6.301   4.698  18.573  0.00  0.00    +0.000 A 
ATOM     20  C   UNL     1       6.406   4.694  17.185  0.00  0.00    +0.000 A 
ATOM     21  C   UNL     1       5.277   4.700  16.387  0.00  0.00    +0.000 A 
ATOM     22  C   UNL     1       4.018   4.710  16.977  0.00  0.00    +0.000 A 
BRANCH  20  23
ATOM     23  O   UNL     1       7.614   4.692  16.558  0.00  0.00    +0.000 OA
ATOM     24  H   UNL     1       8.209   5.305  17.013  0.00  0.00    +0.000 HD
ENDBRANCH  20  23
ENDBRANCH  15  17
ENDBRANCH   1  16
TORSDOF 4
ENDMDL
MODEL 2
REMARK VINA RESULT:      -8.0      0.136      1.032
REMARK  Name = 
REMARK  5 active torsions:
REMARK  status: ('A' for Active; 'I' for Inactive)
REMARK    1  A    between atoms: C_1  and  C_2
REMARK    2  A    between atoms: C_2  and  C_16
REMARK    3  A    between atoms: N_3  and  N_4
REMARK    4  A    between atoms: N_4  and  C_5
REMARK    5  A    between atoms: C_19  and  O_20
REMARK                            x       y       z     vdW  Elec       q    Type
REMARK                         _______ _______ _______ _____ _____    ______ ____
ROOT
ATOM      1  N   UNL     1       2.660   6.525  20.073  0.00  0.00    +0.000 N 
ATOM      2  H   UNL     1       3.673   6.451  20.051  0.00  0.00    +0.000 HD
ENDROOT
BRANCH   1   3
ATOM      3  C   UNL     1       2.113   7.741  19.594  0.00  0.00    +0.000 A 
ATOM      4  C   UNL     1       2.276   8.066  18.242  0.00  0.00    +0.000 A 
ATOM      5  C   UNL     1       1.716   9.226  17.759  0.00  0.00    +0.000 A 
ATOM      6  N   UNL     1       0.994  10.074  18.513  0.00  0.00    +0.000 NA
ATOM      7  C   UNL     1       0.806   9.768  19.806  0.00  0.00    +0.000 A 
ATOM      8  C   UNL     1       0.064  10.657  20.563  0.00  0.00    +0.000 A 
ATOM      9  C   UNL     1      -0.175  10.433  21.915  0.00  0.00    +0.000 A 
ATOM     10 CL   UNL     1      -1.084  11.572  22.827  0.00  0.00    +0.000 Cl
ATOM     11  C   UNL     1       0.314   9.289  22.534  0.00  0.00    +0.000 A 
ATOM     12  C   UNL     1       1.057   8.378  21.789  0.00  0.00    +0.000 A 
ATOM     13  C   UNL     1       1.331   8.600  20.412  0.00  0.00    +0.000 A 
ENDBRANCH   1   3
BRANCH   1  16
ATOM     14  C   UNL     1       1.577   3.295  18.746  0.00  0.00    +0.000 C 
ATOM     15  C   UNL     1       2.462   4.493  19.034  0.00  0.00    +0.000 C 
ATOM     16  N   UNL     1       1.960   5.387  19.838  0.00  0.00    +0.000 NA
BRANCH  15  17
ATOM     17  C   UNL     1       3.821   4.511  18.397  0.00  0.00    +0.000 A 
ATOM     18  C   UNL     1       3.963   4.344  17.012  0.00  0.00    +0.000 A 
ATOM     19  C   UNL     1       5.230   4.398  16.418  0.00  0.00    +0.000 A 
ATOM     20  C   UNL     1       6.349   4.628  17.213  0.00  0.00    +0.000 A 
ATOM     21  C   UNL     1       6.230   4.769  18.583  0.00  0.00    +0.000 A 
ATOM     22  C   UNL     1       4.975   4.681  19.178  0.00  0.00    +0.000 A 
BRANCH  20  23
ATOM     23  O   UNL     1       7.599   4.715  16.682  0.00  0.00    +0.000 OA
ATOM     24  H   UNL     1       8.252   4.570  17.382  0.00  0.00    +0.000 HD
ENDBRANCH  20  23
ENDBRANCH  15  17
ENDBRANCH   1  16
TORSDOF 4
ENDMDL
MODEL 3
REMARK VINA RESULT:      -7.9      3.226      4.824
REMARK  Name = 
REMARK  5 active torsions:
REMARK  status: ('A' for Active; 'I' for Inactive)
REMARK    1  A    between atoms: C_1  and  C_2
REMARK    2  A    between atoms: C_2  and  C_16
REMARK    3  A    between atoms: N_3  and  N_4
REMARK    4  A    between atoms: N_4  and  C_5
REMARK    5  A    between atoms: C_19  and  O_20
REMARK                            x       y       z     vdW  Elec       q    Type
REMARK                         _______ _______ _______ _____ _____    ______ ____
ROOT
ATOM      1  N   UNL     1       4.797   3.101  17.906  0.00  0.00    +0.000 N 
ATOM      2  H   UNL     1       5.567   3.457  18.466  0.00  0.00    +0.000 HD
ENDROOT
BRANCH   1   3
ATOM      3  C   UNL     1       3.520   3.117  18.519  0.00  0.00    +0.000 A 
ATOM      4  C   UNL     1       2.785   1.927  18.575  0.00  0.00    +0.000 A 
ATOM      5  C   UNL     1       1.560   1.924  19.201  0.00  0.00    +0.000 A 
ATOM      6  N   UNL     1       1.023   3.008  19.790  0.00  0.00    +0.000 NA
ATOM      7  C   UNL     1       1.723   4.152  19.768  0.00  0.00    +0.000 A 
ATOM      8  C   UNL     1       1.148   5.255  20.375  0.00  0.00    +0.000 A 
ATOM      9  C   UNL     1       1.791   6.488  20.394  0.00  0.00    +0.000 A 
ATOM     10 CL   UNL     1       1.035   7.839  21.141  0.00  0.00    +0.000 Cl
ATOM     11  C   UNL     1       3.046   6.635  19.816  0.00  0.00    +0.000 A 
ATOM     12  C   UNL     1       3.645   5.536  19.205  0.00  0.00    +0.000 A 
ATOM     13  C   UNL     1       2.994   4.274  19.157  0.00  0.00    +0.000 A 
ENDBRANCH   1   3
BRANCH   1  16
ATOM     14  C   UNL     1       5.457   4.615  14.644  0.00  0.00    +0.000 C 
ATOM     15  C   UNL     1       5.520   4.368  16.140  0.00  0.00    +0.000 C 
ATOM     16  N   UNL     1       4.855   3.333  16.571  0.00  0.00    +0.000 NA
BRANCH  15  17
ATOM     17  C   UNL     1       6.357   5.309  16.956  0.00  0.00    +0.000 A 
ATOM     18  C   UNL     1       7.205   4.822  17.961  0.00  0.00    +0.000 A 
ATOM     19  C   UNL     1       8.011   5.700  18.695  0.00  0.00    +0.000 A 
ATOM     20  C   UNL     1       7.971   7.063  18.413  0.00  0.00    +0.000 A 
ATOM     21  C   UNL     1       7.122   7.563  17.443  0.00  0.00    +0.000 A 
ATOM     22  C   UNL     1       6.296   6.694  16.738  0.00  0.00    +0.000 A 
BRANCH  20  23
ATOM     23  O   UNL     1       8.753   7.955  19.080  0.00  0.00    +0.000 OA
ATOM     24  H   UNL     1       8.708   8.813  18.632  0.00  0.00    +0.000 HD
ENDBRANCH  20  23
ENDBRANCH  15  17
ENDBRANCH   1  16
TORSDOF 4
ENDMDL
MODEL 4
REMARK VINA RESULT:      -7.9      3.204      4.868
REMARK  Name = 
REMARK  5 active torsions:
REMARK  status: ('A' for Active; 'I' for Inactive)
REMARK    1  A    between atoms: C_1  and  C_2
REMARK    2  A    between atoms: C_2  and  C_16
REMARK    3  A    between atoms: N_3  and  N_4
REMARK    4  A    between atoms: N_4  and  C_5
REMARK    5  A    between atoms: C_19  and  O_20
REMARK                            x       y       z     vdW  Elec       q    Type
REMARK                         _______ _______ _______ _____ _____    ______ ____
ROOT
ATOM      1  N   UNL     1       4.756   3.062  17.931  0.00  0.00    +0.000 N 
ATOM      2  H   UNL     1       5.528   3.443  18.470  0.00  0.00    +0.000 HD
ENDROOT
BRANCH   1   3
ATOM      3  C   UNL     1       3.481   3.108  18.548  0.00  0.00    +0.000 A 
ATOM      4  C   UNL     1       2.728   1.931  18.624  0.00  0.00    +0.000 A 
ATOM      5  C   UNL     1       1.505   1.957  19.255  0.00  0.00    +0.000 A 
ATOM      6  N   UNL     1       0.988   3.058  19.830  0.00  0.00    +0.000 NA
ATOM      7  C   UNL     1       1.706   4.190  19.788  0.00  0.00    +0.000 A 
ATOM      8  C   UNL     1       1.152   5.311  20.381  0.00  0.00    +0.000 A 
ATOM      9  C   UNL     1       1.814   6.533  20.380  0.00  0.00    +0.000 A 
ATOM     10 CL   UNL     1       1.083   7.908  21.109  0.00  0.00    +0.000 Cl
ATOM     11  C   UNL     1       3.070   6.651  19.795  0.00  0.00    +0.000 A 
ATOM     12  C   UNL     1       3.648   5.534  19.199  0.00  0.00    +0.000 A 
ATOM     13  C   UNL     1       2.977   4.282  19.171  0.00  0.00    +0.000 A 
ENDBRANCH   1   3
BRANCH   1  16
ATOM     14  C   UNL     1       5.424   4.410  14.599  0.00  0.00    +0.000 C 
ATOM     15  C   UNL     1       5.494   4.229  16.104  0.00  0.00    +0.000 C 
ATOM     16  N   UNL     1       4.809   3.232  16.586  0.00  0.00    +0.000 NA
BRANCH  15  17
ATOM     17  C   UNL     1       6.361   5.186  16.870  0.00  0.00    +0.000 A 
ATOM     18  C   UNL     1       6.259   6.568  16.659  0.00  0.00    +0.000 A 
ATOM     19  C   UNL     1       7.043   7.458  17.402  0.00  0.00    +0.000 A 
ATOM     20  C   UNL     1       7.921   6.960  18.360  0.00  0.00    +0.000 A 
ATOM     21  C   UNL     1       8.053   5.599  18.564  0.00  0.00    +0.000 A 
ATOM     22  C   UNL     1       7.299   4.713  17.801  0.00  0.00    +0.000 A 
BRANCH  20  23
ATOM     23  O   UNL     1       8.687   7.783  19.127  0.00  0.00    +0.000 OA
ATOM     24  H   UNL     1       8.205   8.607  19.288  0.00  0.00    +0.000 HD
ENDBRANCH  20  23
ENDBRANCH  15  17
ENDBRANCH   1  16
TORSDOF 4
ENDMDL
MODEL 5
REMARK VINA RESULT:      -7.9      0.949      1.375
REMARK  Name = 
REMARK  5 active torsions:
REMARK  status: ('A' for Active; 'I' for Inactive)
REMARK    1  A    between atoms: C_1  and  C_2
REMARK    2  A    between atoms: C_2  and  C_16
REMARK    3  A    between atoms: N_3  and  N_4
REMARK    4  A    between atoms: N_4  and  C_5
REMARK    5  A    between atoms: C_19  and  O_20
REMARK                            x       y       z     vdW  Elec       q    Type
REMARK                         _______ _______ _______ _____ _____    ______ ____
ROOT
ATOM      1  N   UNL     1       2.595   6.997  20.165  0.00  0.00    +0.000 N 
ATOM      2  H   UNL     1       3.599   7.113  20.268  0.00  0.00    +0.000 HD
ENDROOT
BRANCH   1   3
ATOM      3  C   UNL     1       1.876   8.136  19.726  0.00  0.00    +0.000 A 
ATOM      4  C   UNL     1       1.916   8.475  18.369  0.00  0.00    +0.000 A 
ATOM      5  C   UNL     1       1.191   9.557  17.926  0.00  0.00    +0.000 A 
ATOM      6  N   UNL     1       0.417  10.311  18.727  0.00  0.00    +0.000 NA
ATOM      7  C   UNL     1       0.347   9.987  20.027  0.00  0.00    +0.000 A 
ATOM      8  C   UNL     1      -0.452  10.780  20.832  0.00  0.00    +0.000 A 
ATOM      9  C   UNL     1      -0.580  10.532  22.194  0.00  0.00    +0.000 A 
ATOM     10 CL   UNL     1      -1.565  11.553  23.165  0.00  0.00    +0.000 Cl
ATOM     11  C   UNL     1       0.082   9.458  22.777  0.00  0.00    +0.000 A 
ATOM     12  C   UNL     1       0.885   8.643  21.984  0.00  0.00    +0.000 A 
ATOM     13  C   UNL     1       1.045   8.894  20.595  0.00  0.00    +0.000 A 
ENDBRANCH   1   3
BRANCH   1  16
ATOM     14  C   UNL     1       2.246   3.845  18.345  0.00  0.00    +0.000 C 
ATOM     15  C   UNL     1       2.845   5.151  18.831  0.00  0.00    +0.000 C 
ATOM     16  N   UNL     1       2.163   5.781  19.745  0.00  0.00    +0.000 NA
BRANCH  15  17
ATOM     17  C   UNL     1       4.163   5.562  18.242  0.00  0.00    +0.000 A 
ATOM     18  C   UNL     1       4.221   6.185  16.987  0.00  0.00    +0.000 A 
ATOM     19  C   UNL     1       5.448   6.600  16.457  0.00  0.00    +0.000 A 
ATOM     20  C   UNL     1       6.614   6.397  17.191  0.00  0.00    +0.000 A 
ATOM     21  C   UNL     1       6.578   5.761  18.419  0.00  0.00    +0.000 A 
ATOM     22  C   UNL     1       5.362   5.318  18.929  0.00  0.00    +0.000 A 
BRANCH  20  23
ATOM     23  O   UNL     1       7.828   6.804  16.734  0.00  0.00    +0.000 OA
ATOM     24  H   UNL     1       8.470   6.764  17.457  0.00  0.00    +0.000 HD
ENDBRANCH  20  23
ENDBRANCH  15  17
ENDBRANCH   1  16
TORSDOF 4
ENDMDL
MODEL 6
REMARK VINA RESULT:      -7.6      3.983      7.465
REMARK  Name = 
REMARK  5 active torsions:
REMARK  status: ('A' for Active; 'I' for Inactive)
REMARK    1  A    between atoms: C_1  and  C_2
REMARK    2  A    between atoms: C_2  and  C_16
REMARK    3  A    between atoms: N_3  and  N_4
REMARK    4  A    between atoms: N_4  and  C_5
REMARK    5  A    between atoms: C_19  and  O_20
REMARK                            x       y       z     vdW  Elec       q    Type
REMARK                         _______ _______ _______ _____ _____    ______ ____
ROOT
ATOM      1  N   UNL     1       1.891   7.828  19.993  0.00  0.00    +0.000 N 
ATOM      2  H   UNL     1       2.421   8.572  19.549  0.00  0.00    +0.000 HD
ENDROOT
BRANCH   1   3
ATOM      3  C   UNL     1       2.333   6.507  19.735  0.00  0.00    +0.000 A 
ATOM      4  C   UNL     1       1.850   5.468  20.539  0.00  0.00    +0.000 A 
ATOM      5  C   UNL     1       2.243   4.176  20.274  0.00  0.00    +0.000 A 
ATOM      6  N   UNL     1       3.063   3.842  19.260  0.00  0.00    +0.000 NA
ATOM      7  C   UNL     1       3.517   4.822  18.464  0.00  0.00    +0.000 A 
ATOM      8  C   UNL     1       4.363   4.455  17.432  0.00  0.00    +0.000 A 
ATOM      9  C   UNL     1       4.894   5.399  16.561  0.00  0.00    +0.000 A 
ATOM     10 CL   UNL     1       5.958   4.906  15.303  0.00  0.00    +0.000 Cl
ATOM     11  C   UNL     1       4.567   6.743  16.697  0.00  0.00    +0.000 A 
ATOM     12  C   UNL     1       3.713   7.133  17.725  0.00  0.00    +0.000 A 
ATOM     13  C   UNL     1       3.177   6.186  18.638  0.00  0.00    +0.000 A 
ENDBRANCH   1   3
BRANCH   1  16
ATOM     14  C   UNL     1       0.235   9.451  22.820  0.00  0.00    +0.000 C 
ATOM     15  C   UNL     1       0.683   9.178  21.397  0.00  0.00    +0.000 C 
ATOM     16  N   UNL     1       1.383   8.092  21.223  0.00  0.00    +0.000 NA
BRANCH  15  17
ATOM     17  C   UNL     1       0.253  10.155  20.342  0.00  0.00    +0.000 A 
ATOM     18  C   UNL     1      -0.874   9.899  19.548  0.00  0.00    +0.000 A 
ATOM     19  C   UNL     1      -1.292  10.830  18.590  0.00  0.00    +0.000 A 
ATOM     20  C   UNL     1      -0.584  12.019  18.437  0.00  0.00    +0.000 A 
ATOM     21  C   UNL     1       0.544  12.276  19.194  0.00  0.00    +0.000 A 
ATOM     22  C   UNL     1       0.980  11.335  20.121  0.00  0.00    +0.000 A 
BRANCH  20  23
ATOM     23  O   UNL     1      -0.964  12.968  17.539  0.00  0.00    +0.000 OA
ATOM     24  H   UNL     1      -1.805  13.355  17.823  0.00  0.00    +0.000 HD
ENDBRANCH  20  23
ENDBRANCH  15  17
ENDBRANCH   1  16
TORSDOF 4
ENDMDL
MODEL 7
REMARK VINA RESULT:      -7.6      3.959      7.407
REMARK  Name = 
REMARK  5 active torsions:
REMARK  status: ('A' for Active; 'I' for Inactive)
REMARK    1  A    between atoms: C_1  and  C_2
REMARK    2  A    between atoms: C_2  and  C_16
REMARK    3  A    between atoms: N_3  and  N_4
REMARK    4  A    between atoms: N_4  and  C_5
REMARK    5  A    between atoms: C_19  and  O_20
REMARK                            x       y       z     vdW  Elec       q    Type
REMARK                         _______ _______ _______ _____ _____    ______ ____
ROOT
ATOM      1  N   UNL     1       1.870   7.921  20.042  0.00  0.00    +0.000 N 
ATOM      2  H   UNL     1       2.414   8.669  19.621  0.00  0.00    +0.000 HD
ENDROOT
BRANCH   1   3
ATOM      3  C   UNL     1       2.292   6.600  19.748  0.00  0.00    +0.000 A 
ATOM      4  C   UNL     1       1.804   5.548  20.531  0.00  0.00    +0.000 A 
ATOM      5  C   UNL     1       2.177   4.259  20.230  0.00  0.00    +0.000 A 
ATOM      6  N   UNL     1       2.983   3.938  19.201  0.00  0.00    +0.000 NA
ATOM      7  C   UNL     1       3.442   4.932  18.425  0.00  0.00    +0.000 A 
ATOM      8  C   UNL     1       4.273   4.579  17.375  0.00  0.00    +0.000 A 
ATOM      9  C   UNL     1       4.809   5.538  16.522  0.00  0.00    +0.000 A 
ATOM     10 CL   UNL     1       5.853   5.062  15.243  0.00  0.00    +0.000 Cl
ATOM     11  C   UNL     1       4.501   6.882  16.695  0.00  0.00    +0.000 A 
ATOM     12  C   UNL     1       3.661   7.257  17.740  0.00  0.00    +0.000 A 
ATOM     13  C   UNL     1       3.122   6.295  18.635  0.00  0.00    +0.000 A 
ENDBRANCH   1   3
BRANCH   1  16
ATOM     14  C   UNL     1       0.209   9.478  22.903  0.00  0.00    +0.000 C 
ATOM     15  C   UNL     1       0.657   9.235  21.474  0.00  0.00    +0.000 C 
ATOM     16  N   UNL     1       1.363   8.157  21.278  0.00  0.00    +0.000 NA
BRANCH  15  17
ATOM     17  C   UNL     1       0.220  10.230  20.439  0.00  0.00    +0.000 A 
ATOM     18  C   UNL     1       0.895  11.451  20.293  0.00  0.00    +0.000 A 
ATOM     19  C   UNL     1       0.507  12.361  19.302  0.00  0.00    +0.000 A 
ATOM     20  C   UNL     1      -0.551  12.040  18.455  0.00  0.00    +0.000 A 
ATOM     21  C   UNL     1      -1.243  10.852  18.602  0.00  0.00    +0.000 A 
ATOM     22  C   UNL     1      -0.879   9.963  19.609  0.00  0.00    +0.000 A 
BRANCH  20  23
ATOM     23  O   UNL     1      -0.951  12.877  17.460  0.00  0.00    +0.000 OA
ATOM     24  H   UNL     1      -0.806  13.793  17.739  0.00  0.00    +0.000 HD
ENDBRANCH  20  23
ENDBRANCH  15  17
ENDBRANCH   1  16
TORSDOF 4
ENDMDL
MODEL 8
REMARK VINA RESULT:      -7.6      4.620      7.398
REMARK  Name = 
REMARK  5 active torsions:
REMARK  status: ('A' for Active; 'I' for Inactive)
REMARK    1  A    between atoms: C_1  and  C_2
REMARK    2  A    between atoms: C_2  and  C_16
REMARK    3  A    between atoms: N_3  and  N_4
REMARK    4  A    between atoms: N_4  and  C_5
REMARK    5  A    between atoms: C_19  and  O_20
REMARK                            x       y       z     vdW  Elec       q    Type
REMARK                         _______ _______ _______ _____ _____    ______ ____
ROOT
ATOM      1  N   UNL     1       5.384   3.741  18.911  0.00  0.00    +0.000 N 
ATOM      2  H   UNL     1       5.937   3.243  19.603  0.00  0.00    +0.000 HD
ENDROOT
BRANCH   1   3
ATOM      3  C   UNL     1       6.085   4.667  18.100  0.00  0.00    +0.000 A 
ATOM      4  C   UNL     1       6.715   5.756  18.713  0.00  0.00    +0.000 A 
ATOM      5  C   UNL     1       7.431   6.640  17.939  0.00  0.00    +0.000 A 
ATOM      6  N   UNL     1       7.580   6.512  16.608  0.00  0.00    +0.000 NA
ATOM      7  C   UNL     1       7.003   5.461  16.006  0.00  0.00    +0.000 A 
ATOM      8  C   UNL     1       7.165   5.352  14.635  0.00  0.00    +0.000 A 
ATOM      9  C   UNL     1       6.595   4.305  13.919  0.00  0.00    +0.000 A 
ATOM     10 CL   UNL     1       6.803   4.216  12.215  0.00  0.00    +0.000 Cl
ATOM     11  C   UNL     1       5.861   3.324  14.575  0.00  0.00    +0.000 A 
ATOM     12  C   UNL     1       5.691   3.411  15.954  0.00  0.00    +0.000 A 
ATOM     13  C   UNL     1       6.247   4.485  16.700  0.00  0.00    +0.000 A 
ENDBRANCH   1   3
BRANCH   1  16
ATOM     14  C   UNL     1       2.057   2.690  17.819  0.00  0.00    +0.000 C 
ATOM     15  C   UNL     1       3.160   3.560  18.391  0.00  0.00    +0.000 C 
ATOM     16  N   UNL     1       4.361   3.056  18.341  0.00  0.00    +0.000 NA
BRANCH  15  17
ATOM     17  C   UNL     1       2.767   4.908  18.919  0.00  0.00    +0.000 A 
ATOM     18  C   UNL     1       2.906   6.055  18.124  0.00  0.00    +0.000 A 
ATOM     19  C   UNL     1       2.504   7.306  18.608  0.00  0.00    +0.000 A 
ATOM     20  C   UNL     1       1.955   7.402  19.883  0.00  0.00    +0.000 A 
ATOM     21  C   UNL     1       1.834   6.285  20.690  0.00  0.00    +0.000 A 
ATOM     22  C   UNL     1       2.265   5.048  20.222  0.00  0.00    +0.000 A 
BRANCH  20  23
ATOM     23  O   UNL     1       1.525   8.589  20.390  0.00  0.00    +0.000 OA
ATOM     24  H   UNL     1       0.567   8.659  20.265  0.00  0.00    +0.000 HD
ENDBRANCH  20  23
ENDBRANCH  15  17
ENDBRANCH   1  16
TORSDOF 4
ENDMDL
MODEL 9
REMARK VINA RESULT:      -7.6      4.603      7.350
REMARK  Name = 
REMARK  5 active torsions:
REMARK  status: ('A' for Active; 'I' for Inactive)
REMARK    1  A    between atoms: C_1  and  C_2
REMARK    2  A    between atoms: C_2  and  C_16
REMARK    3  A    between atoms: N_3  and  N_4
REMARK    4  A    between atoms: N_4  and  C_5
REMARK    5  A    between atoms: C_19  and  O_20
REMARK                            x       y       z     vdW  Elec       q    Type
REMARK                         _______ _______ _______ _____ _____    ______ ____
ROOT
ATOM      1  N   UNL     1       5.370   3.855  18.927  0.00  0.00    +0.000 N 
ATOM      2  H   UNL     1       5.906   3.403  19.663  0.00  0.00    +0.000 HD
ENDROOT
BRANCH   1   3
ATOM      3  C   UNL     1       6.086   4.749  18.094  0.00  0.00    +0.000 A 
ATOM      4  C   UNL     1       6.737   5.840  18.679  0.00  0.00    +0.000 A 
ATOM      5  C   UNL     1       7.466   6.693  17.884  0.00  0.00    +0.000 A 
ATOM      6  N   UNL     1       7.610   6.531  16.556  0.00  0.00    +0.000 NA
ATOM      7  C   UNL     1       7.012   5.477  15.979  0.00  0.00    +0.000 A 
ATOM      8  C   UNL     1       7.169   5.333  14.612  0.00  0.00    +0.000 A 
ATOM      9  C   UNL     1       6.579   4.280  13.922  0.00  0.00    +0.000 A 
ATOM     10 CL   UNL     1       6.780   4.147  12.220  0.00  0.00    +0.000 Cl
ATOM     11  C   UNL     1       5.828   3.328  14.601  0.00  0.00    +0.000 A 
ATOM     12  C   UNL     1       5.663   3.451  15.978  0.00  0.00    +0.000 A 
ATOM     13  C   UNL     1       6.240   4.532  16.697  0.00  0.00    +0.000 A 
ENDBRANCH   1   3
BRANCH   1  16
ATOM     14  C   UNL     1       2.091   2.655  17.841  0.00  0.00    +0.000 C 
ATOM     15  C   UNL     1       3.156   3.574  18.411  0.00  0.00    +0.000 C 
ATOM     16  N   UNL     1       4.378   3.124  18.359  0.00  0.00    +0.000 NA
BRANCH  15  17
ATOM     17  C   UNL     1       2.703   4.904  18.940  0.00  0.00    +0.000 A 
ATOM     18  C   UNL     1       2.161   5.013  20.228  0.00  0.00    +0.000 A 
ATOM     19  C   UNL     1       1.774   6.261  20.731  0.00  0.00    +0.000 A 
ATOM     20  C   UNL     1       1.939   7.397  19.944  0.00  0.00    +0.000 A 
ATOM     21  C   UNL     1       2.448   7.304  18.661  0.00  0.00    +0.000 A 
ATOM     22  C   UNL     1       2.801   6.059  18.149  0.00  0.00    +0.000 A 
BRANCH  20  23
ATOM     23  O   UNL     1       1.603   8.636  20.394  0.00  0.00    +0.000 OA
ATOM     24  H   UNL     1       1.257   8.563  21.295  0.00  0.00    +0.000 HD
ENDBRANCH  20  23
ENDBRANCH  15  17
ENDBRANCH   1  16
TORSDOF 4
ENDMDL
