MODEL 1
REMARK VINA RESULT:      -8.2      0.000      0.000
REMARK  Name = 
REMARK  9 active torsions:
REMARK  status: ('A' for Active; 'I' for Inactive)
REMARK    1  A    between atoms: C_1  and  C_2
REMARK    2  A    between atoms: C_2  and  C_3
REMARK    3  A    between atoms: C_3  and  C_4
REMARK    4  A    between atoms: C_4  and  C_5
REMARK    5  A    between atoms: C_5  and  C_6
REMARK    6  A    between atoms: C_6  and  C_7
REMARK    7  A    between atoms: C_7  and  C_8
REMARK    8  A    between atoms: C_14  and  C_15
REMARK    9  A    between atoms: C_21  and  C_22
REMARK                            x       y       z     vdW  Elec       q    Type
REMARK                         _______ _______ _______ _____ _____    ______ ____
ROOT
ATOM      1  C   UNL     1       2.244   5.917  19.962  0.00  0.00    +0.000 C 
ATOM      2  C   UNL     1       2.797   6.388  18.593  0.00  0.00    +0.000 C 
ATOM      3  C   UNL     1       3.972   5.436  18.242  0.00  0.00    +0.000 C 
ATOM      4  C   UNL     1       3.347   4.066  17.912  0.00  0.00    +0.000 C 
ATOM      5  C   UNL     1       4.330   3.071  17.272  0.00  0.00    +0.000 C 
ATOM      6  C   UNL     1       5.125   3.706  16.147  0.00  0.00    +0.000 C 
ATOM      7  C   UNL     1       5.971   4.863  16.680  0.00  0.00    +0.000 C 
ATOM      8  C   UNL     1       7.070   4.377  17.632  0.00  0.00    +0.000 C 
ATOM      9  C   UNL     1       6.603   5.618  15.519  0.00  0.00    +0.000 C 
ATOM     10  O   UNL     1       7.447   5.147  14.765  0.00  0.00    +0.000 OA
ATOM     11  C   UNL     1       6.106   7.035  15.448  0.00  0.00    +0.000 C 
ATOM     12  C   UNL     1       4.750   6.900  16.151  0.00  0.00    +0.000 C 
ATOM     13  C   UNL     1       5.087   5.971  17.320  0.00  0.00    +0.000 C 
ATOM     14  C   UNL     1       2.633   3.455  19.180  0.00  0.00    +0.000 C 
ATOM     15  C   UNL     1       1.750   2.274  18.653  0.00  0.00    +0.000 C 
ATOM     16  C   UNL     1       3.584   2.888  20.225  0.00  0.00    +0.000 C 
ATOM     17  C   UNL     1       3.074   2.433  21.385  0.00  0.00    +0.000 C 
ATOM     18  C   UNL     1       1.638   2.720  21.674  0.00  0.00    +0.000 C 
ATOM     19  O   UNL     1       1.013   2.080  22.500  0.00  0.00    +0.000 OA
ATOM     20  C   UNL     1       1.108   3.977  21.060  0.00  0.00    +0.000 C 
ATOM     21  C   UNL     1       1.781   4.457  19.985  0.00  0.00    +0.000 C 
ENDROOT
BRANCH   1  22
ATOM     22  C   UNL     1       1.401   6.955  20.719  0.00  0.00    +0.000 C 
BRANCH  22  23
ATOM     23  C   UNL     1       1.653   8.361  20.159  0.00  0.00    +0.000 C 
BRANCH  23  24
ATOM     24  C   UNL     1       0.659   9.344  20.759  0.00  0.00    +0.000 C 
BRANCH  24  25
ATOM     25  C   UNL     1      -0.232   8.672  21.794  0.00  0.00    +0.000 C 
BRANCH  25  26
ATOM     26  C   UNL     1      -0.504   9.664  22.923  0.00  0.00    +0.000 C 
BRANCH  26  28
ATOM     27  C   UNL     1      -1.858  11.748  23.117  0.00  0.00    +0.000 C 
ATOM     28  C   UNL     1      -0.711  11.065  22.386  0.00  0.00    +0.000 C 
ENDBRANCH  26  28
ENDBRANCH  25  26
ENDBRANCH  24  25
ENDBRANCH  23  24
ENDBRANCH  22  23
ENDBRANCH   1  22
TORSDOF 6
ENDMDL
MODEL 2
REMARK VINA RESULT:      -8.0      1.274      1.812
REMARK  Name = 
REMARK  9 active torsions:
REMARK  status: ('A' for Active; 'I' for Inactive)
REMARK    1  A    between atoms: C_1  and  C_2
REMARK    2  A    between atoms: C_2  and  C_3
REMARK    3  A    between atoms: C_3  and  C_4
REMARK    4  A    between atoms: C_4  and  C_5
REMARK    5  A    between atoms: C_5  and  C_6
REMARK    6  A    between atoms: C_6  and  C_7
REMARK    7  A    between atoms: C_7  and  C_8
REMARK    8  A    between atoms: C_14  and  C_15
REMARK    9  A    between atoms: C_21  and  C_22
REMARK                            x       y       z     vdW  Elec       q    Type
REMARK                         _______ _______ _______ _____ _____    ______ ____
ROOT
ATOM      1  C   UNL     1       2.222   5.903  19.954  0.00  0.00    +0.000 C 
ATOM      2  C   UNL     1       2.772   6.373  18.585  0.00  0.00    +0.000 C 
ATOM      3  C   UNL     1       3.952   5.426  18.236  0.00  0.00    +0.000 C 
ATOM      4  C   UNL     1       3.335   4.053  17.909  0.00  0.00    +0.000 C 
ATOM      5  C   UNL     1       4.323   3.061  17.271  0.00  0.00    +0.000 C 
ATOM      6  C   UNL     1       5.115   3.699  16.145  0.00  0.00    +0.000 C 
ATOM      7  C   UNL     1       5.955   4.861  16.676  0.00  0.00    +0.000 C 
ATOM      8  C   UNL     1       7.056   4.383  17.630  0.00  0.00    +0.000 C 
ATOM      9  C   UNL     1       6.584   5.616  15.514  0.00  0.00    +0.000 C 
ATOM     10  O   UNL     1       7.431   5.149  14.762  0.00  0.00    +0.000 OA
ATOM     11  C   UNL     1       6.080   7.031  15.440  0.00  0.00    +0.000 C 
ATOM     12  C   UNL     1       4.724   6.890  16.142  0.00  0.00    +0.000 C 
ATOM     13  C   UNL     1       5.065   5.966  17.314  0.00  0.00    +0.000 C 
ATOM     14  C   UNL     1       2.623   3.441  19.178  0.00  0.00    +0.000 C 
ATOM     15  C   UNL     1       1.747   2.255  18.653  0.00  0.00    +0.000 C 
ATOM     16  C   UNL     1       3.577   2.881  20.225  0.00  0.00    +0.000 C 
ATOM     17  C   UNL     1       3.068   2.426  21.386  0.00  0.00    +0.000 C 
ATOM     18  C   UNL     1       1.631   2.706  21.673  0.00  0.00    +0.000 C 
ATOM     19  O   UNL     1       1.009   2.065  22.501  0.00  0.00    +0.000 OA
ATOM     20  C   UNL     1       1.094   3.959  21.056  0.00  0.00    +0.000 C 
ATOM     21  C   UNL     1       1.765   4.440  19.981  0.00  0.00    +0.000 C 
ENDROOT
BRANCH   1  22
ATOM     22  C   UNL     1       1.373   6.938  20.708  0.00  0.00    +0.000 C 
BRANCH  22  23
ATOM     23  C   UNL     1       1.703   8.356  20.225  0.00  0.00    +0.000 C 
BRANCH  23  24
ATOM     24  C   UNL     1       0.557   9.299  20.560  0.00  0.00    +0.000 C 
BRANCH  24  25
ATOM     25  C   UNL     1       0.526  10.494  19.619  0.00  0.00    +0.000 C 
BRANCH  25  26
ATOM     26  C   UNL     1      -0.062  10.048  18.281  0.00  0.00    +0.000 C 
BRANCH  26  28
ATOM     27  C   UNL     1      -2.114   9.878  16.876  0.00  0.00    +0.000 C 
ATOM     28  C   UNL     1      -1.532  10.396  18.183  0.00  0.00    +0.000 C 
ENDBRANCH  26  28
ENDBRANCH  25  26
ENDBRANCH  24  25
ENDBRANCH  23  24
ENDBRANCH  22  23
ENDBRANCH   1  22
TORSDOF 6
ENDMDL
MODEL 3
REMARK VINA RESULT:      -7.5      1.199      1.579
REMARK  Name = 
REMARK  9 active torsions:
REMARK  status: ('A' for Active; 'I' for Inactive)
REMARK    1  A    between atoms: C_1  and  C_2
REMARK    2  A    between atoms: C_2  and  C_3
REMARK    3  A    between atoms: C_3  and  C_4
REMARK    4  A    between atoms: C_4  and  C_5
REMARK    5  A    between atoms: C_5  and  C_6
REMARK    6  A    between atoms: C_6  and  C_7
REMARK    7  A    between atoms: C_7  and  C_8
REMARK    8  A    between atoms: C_14  and  C_15
REMARK    9  A    between atoms: C_21  and  C_22
REMARK                            x       y       z     vdW  Elec       q    Type
REMARK                         _______ _______ _______ _____ _____    ______ ____
ROOT
ATOM      1  C   UNL     1       2.225   5.951  19.926  0.00  0.00    +0.000 C 
ATOM      2  C   UNL     1       2.790   6.409  18.558  0.00  0.00    +0.000 C 
ATOM      3  C   UNL     1       3.965   5.451  18.225  0.00  0.00    +0.000 C 
ATOM      4  C   UNL     1       3.340   4.080  17.901  0.00  0.00    +0.000 C 
ATOM      5  C   UNL     1       4.325   3.077  17.277  0.00  0.00    +0.000 C 
ATOM      6  C   UNL     1       5.131   3.701  16.154  0.00  0.00    +0.000 C 
ATOM      7  C   UNL     1       5.976   4.860  16.684  0.00  0.00    +0.000 C 
ATOM      8  C   UNL     1       7.065   4.380  17.650  0.00  0.00    +0.000 C 
ATOM      9  C   UNL     1       6.620   5.604  15.523  0.00  0.00    +0.000 C 
ATOM     10  O   UNL     1       7.469   5.125  14.780  0.00  0.00    +0.000 OA
ATOM     11  C   UNL     1       6.127   7.022  15.436  0.00  0.00    +0.000 C 
ATOM     12  C   UNL     1       4.765   6.896  16.128  0.00  0.00    +0.000 C 
ATOM     13  C   UNL     1       5.089   5.976  17.308  0.00  0.00    +0.000 C 
ATOM     14  C   UNL     1       2.613   3.481  19.168  0.00  0.00    +0.000 C 
ATOM     15  C   UNL     1       1.731   2.299  18.643  0.00  0.00    +0.000 C 
ATOM     16  C   UNL     1       3.554   2.920  20.226  0.00  0.00    +0.000 C 
ATOM     17  C   UNL     1       3.033   2.476  21.385  0.00  0.00    +0.000 C 
ATOM     18  C   UNL     1       1.596   2.769  21.659  0.00  0.00    +0.000 C 
ATOM     19  O   UNL     1       0.962   2.138  22.486  0.00  0.00    +0.000 OA
ATOM     20  C   UNL     1       1.074   4.023  21.031  0.00  0.00    +0.000 C 
ATOM     21  C   UNL     1       1.757   4.492  19.958  0.00  0.00    +0.000 C 
ENDROOT
BRANCH   1  22
ATOM     22  C   UNL     1       1.378   6.997  20.667  0.00  0.00    +0.000 C 
BRANCH  22  23
ATOM     23  C   UNL     1       1.728   8.411  20.184  0.00  0.00    +0.000 C 
BRANCH  23  24
ATOM     24  C   UNL     1       0.506   9.310  20.281  0.00  0.00    +0.000 C 
BRANCH  24  25
ATOM     25  C   UNL     1       0.185   9.959  18.942  0.00  0.00    +0.000 C 
BRANCH  25  26
ATOM     26  C   UNL     1       0.122  11.473  19.135  0.00  0.00    +0.000 C 
BRANCH  26  28
ATOM     27  C   UNL     1       1.882  12.882  20.199  0.00  0.00    +0.000 C 
ATOM     28  C   UNL     1       1.484  12.108  18.950  0.00  0.00    +0.000 C 
ENDBRANCH  26  28
ENDBRANCH  25  26
ENDBRANCH  24  25
ENDBRANCH  23  24
ENDBRANCH  22  23
ENDBRANCH   1  22
TORSDOF 6
ENDMDL
MODEL 4
REMARK VINA RESULT:      -7.4      3.040      8.348
REMARK  Name = 
REMARK  9 active torsions:
REMARK  status: ('A' for Active; 'I' for Inactive)
REMARK    1  A    between atoms: C_1  and  C_2
REMARK    2  A    between atoms: C_2  and  C_3
REMARK    3  A    between atoms: C_3  and  C_4
REMARK    4  A    between atoms: C_4  and  C_5
REMARK    5  A    between atoms: C_5  and  C_6
REMARK    6  A    between atoms: C_6  and  C_7
REMARK    7  A    between atoms: C_7  and  C_8
REMARK    8  A    between atoms: C_14  and  C_15
REMARK    9  A    between atoms: C_21  and  C_22
REMARK                            x       y       z     vdW  Elec       q    Type
REMARK                         _______ _______ _______ _____ _____    ______ ____
ROOT
ATOM      1  C   UNL     1       5.524   4.159  16.056  0.00  0.00    +0.000 C 
ATOM      2  C   UNL     1       4.123   3.592  16.394  0.00  0.00    +0.000 C 
ATOM      3  C   UNL     1       3.909   3.823  17.914  0.00  0.00    +0.000 C 
ATOM      4  C   UNL     1       3.725   5.340  18.108  0.00  0.00    +0.000 C 
ATOM      5  C   UNL     1       3.225   5.734  19.509  0.00  0.00    +0.000 C 
ATOM      6  C   UNL     1       2.052   4.879  19.950  0.00  0.00    +0.000 C 
ATOM      7  C   UNL     1       2.467   3.410  20.038  0.00  0.00    +0.000 C 
ATOM      8  C   UNL     1       3.492   3.170  21.153  0.00  0.00    +0.000 C 
ATOM      9  C   UNL     1       1.241   2.541  20.282  0.00  0.00    +0.000 C 
ATOM     10  O   UNL     1       0.565   2.570  21.304  0.00  0.00    +0.000 OA
ATOM     11  C   UNL     1       0.997   1.599  19.136  0.00  0.00    +0.000 C 
ATOM     12  C   UNL     1       1.681   2.356  17.991  0.00  0.00    +0.000 C 
ATOM     13  C   UNL     1       2.956   2.870  18.664  0.00  0.00    +0.000 C 
ATOM     14  C   UNL     1       5.039   6.120  17.713  0.00  0.00    +0.000 C 
ATOM     15  C   UNL     1       4.633   7.628  17.604  0.00  0.00    +0.000 C 
ATOM     16  C   UNL     1       6.163   6.019  18.735  0.00  0.00    +0.000 C 
ATOM     17  C   UNL     1       7.356   6.569  18.441  0.00  0.00    +0.000 C 
ATOM     18  C   UNL     1       7.579   7.044  17.045  0.00  0.00    +0.000 C 
ATOM     19  O   UNL     1       8.460   7.841  16.774  0.00  0.00    +0.000 OA
ATOM     20  C   UNL     1       6.814   6.303  15.994  0.00  0.00    +0.000 C 
ATOM     21  C   UNL     1       5.705   5.640  16.407  0.00  0.00    +0.000 C 
ENDROOT
BRANCH   1  22
ATOM     22  C   UNL     1       6.138   3.647  14.744  0.00  0.00    +0.000 C 
BRANCH  22  23
ATOM     23  C   UNL     1       5.243   4.017  13.554  0.00  0.00    +0.000 C 
BRANCH  23  24
ATOM     24  C   UNL     1       5.802   3.409  12.276  0.00  0.00    +0.000 C 
BRANCH  24  25
ATOM     25  C   UNL     1       4.709   2.745  11.452  0.00  0.00    +0.000 C 
BRANCH  25  26
ATOM     26  C   UNL     1       3.675   3.802  11.067  0.00  0.00    +0.000 C 
BRANCH  26  28
ATOM     27  C   UNL     1       2.365   4.813   9.203  0.00  0.00    +0.000 C 
ATOM     28  C   UNL     1       3.223   3.632   9.632  0.00  0.00    +0.000 C 
ENDBRANCH  26  28
ENDBRANCH  25  26
ENDBRANCH  24  25
ENDBRANCH  23  24
ENDBRANCH  22  23
ENDBRANCH   1  22
TORSDOF 6
ENDMDL
MODEL 5
REMARK VINA RESULT:      -7.0      5.653     10.388
REMARK  Name = 
REMARK  9 active torsions:
REMARK  status: ('A' for Active; 'I' for Inactive)
REMARK    1  A    between atoms: C_1  and  C_2
REMARK    2  A    between atoms: C_2  and  C_3
REMARK    3  A    between atoms: C_3  and  C_4
REMARK    4  A    between atoms: C_4  and  C_5
REMARK    5  A    between atoms: C_5  and  C_6
REMARK    6  A    between atoms: C_6  and  C_7
REMARK    7  A    between atoms: C_7  and  C_8
REMARK    8  A    between atoms: C_14  and  C_15
REMARK    9  A    between atoms: C_21  and  C_22
REMARK                            x       y       z     vdW  Elec       q    Type
REMARK                         _______ _______ _______ _____ _____    ______ ____
ROOT
ATOM      1  C   UNL     1      -1.818  11.011  18.936  0.00  0.00    +0.000 C 
ATOM      2  C   UNL     1      -2.526  12.338  19.309  0.00  0.00    +0.000 C 
ATOM      3  C   UNL     1      -2.538  12.409  20.860  0.00  0.00    +0.000 C 
ATOM      4  C   UNL     1      -1.083  12.656  21.303  0.00  0.00    +0.000 C 
ATOM      5  C   UNL     1      -0.939  13.033  22.787  0.00  0.00    +0.000 C 
ATOM      6  C   UNL     1      -1.930  14.106  23.196  0.00  0.00    +0.000 C 
ATOM      7  C   UNL     1      -3.363  13.604  23.018  0.00  0.00    +0.000 C 
ATOM      8  C   UNL     1      -3.693  12.460  23.983  0.00  0.00    +0.000 C 
ATOM      9  C   UNL     1      -4.341  14.749  23.235  0.00  0.00    +0.000 C 
ATOM     10  O   UNL     1      -4.513  15.319  24.306  0.00  0.00    +0.000 OA
ATOM     11  C   UNL     1      -5.118  15.056  21.984  0.00  0.00    +0.000 C 
ATOM     12  C   UNL     1      -4.153  14.534  20.913  0.00  0.00    +0.000 C 
ATOM     13  C   UNL     1      -3.657  13.227  21.538  0.00  0.00    +0.000 C 
ATOM     14  C   UNL     1      -0.163  11.434  20.914  0.00  0.00    +0.000 C 
ATOM     15  C   UNL     1       1.312  11.932  21.077  0.00  0.00    +0.000 C 
ATOM     16  C   UNL     1      -0.337  10.209  21.801  0.00  0.00    +0.000 C 
ATOM     17  C   UNL     1       0.333   9.083  21.488  0.00  0.00    +0.000 C 
ATOM     18  C   UNL     1       1.025   9.030  20.167  0.00  0.00    +0.000 C 
ATOM     19  O   UNL     1       1.913   8.226  19.944  0.00  0.00    +0.000 OA
ATOM     20  C   UNL     1       0.397   9.855  19.089  0.00  0.00    +0.000 C 
ATOM     21  C   UNL     1      -0.397  10.878  19.494  0.00  0.00    +0.000 C 
ENDROOT
BRANCH   1  22
ATOM     22  C   UNL     1      -2.084  10.506  17.510  0.00  0.00    +0.000 C 
BRANCH  22  23
ATOM     23  C   UNL     1      -3.569  10.164  17.331  0.00  0.00    +0.000 C 
BRANCH  23  24
ATOM     24  C   UNL     1      -4.256  11.247  16.514  0.00  0.00    +0.000 C 
BRANCH  24  25
ATOM     25  C   UNL     1      -5.468  11.810  17.243  0.00  0.00    +0.000 C 
BRANCH  25  26
ATOM     26  C   UNL     1      -5.862  10.841  18.357  0.00  0.00    +0.000 C 
BRANCH  26  28
ATOM     27  C   UNL     1      -7.145  12.768  19.282  0.00  0.00    +0.000 C 
ATOM     28  C   UNL     1      -6.251  11.583  19.618  0.00  0.00    +0.000 C 
ENDBRANCH  26  28
ENDBRANCH  25  26
ENDBRANCH  24  25
ENDBRANCH  23  24
ENDBRANCH  22  23
ENDBRANCH   1  22
TORSDOF 6
ENDMDL
MODEL 6
REMARK VINA RESULT:      -7.0      2.778      6.566
REMARK  Name = 
REMARK  9 active torsions:
REMARK  status: ('A' for Active; 'I' for Inactive)
REMARK    1  A    between atoms: C_1  and  C_2
REMARK    2  A    between atoms: C_2  and  C_3
REMARK    3  A    between atoms: C_3  and  C_4
REMARK    4  A    between atoms: C_4  and  C_5
REMARK    5  A    between atoms: C_5  and  C_6
REMARK    6  A    between atoms: C_6  and  C_7
REMARK    7  A    between atoms: C_7  and  C_8
REMARK    8  A    between atoms: C_14  and  C_15
REMARK    9  A    between atoms: C_21  and  C_22
REMARK                            x       y       z     vdW  Elec       q    Type
REMARK                         _______ _______ _______ _____ _____    ______ ____
ROOT
ATOM      1  C   UNL     1       3.901   5.817  16.935  0.00  0.00    +0.000 C 
ATOM      2  C   UNL     1       3.960   7.324  17.289  0.00  0.00    +0.000 C 
ATOM      3  C   UNL     1       2.602   7.673  17.956  0.00  0.00    +0.000 C 
ATOM      4  C   UNL     1       2.601   6.992  19.338  0.00  0.00    +0.000 C 
ATOM      5  C   UNL     1       1.457   7.451  20.259  0.00  0.00    +0.000 C 
ATOM      6  C   UNL     1       1.324   8.962  20.283  0.00  0.00    +0.000 C 
ATOM      7  C   UNL     1       0.991   9.490  18.887  0.00  0.00    +0.000 C 
ATOM      8  C   UNL     1      -0.398   9.041  18.421  0.00  0.00    +0.000 C 
ATOM      9  C   UNL     1       1.061  11.010  18.880  0.00  0.00    +0.000 C 
ATOM     10  O   UNL     1       0.300  11.741  19.504  0.00  0.00    +0.000 OA
ATOM     11  C   UNL     1       2.144  11.509  17.964  0.00  0.00    +0.000 C 
ATOM     12  C   UNL     1       3.085  10.298  17.947  0.00  0.00    +0.000 C 
ATOM     13  C   UNL     1       2.101   9.128  17.859  0.00  0.00    +0.000 C 
ATOM     14  C   UNL     1       2.641   5.421  19.189  0.00  0.00    +0.000 C 
ATOM     15  C   UNL     1       2.994   4.860  20.608  0.00  0.00    +0.000 C 
ATOM     16  C   UNL     1       1.321   4.795  18.762  0.00  0.00    +0.000 C 
ATOM     17  C   UNL     1       1.281   3.472  18.514  0.00  0.00    +0.000 C 
ATOM     18  C   UNL     1       2.579   2.738  18.449  0.00  0.00    +0.000 C 
ATOM     19  O   UNL     1       2.633   1.527  18.571  0.00  0.00    +0.000 OA
ATOM     20  C   UNL     1       3.746   3.554  17.993  0.00  0.00    +0.000 C 
ATOM     21  C   UNL     1       3.637   4.899  18.133  0.00  0.00    +0.000 C 
ENDROOT
BRANCH   1  22
ATOM     22  C   UNL     1       4.916   5.353  15.880  0.00  0.00    +0.000 C 
BRANCH  22  23
ATOM     23  C   UNL     1       6.323   5.854  16.232  0.00  0.00    +0.000 C 
BRANCH  23  24
ATOM     24  C   UNL     1       7.196   4.688  16.669  0.00  0.00    +0.000 C 
BRANCH  24  25
ATOM     25  C   UNL     1       7.684   4.864  18.100  0.00  0.00    +0.000 C 
BRANCH  25  26
ATOM     26  C   UNL     1       7.203   6.219  18.617  0.00  0.00    +0.000 C 
BRANCH  26  28
ATOM     27  C   UNL     1       7.964   8.472  17.869  0.00  0.00    +0.000 C 
ATOM     28  C   UNL     1       8.334   7.225  18.659  0.00  0.00    +0.000 C 
ENDBRANCH  26  28
ENDBRANCH  25  26
ENDBRANCH  24  25
ENDBRANCH  23  24
ENDBRANCH  22  23
ENDBRANCH   1  22
TORSDOF 6
ENDMDL
MODEL 7
REMARK VINA RESULT:      -7.0      2.971      7.654
REMARK  Name = 
REMARK  9 active torsions:
REMARK  status: ('A' for Active; 'I' for Inactive)
REMARK    1  A    between atoms: C_1  and  C_2
REMARK    2  A    between atoms: C_2  and  C_3
REMARK    3  A    between atoms: C_3  and  C_4
REMARK    4  A    between atoms: C_4  and  C_5
REMARK    5  A    between atoms: C_5  and  C_6
REMARK    6  A    between atoms: C_6  and  C_7
REMARK    7  A    between atoms: C_7  and  C_8
REMARK    8  A    between atoms: C_14  and  C_15
REMARK    9  A    between atoms: C_21  and  C_22
REMARK                            x       y       z     vdW  Elec       q    Type
REMARK                         _______ _______ _______ _____ _____    ______ ____
ROOT
ATOM      1  C   UNL     1       4.019   6.575  16.789  0.00  0.00    +0.000 C 
ATOM      2  C   UNL     1       3.942   8.038  17.295  0.00  0.00    +0.000 C 
ATOM      3  C   UNL     1       2.514   8.228  17.874  0.00  0.00    +0.000 C 
ATOM      4  C   UNL     1       2.452   7.408  19.176  0.00  0.00    +0.000 C 
ATOM      5  C   UNL     1       1.209   7.695  20.036  0.00  0.00    +0.000 C 
ATOM      6  C   UNL     1       0.967   9.183  20.199  0.00  0.00    +0.000 C 
ATOM      7  C   UNL     1       0.709   9.833  18.839  0.00  0.00    +0.000 C 
ATOM      8  C   UNL     1      -0.604   9.348  18.213  0.00  0.00    +0.000 C 
ATOM      9  C   UNL     1       0.669  11.347  18.989  0.00  0.00    +0.000 C 
ATOM     10  O   UNL     1      -0.189  11.958  19.615  0.00  0.00    +0.000 OA
ATOM     11  C   UNL     1       1.783  12.005  18.223  0.00  0.00    +0.000 C 
ATOM     12  C   UNL     1       2.807  10.865  18.167  0.00  0.00    +0.000 C 
ATOM     13  C   UNL     1       1.919   9.652  17.879  0.00  0.00    +0.000 C 
ATOM     14  C   UNL     1       2.616   5.866  18.876  0.00  0.00    +0.000 C 
ATOM     15  C   UNL     1       2.895   5.183  20.257  0.00  0.00    +0.000 C 
ATOM     16  C   UNL     1       1.382   5.207  18.277  0.00  0.00    +0.000 C 
ATOM     17  C   UNL     1       1.457   3.917  17.897  0.00  0.00    +0.000 C 
ATOM     18  C   UNL     1       2.804   3.277  17.871  0.00  0.00    +0.000 C 
ATOM     19  O   UNL     1       2.936   2.066  17.877  0.00  0.00    +0.000 OA
ATOM     20  C   UNL     1       3.943   4.209  17.600  0.00  0.00    +0.000 C 
ATOM     21  C   UNL     1       3.727   5.522  17.863  0.00  0.00    +0.000 C 
ENDROOT
BRANCH   1  22
ATOM     22  C   UNL     1       5.145   6.289  15.784  0.00  0.00    +0.000 C 
BRANCH  22  23
ATOM     23  C   UNL     1       6.441   5.926  16.520  0.00  0.00    +0.000 C 
BRANCH  23  24
ATOM     24  C   UNL     1       7.191   4.850  15.750  0.00  0.00    +0.000 C 
BRANCH  24  25
ATOM     25  C   UNL     1       6.480   4.497  14.452  0.00  0.00    +0.000 C 
BRANCH  25  26
ATOM     26  C   UNL     1       7.407   4.824  13.282  0.00  0.00    +0.000 C 
BRANCH  26  28
ATOM     27  C   UNL     1       5.750   3.244  12.295  0.00  0.00    +0.000 C 
ATOM     28  C   UNL     1       6.992   4.082  12.029  0.00  0.00    +0.000 C 
ENDBRANCH  26  28
ENDBRANCH  25  26
ENDBRANCH  24  25
ENDBRANCH  23  24
ENDBRANCH  22  23
ENDBRANCH   1  22
TORSDOF 6
ENDMDL
MODEL 8
REMARK VINA RESULT:      -7.0      3.246      7.652
REMARK  Name = 
REMARK  9 active torsions:
REMARK  status: ('A' for Active; 'I' for Inactive)
REMARK    1  A    between atoms: C_1  and  C_2
REMARK    2  A    between atoms: C_2  and  C_3
REMARK    3  A    between atoms: C_3  and  C_4
REMARK    4  A    between atoms: C_4  and  C_5
REMARK    5  A    between atoms: C_5  and  C_6
REMARK    6  A    between atoms: C_6  and  C_7
REMARK    7  A    between atoms: C_7  and  C_8
REMARK    8  A    between atoms: C_14  and  C_15
REMARK    9  A    between atoms: C_21  and  C_22
REMARK                            x       y       z     vdW  Elec       q    Type
REMARK                         _______ _______ _______ _____ _____    ______ ____
ROOT
ATOM      1  C   UNL     1       4.355   6.316  16.859  0.00  0.00    +0.000 C 
ATOM      2  C   UNL     1       4.243   7.783  17.343  0.00  0.00    +0.000 C 
ATOM      3  C   UNL     1       2.774   7.984  17.802  0.00  0.00    +0.000 C 
ATOM      4  C   UNL     1       2.603   7.177  19.103  0.00  0.00    +0.000 C 
ATOM      5  C   UNL     1       1.295   7.477  19.856  0.00  0.00    +0.000 C 
ATOM      6  C   UNL     1       1.047   8.968  19.984  0.00  0.00    +0.000 C 
ATOM      7  C   UNL     1       0.902   9.604  18.601  0.00  0.00    +0.000 C 
ATOM      8  C   UNL     1      -0.357   9.117  17.876  0.00  0.00    +0.000 C 
ATOM      9  C   UNL     1       0.857  11.120  18.732  0.00  0.00    +0.000 C 
ATOM     10  O   UNL     1      -0.046  11.741  19.280  0.00  0.00    +0.000 OA
ATOM     11  C   UNL     1       2.032  11.767  18.053  0.00  0.00    +0.000 C 
ATOM     12  C   UNL     1       3.052  10.623  18.092  0.00  0.00    +0.000 C 
ATOM     13  C   UNL     1       2.186   9.409  17.744  0.00  0.00    +0.000 C 
ATOM     14  C   UNL     1       2.785   5.632  18.833  0.00  0.00    +0.000 C 
ATOM     15  C   UNL     1       2.948   4.962  20.238  0.00  0.00    +0.000 C 
ATOM     16  C   UNL     1       1.600   4.971  18.142  0.00  0.00    +0.000 C 
ATOM     17  C   UNL     1       1.701   3.677  17.782  0.00  0.00    +0.000 C 
ATOM     18  C   UNL     1       3.043   3.032  17.872  0.00  0.00    +0.000 C 
ATOM     19  O   UNL     1       3.169   1.821  17.900  0.00  0.00    +0.000 OA
ATOM     20  C   UNL     1       4.204   3.958  17.685  0.00  0.00    +0.000 C 
ATOM     21  C   UNL     1       3.972   5.274  17.916  0.00  0.00    +0.000 C 
ENDROOT
BRANCH   1  22
ATOM     22  C   UNL     1       5.557   6.016  15.952  0.00  0.00    +0.000 C 
BRANCH  22  23
ATOM     23  C   UNL     1       5.151   5.060  14.822  0.00  0.00    +0.000 C 
BRANCH  23  24
ATOM     24  C   UNL     1       6.302   4.120  14.499  0.00  0.00    +0.000 C 
BRANCH  24  25
ATOM     25  C   UNL     1       6.243   3.646  13.053  0.00  0.00    +0.000 C 
BRANCH  25  26
ATOM     26  C   UNL     1       4.792   3.704  12.578  0.00  0.00    +0.000 C 
BRANCH  26  28
ATOM     27  C   UNL     1       3.386   3.436  10.537  0.00  0.00    +0.000 C 
ATOM     28  C   UNL     1       4.602   2.923  11.295  0.00  0.00    +0.000 C 
ENDBRANCH  26  28
ENDBRANCH  25  26
ENDBRANCH  24  25
ENDBRANCH  23  24
ENDBRANCH  22  23
ENDBRANCH   1  22
TORSDOF 6
ENDMDL
MODEL 9
REMARK VINA RESULT:      -6.9      9.009     12.683
REMARK  Name = 
REMARK  9 active torsions:
REMARK  status: ('A' for Active; 'I' for Inactive)
REMARK    1  A    between atoms: C_1  and  C_2
REMARK    2  A    between atoms: C_2  and  C_3
REMARK    3  A    between atoms: C_3  and  C_4
REMARK    4  A    between atoms: C_4  and  C_5
REMARK    5  A    between atoms: C_5  and  C_6
REMARK    6  A    between atoms: C_6  and  C_7
REMARK    7  A    between atoms: C_7  and  C_8
REMARK    8  A    between atoms: C_14  and  C_15
REMARK    9  A    between atoms: C_21  and  C_22
REMARK                            x       y       z     vdW  Elec       q    Type
REMARK                         _______ _______ _______ _____ _____    ______ ____
ROOT
ATOM      1  C   UNL     1      10.540  13.369  20.669  0.00  0.00    +0.000 C 
ATOM      2  C   UNL     1       9.406  12.566  21.352  0.00  0.00    +0.000 C 
ATOM      3  C   UNL     1       8.661  13.560  22.283  0.00  0.00    +0.000 C 
ATOM      4  C   UNL     1       7.893  14.532  21.368  0.00  0.00    +0.000 C 
ATOM      5  C   UNL     1       6.876  15.416  22.111  0.00  0.00    +0.000 C 
ATOM      6  C   UNL     1       6.014  14.607  23.061  0.00  0.00    +0.000 C 
ATOM      7  C   UNL     1       6.879  13.951  24.137  0.00  0.00    +0.000 C 
ATOM      8  C   UNL     1       7.520  14.987  25.068  0.00  0.00    +0.000 C 
ATOM      9  C   UNL     1       6.038  12.985  24.959  0.00  0.00    +0.000 C 
ATOM     10  O   UNL     1       5.114  13.321  25.691  0.00  0.00    +0.000 OA
ATOM     11  C   UNL     1       6.518  11.568  24.806  0.00  0.00    +0.000 C 
ATOM     12  C   UNL     1       7.204  11.644  23.437  0.00  0.00    +0.000 C 
ATOM     13  C   UNL     1       7.932  12.988  23.517  0.00  0.00    +0.000 C 
ATOM     14  C   UNL     1       8.892  15.390  20.497  0.00  0.00    +0.000 C 
ATOM     15  C   UNL     1       8.026  16.062  19.379  0.00  0.00    +0.000 C 
ATOM     16  C   UNL     1       9.599  16.501  21.262  0.00  0.00    +0.000 C 
ATOM     17  C   UNL     1      10.542  17.224  20.629  0.00  0.00    +0.000 C 
ATOM     18  C   UNL     1      11.002  16.748  19.291  0.00  0.00    +0.000 C 
ATOM     19  O   UNL     1      11.575  17.489  18.513  0.00  0.00    +0.000 OA
ATOM     20  C   UNL     1      10.922  15.268  19.084  0.00  0.00    +0.000 C 
ATOM     21  C   UNL     1      10.057  14.591  19.879  0.00  0.00    +0.000 C 
ENDROOT
BRANCH   1  22
ATOM     22  C   UNL     1      11.672  12.523  20.068  0.00  0.00    +0.000 C 
BRANCH  22  23
ATOM     23  C   UNL     1      11.104  11.263  19.401  0.00  0.00    +0.000 C 
BRANCH  23  24
ATOM     24  C   UNL     1      10.514  11.616  18.044  0.00  0.00    +0.000 C 
BRANCH  24  25
ATOM     25  C   UNL     1       9.049  11.216  17.953  0.00  0.00    +0.000 C 
BRANCH  25  26
ATOM     26  C   UNL     1       8.869   9.861  18.637  0.00  0.00    +0.000 C 
BRANCH  26  28
ATOM     27  C   UNL     1       8.107   7.507  18.332  0.00  0.00    +0.000 C 
ATOM     28  C   UNL     1       8.023   8.929  17.795  0.00  0.00    +0.000 C 
ENDBRANCH  26  28
ENDBRANCH  25  26
ENDBRANCH  24  25
ENDBRANCH  23  24
ENDBRANCH  22  23
ENDBRANCH   1  22
TORSDOF 6
ENDMDL
