MODEL 1
REMARK VINA RESULT:      -7.7      0.000      0.000
REMARK  Name = 
REMARK  2 active torsions:
REMARK  status: ('A' for Active; 'I' for Inactive)
REMARK    1  A    between atoms: C_2  and  O_3
REMARK    2  A    between atoms: C_2  and  C_4
REMARK                            x       y       z     vdW  Elec       q    Type
REMARK                         _______ _______ _______ _____ _____    ______ ____
ROOT
ATOM      1  C   UNL     1       3.302   3.489  19.629  0.00  0.00    +0.000 A 
ATOM      2  C   UNL     1       2.586   3.277  18.436  0.00  0.00    +0.000 A 
ATOM      3  C   UNL     1       3.195   3.468  17.190  0.00  0.00    +0.000 A 
ATOM      4  C   UNL     1       4.502   3.951  17.136  0.00  0.00    +0.000 A 
ATOM      5  C   UNL     1       5.183   4.187  18.345  0.00  0.00    +0.000 A 
ATOM      6  C   UNL     1       4.641   3.876  19.582  0.00  0.00    +0.000 A 
ATOM      7  N   UNL     1       6.298   4.988  18.213  0.00  0.00    +0.000 N 
ATOM      8  C   UNL     1       7.150   5.587  19.071  0.00  0.00    +0.000 C 
ATOM      9  O   UNL     1       7.474   5.341  20.206  0.00  0.00    +0.000 OA
ATOM     10  C   UNL     1       7.411   6.711  18.024  0.00  0.00    +0.000 C 
ATOM     11  C   UNL     1       6.239   6.072  17.233  0.00  0.00    +0.000 C 
ATOM     12  C   UNL     1       6.247   5.415  15.866  0.00  0.00    +0.000 C 
ATOM     13  C   UNL     1       5.228   4.234  15.825  0.00  0.00    +0.000 C 
ATOM     14  F   UNL     1       5.929   3.127  15.421  0.00  0.00    +0.000 F 
ENDROOT
BRANCH   1  16
ATOM     15  O   UNL     1       2.938   2.606  21.800  0.00  0.00    +0.000 OA
ATOM     16  C   UNL     1       2.580   3.356  20.915  0.00  0.00    +0.000 C 
BRANCH  16  17
ATOM     17  O   UNL     1       1.444   4.081  20.987  0.00  0.00    +0.000 OA
ATOM     18  H   UNL     1       0.793   3.806  21.655  0.00  0.00    +0.000 HD
ENDBRANCH  16  17
ENDBRANCH   1  16
TORSDOF 2
ENDMDL
MODEL 2
REMARK VINA RESULT:      -7.5      3.177      5.531
REMARK  Name = 
REMARK  2 active torsions:
REMARK  status: ('A' for Active; 'I' for Inactive)
REMARK    1  A    between atoms: C_2  and  O_3
REMARK    2  A    between atoms: C_2  and  C_4
REMARK                            x       y       z     vdW  Elec       q    Type
REMARK                         _______ _______ _______ _____ _____    ______ ____
ROOT
ATOM      1  C   UNL     1       5.726   4.964  15.880  0.00  0.00    +0.000 A 
ATOM      2  C   UNL     1       5.337   6.313  15.977  0.00  0.00    +0.000 A 
ATOM      3  C   UNL     1       4.397   6.722  16.931  0.00  0.00    +0.000 A 
ATOM      4  C   UNL     1       3.783   5.766  17.739  0.00  0.00    +0.000 A 
ATOM      5  C   UNL     1       4.167   4.419  17.598  0.00  0.00    +0.000 A 
ATOM      6  C   UNL     1       5.190   4.017  16.753  0.00  0.00    +0.000 A 
ATOM      7  N   UNL     1       3.277   3.522  18.151  0.00  0.00    +0.000 N 
ATOM      8  C   UNL     1       3.143   2.179  18.139  0.00  0.00    +0.000 C 
ATOM      9  O   UNL     1       3.931   1.281  17.975  0.00  0.00    +0.000 OA
ATOM     10  C   UNL     1       1.603   2.333  18.316  0.00  0.00    +0.000 C 
ATOM     11  C   UNL     1       1.854   3.845  18.070  0.00  0.00    +0.000 C 
ATOM     12  C   UNL     1       1.626   5.020  19.001  0.00  0.00    +0.000 C 
ATOM     13  C   UNL     1       2.716   6.113  18.772  0.00  0.00    +0.000 C 
ATOM     14  F   UNL     1       3.294   6.352  19.991  0.00  0.00    +0.000 F 
ENDROOT
BRANCH   1  16
ATOM     15  O   UNL     1       7.595   5.266  14.452  0.00  0.00    +0.000 OA
ATOM     16  C   UNL     1       6.656   4.577  14.796  0.00  0.00    +0.000 C 
BRANCH  16  17
ATOM     17  O   UNL     1       6.323   3.429  14.168  0.00  0.00    +0.000 OA
ATOM     18  H   UNL     1       6.778   2.622  14.465  0.00  0.00    +0.000 HD
ENDBRANCH  16  17
ENDBRANCH   1  16
TORSDOF 2
ENDMDL
MODEL 3
REMARK VINA RESULT:      -7.5      2.783      5.201
REMARK  Name = 
REMARK  2 active torsions:
REMARK  status: ('A' for Active; 'I' for Inactive)
REMARK    1  A    between atoms: C_2  and  O_3
REMARK    2  A    between atoms: C_2  and  C_4
REMARK                            x       y       z     vdW  Elec       q    Type
REMARK                         _______ _______ _______ _____ _____    ______ ____
ROOT
ATOM      1  C   UNL     1       6.077   5.118  17.352  0.00  0.00    +0.000 A 
ATOM      2  C   UNL     1       5.329   6.206  16.865  0.00  0.00    +0.000 A 
ATOM      3  C   UNL     1       4.105   6.553  17.448  0.00  0.00    +0.000 A 
ATOM      4  C   UNL     1       3.586   5.760  18.472  0.00  0.00    +0.000 A 
ATOM      5  C   UNL     1       4.340   4.658  18.916  0.00  0.00    +0.000 A 
ATOM      6  C   UNL     1       5.613   4.380  18.441  0.00  0.00    +0.000 A 
ATOM      7  N   UNL     1       3.614   3.741  19.647  0.00  0.00    +0.000 N 
ATOM      8  C   UNL     1       3.853   2.506  20.137  0.00  0.00    +0.000 C 
ATOM      9  O   UNL     1       4.868   1.931  20.442  0.00  0.00    +0.000 OA
ATOM     10  C   UNL     1       2.335   2.171  20.028  0.00  0.00    +0.000 C 
ATOM     11  C   UNL     1       2.225   3.511  19.253  0.00  0.00    +0.000 C 
ATOM     12  C   UNL     1       1.462   4.771  19.617  0.00  0.00    +0.000 C 
ATOM     13  C   UNL     1       2.240   6.034  19.133  0.00  0.00    +0.000 C 
ATOM     14  F   UNL     1       2.405   6.837  20.232  0.00  0.00    +0.000 F 
ENDROOT
BRANCH   1  16
ATOM     15  O   UNL     1       7.499   4.967  15.460  0.00  0.00    +0.000 OA
ATOM     16  C   UNL     1       7.320   4.744  16.640  0.00  0.00    +0.000 C 
BRANCH  16  17
ATOM     17  O   UNL     1       8.205   4.062  17.397  0.00  0.00    +0.000 OA
ATOM     18  H   UNL     1       9.020   3.767  16.955  0.00  0.00    +0.000 HD
ENDBRANCH  16  17
ENDBRANCH   1  16
TORSDOF 2
ENDMDL
MODEL 4
REMARK VINA RESULT:      -7.2      2.396      4.753
REMARK  Name = 
REMARK  2 active torsions:
REMARK  status: ('A' for Active; 'I' for Inactive)
REMARK    1  A    between atoms: C_2  and  O_3
REMARK    2  A    between atoms: C_2  and  C_4
REMARK                            x       y       z     vdW  Elec       q    Type
REMARK                         _______ _______ _______ _____ _____    ______ ____
ROOT
ATOM      1  C   UNL     1       6.341   5.832  18.663  0.00  0.00    +0.000 A 
ATOM      2  C   UNL     1       5.660   6.536  17.653  0.00  0.00    +0.000 A 
ATOM      3  C   UNL     1       4.367   6.165  17.266  0.00  0.00    +0.000 A 
ATOM      4  C   UNL     1       3.782   5.034  17.836  0.00  0.00    +0.000 A 
ATOM      5  C   UNL     1       4.500   4.329  18.820  0.00  0.00    +0.000 A 
ATOM      6  C   UNL     1       5.723   4.761  19.308  0.00  0.00    +0.000 A 
ATOM      7  N   UNL     1       4.024   3.056  19.056  0.00  0.00    +0.000 N 
ATOM      8  C   UNL     1       4.453   1.993  19.769  0.00  0.00    +0.000 C 
ATOM      9  O   UNL     1       5.173   1.892  20.732  0.00  0.00    +0.000 OA
ATOM     10  C   UNL     1       3.727   1.036  18.777  0.00  0.00    +0.000 C 
ATOM     11  C   UNL     1       3.505   2.306  17.913  0.00  0.00    +0.000 C 
ATOM     12  C   UNL     1       2.207   2.981  17.512  0.00  0.00    +0.000 C 
ATOM     13  C   UNL     1       2.398   4.528  17.443  0.00  0.00    +0.000 C 
ATOM     14  F   UNL     1       1.442   5.077  18.257  0.00  0.00    +0.000 F 
ENDROOT
BRANCH   1  16
ATOM     15  O   UNL     1       8.283   7.180  18.470  0.00  0.00    +0.000 OA
ATOM     16  C   UNL     1       7.738   6.216  18.967  0.00  0.00    +0.000 C 
BRANCH  16  17
ATOM     17  O   UNL     1       8.381   5.354  19.784  0.00  0.00    +0.000 OA
ATOM     18  H   UNL     1       9.348   5.304  19.691  0.00  0.00    +0.000 HD
ENDBRANCH  16  17
ENDBRANCH   1  16
TORSDOF 2
ENDMDL
MODEL 5
REMARK VINA RESULT:      -7.1      3.352      5.613
REMARK  Name = 
REMARK  2 active torsions:
REMARK  status: ('A' for Active; 'I' for Inactive)
REMARK    1  A    between atoms: C_2  and  O_3
REMARK    2  A    between atoms: C_2  and  C_4
REMARK                            x       y       z     vdW  Elec       q    Type
REMARK                         _______ _______ _______ _____ _____    ______ ____
ROOT
ATOM      1  C   UNL     1       4.529   5.726  17.052  0.00  0.00    +0.000 A 
ATOM      2  C   UNL     1       3.924   6.883  17.575  0.00  0.00    +0.000 A 
ATOM      3  C   UNL     1       3.049   6.805  18.665  0.00  0.00    +0.000 A 
ATOM      4  C   UNL     1       2.714   5.555  19.185  0.00  0.00    +0.000 A 
ATOM      5  C   UNL     1       3.309   4.411  18.621  0.00  0.00    +0.000 A 
ATOM      6  C   UNL     1       4.278   4.482  17.631  0.00  0.00    +0.000 A 
ATOM      7  N   UNL     1       2.665   3.233  18.934  0.00  0.00    +0.000 N 
ATOM      8  C   UNL     1       2.768   1.950  18.526  0.00  0.00    +0.000 C 
ATOM      9  O   UNL     1       3.677   1.316  18.049  0.00  0.00    +0.000 OA
ATOM     10  C   UNL     1       1.258   1.730  18.837  0.00  0.00    +0.000 C 
ATOM     11  C   UNL     1       1.207   3.268  19.043  0.00  0.00    +0.000 C 
ATOM     12  C   UNL     1       0.891   4.060  20.297  0.00  0.00    +0.000 C 
ATOM     13  C   UNL     1       1.735   5.371  20.339  0.00  0.00    +0.000 C 
ATOM     14  F   UNL     1       2.405   5.367  21.535  0.00  0.00    +0.000 F 
ENDROOT
BRANCH   1  16
ATOM     15  O   UNL     1       6.246   5.064  15.556  0.00  0.00    +0.000 OA
ATOM     16  C   UNL     1       5.375   5.859  15.845  0.00  0.00    +0.000 C 
BRANCH  16  17
ATOM     17  O   UNL     1       5.150   6.985  15.136  0.00  0.00    +0.000 OA
ATOM     18  H   UNL     1       4.394   6.971  14.524  0.00  0.00    +0.000 HD
ENDBRANCH  16  17
ENDBRANCH   1  16
TORSDOF 2
ENDMDL
MODEL 6
REMARK VINA RESULT:      -6.9      3.340      5.194
REMARK  Name = 
REMARK  2 active torsions:
REMARK  status: ('A' for Active; 'I' for Inactive)
REMARK    1  A    between atoms: C_2  and  O_3
REMARK    2  A    between atoms: C_2  and  C_4
REMARK                            x       y       z     vdW  Elec       q    Type
REMARK                         _______ _______ _______ _____ _____    ______ ____
ROOT
ATOM      1  C   UNL     1       5.369   5.213  16.579  0.00  0.00    +0.000 A 
ATOM      2  C   UNL     1       5.297   3.847  16.911  0.00  0.00    +0.000 A 
ATOM      3  C   UNL     1       4.204   3.338  17.622  0.00  0.00    +0.000 A 
ATOM      4  C   UNL     1       3.216   4.213  18.075  0.00  0.00    +0.000 A 
ATOM      5  C   UNL     1       3.331   5.579  17.758  0.00  0.00    +0.000 A 
ATOM      6  C   UNL     1       4.335   6.077  16.942  0.00  0.00    +0.000 A 
ATOM      7  N   UNL     1       2.539   6.402  18.531  0.00  0.00    +0.000 N 
ATOM      8  C   UNL     1       2.422   7.738  18.694  0.00  0.00    +0.000 C 
ATOM      9  O   UNL     1       2.676   8.673  17.976  0.00  0.00    +0.000 OA
ATOM     10  C   UNL     1       1.944   7.516  20.160  0.00  0.00    +0.000 C 
ATOM     11  C   UNL     1       2.351   6.035  19.934  0.00  0.00    +0.000 C 
ATOM     12  C   UNL     1       1.484   4.789  19.937  0.00  0.00    +0.000 C 
ATOM     13  C   UNL     1       2.015   3.756  18.896  0.00  0.00    +0.000 C 
ATOM     14  F   UNL     1       0.963   3.454  18.073  0.00  0.00    +0.000 F 
ENDROOT
BRANCH   1  16
ATOM     15  O   UNL     1       7.447   6.351  16.474  0.00  0.00    +0.000 OA
ATOM     16  C   UNL     1       6.589   5.709  15.903  0.00  0.00    +0.000 C 
BRANCH  16  17
ATOM     17  O   UNL     1       6.627   5.454  14.578  0.00  0.00    +0.000 OA
ATOM     18  H   UNL     1       6.304   4.583  14.292  0.00  0.00    +0.000 HD
ENDBRANCH  16  17
ENDBRANCH   1  16
TORSDOF 2
ENDMDL
MODEL 7
REMARK VINA RESULT:      -6.9      2.654      3.284
REMARK  Name = 
REMARK  2 active torsions:
REMARK  status: ('A' for Active; 'I' for Inactive)
REMARK    1  A    between atoms: C_2  and  O_3
REMARK    2  A    between atoms: C_2  and  C_4
REMARK                            x       y       z     vdW  Elec       q    Type
REMARK                         _______ _______ _______ _____ _____    ______ ____
ROOT
ATOM      1  C   UNL     1       2.572   3.582  20.535  0.00  0.00    +0.000 A 
ATOM      2  C   UNL     1       3.602   2.821  19.950  0.00  0.00    +0.000 A 
ATOM      3  C   UNL     1       4.619   3.438  19.212  0.00  0.00    +0.000 A 
ATOM      4  C   UNL     1       4.562   4.814  18.989  0.00  0.00    +0.000 A 
ATOM      5  C   UNL     1       3.502   5.545  19.557  0.00  0.00    +0.000 A 
ATOM      6  C   UNL     1       2.564   4.970  20.400  0.00  0.00    +0.000 A 
ATOM      7  N   UNL     1       3.320   6.793  18.998  0.00  0.00    +0.000 N 
ATOM      8  C   UNL     1       2.382   7.758  19.103  0.00  0.00    +0.000 C 
ATOM      9  O   UNL     1       1.597   8.043  19.973  0.00  0.00    +0.000 OA
ATOM     10  C   UNL     1       2.697   8.219  17.648  0.00  0.00    +0.000 C 
ATOM     11  C   UNL     1       3.561   6.933  17.563  0.00  0.00    +0.000 C 
ATOM     12  C   UNL     1       5.059   6.793  17.365  0.00  0.00    +0.000 C 
ATOM     13  C   UNL     1       5.599   5.563  18.158  0.00  0.00    +0.000 C 
ATOM     14  F   UNL     1       6.607   6.028  18.962  0.00  0.00    +0.000 F 
ENDROOT
BRANCH   1  16
ATOM     15  O   UNL     1       1.617   2.332  22.310  0.00  0.00    +0.000 OA
ATOM     16  C   UNL     1       1.478   2.867  21.229  0.00  0.00    +0.000 C 
BRANCH  16  17
ATOM     17  O   UNL     1       0.332   2.790  20.519  0.00  0.00    +0.000 OA
ATOM     18  H   UNL     1      -0.458   3.189  20.923  0.00  0.00    +0.000 HD
ENDBRANCH  16  17
ENDBRANCH   1  16
TORSDOF 2
ENDMDL
MODEL 8
REMARK VINA RESULT:      -6.9      3.486      5.388
REMARK  Name = 
REMARK  2 active torsions:
REMARK  status: ('A' for Active; 'I' for Inactive)
REMARK    1  A    between atoms: C_2  and  O_3
REMARK    2  A    between atoms: C_2  and  C_4
REMARK                            x       y       z     vdW  Elec       q    Type
REMARK                         _______ _______ _______ _____ _____    ______ ____
ROOT
ATOM      1  C   UNL     1       5.768   5.763  17.369  0.00  0.00    +0.000 A 
ATOM      2  C   UNL     1       5.906   4.605  18.156  0.00  0.00    +0.000 A 
ATOM      3  C   UNL     1       4.849   4.147  18.951  0.00  0.00    +0.000 A 
ATOM      4  C   UNL     1       3.674   4.894  19.022  0.00  0.00    +0.000 A 
ATOM      5  C   UNL     1       3.575   6.067  18.249  0.00  0.00    +0.000 A 
ATOM      6  C   UNL     1       4.561   6.461  17.358  0.00  0.00    +0.000 A 
ATOM      7  N   UNL     1       2.564   6.916  18.648  0.00  0.00    +0.000 N 
ATOM      8  C   UNL     1       2.189   8.173  18.324  0.00  0.00    +0.000 C 
ATOM      9  O   UNL     1       2.351   8.844  17.336  0.00  0.00    +0.000 OA
ATOM     10  C   UNL     1       1.593   8.360  19.751  0.00  0.00    +0.000 C 
ATOM     11  C   UNL     1       2.284   7.009  20.079  0.00  0.00    +0.000 C 
ATOM     12  C   UNL     1       1.662   5.685  20.481  0.00  0.00    +0.000 C 
ATOM     13  C   UNL     1       2.488   4.498  19.895  0.00  0.00    +0.000 C 
ATOM     14  F   UNL     1       1.610   3.724  19.183  0.00  0.00    +0.000 F 
ENDROOT
BRANCH   1  16
ATOM     15  O   UNL     1       7.487   5.602  15.744  0.00  0.00    +0.000 OA
ATOM     16  C   UNL     1       6.948   6.248  16.619  0.00  0.00    +0.000 C 
BRANCH  16  17
ATOM     17  O   UNL     1       7.423   7.437  17.046  0.00  0.00    +0.000 OA
ATOM     18  H   UNL     1       6.809   7.995  17.555  0.00  0.00    +0.000 HD
ENDBRANCH  16  17
ENDBRANCH   1  16
TORSDOF 2
ENDMDL
MODEL 9
REMARK VINA RESULT:      -6.8      2.334      4.943
REMARK  Name = 
REMARK  2 active torsions:
REMARK  status: ('A' for Active; 'I' for Inactive)
REMARK    1  A    between atoms: C_2  and  O_3
REMARK    2  A    between atoms: C_2  and  C_4
REMARK                            x       y       z     vdW  Elec       q    Type
REMARK                         _______ _______ _______ _____ _____    ______ ____
ROOT
ATOM      1  C   UNL     1       6.494   5.252  18.500  0.00  0.00    +0.000 A 
ATOM      2  C   UNL     1       6.135   6.260  17.586  0.00  0.00    +0.000 A 
ATOM      3  C   UNL     1       4.791   6.584  17.367  0.00  0.00    +0.000 A 
ATOM      4  C   UNL     1       3.796   5.843  18.004  0.00  0.00    +0.000 A 
ATOM      5  C   UNL     1       4.184   4.817  18.887  0.00  0.00    +0.000 A 
ATOM      6  C   UNL     1       5.508   4.573  19.216  0.00  0.00    +0.000 A 
ATOM      7  N   UNL     1       3.178   3.919  19.178  0.00  0.00    +0.000 N 
ATOM      8  C   UNL     1       3.111   2.738  19.828  0.00  0.00    +0.000 C 
ATOM      9  O   UNL     1       3.791   2.241  20.691  0.00  0.00    +0.000 OA
ATOM     10  C   UNL     1       1.906   2.316  18.935  0.00  0.00    +0.000 C 
ATOM     11  C   UNL     1       2.237   3.588  18.109  0.00  0.00    +0.000 C 
ATOM     12  C   UNL     1       1.397   4.829  17.878  0.00  0.00    +0.000 C 
ATOM     13  C   UNL     1       2.307   6.093  17.789  0.00  0.00    +0.000 C 
ATOM     14  F   UNL     1       1.836   6.982  18.720  0.00  0.00    +0.000 F 
ENDROOT
BRANCH   1  16
ATOM     15  O   UNL     1       8.494   4.163  17.840  0.00  0.00    +0.000 OA
ATOM     16  C   UNL     1       7.924   4.894  18.625  0.00  0.00    +0.000 C 
BRANCH  16  17
ATOM     17  O   UNL     1       8.521   5.384  19.731  0.00  0.00    +0.000 OA
ATOM     18  H   UNL     1       7.934   5.705  20.437  0.00  0.00    +0.000 HD
ENDBRANCH  16  17
ENDBRANCH   1  16
TORSDOF 2
ENDMDL
