MODEL 1
REMARK VINA RESULT:      -7.4      0.000      0.000
REMARK  Name = 
REMARK  3 active torsions:
REMARK  status: ('A' for Active; 'I' for Inactive)
REMARK    1  A    between atoms: C_2  and  C_3
REMARK    2  A    between atoms: N_16  and  C_17
REMARK    3  A    between atoms: C_17  and  C_18
REMARK                            x       y       z     vdW  Elec       q    Type
REMARK                         _______ _______ _______ _____ _____    ______ ____
ROOT
ATOM      1  O   UNL     1       2.323   6.139  21.090  0.00  0.00    +0.000 OA
ATOM      2  C   UNL     1       2.573   6.442  19.927  0.00  0.00    +0.000 C 
ATOM      3  N   UNL     1       3.377   5.678  19.105  0.00  0.00    +0.000 N 
ATOM      4  C   UNL     1       3.910   4.388  19.556  0.00  0.00    +0.000 C 
ATOM      5  C   UNL     1       5.043   4.048  18.571  0.00  0.00    +0.000 C 
ATOM      6  O   UNL     1       6.268   4.550  19.130  0.00  0.00    +0.000 OA
ATOM      7  C   UNL     1       7.307   4.627  18.168  0.00  0.00    +0.000 C 
ATOM      8  C   UNL     1       6.984   5.380  16.876  0.00  0.00    +0.000 C 
ATOM      9  O   UNL     1       7.801   6.085  16.294  0.00  0.00    +0.000 OA
ATOM     10  N   UNL     1       5.730   5.062  16.359  0.00  0.00    +0.000 N 
ATOM     11  C   UNL     1       4.641   4.831  17.302  0.00  0.00    +0.000 C 
ATOM     12  C   UNL     1       4.111   6.125  17.928  0.00  0.00    +0.000 C 
ENDROOT
BRANCH   2  13
ATOM     13  C   UNL     1       1.932   7.661  19.374  0.00  0.00    +0.000 A 
ATOM     14  C   UNL     1       2.027   7.971  18.019  0.00  0.00    +0.000 A 
ATOM     15  C   UNL     1       1.456   9.153  17.547  0.00  0.00    +0.000 A 
ATOM     16  C   UNL     1       0.814   9.987  18.453  0.00  0.00    +0.000 A 
ATOM     17  N   UNL     1       0.736   9.733  19.775  0.00  0.00    +0.000 NA
ATOM     18  C   UNL     1       1.325   8.591  20.207  0.00  0.00    +0.000 A 
ENDBRANCH   2  13
BRANCH  10  19
ATOM     19  C   UNL     1       5.463   5.244  14.938  0.00  0.00    +0.000 C 
BRANCH  19  20
ATOM     20  C   UNL     1       5.805   4.059  14.094  0.00  0.00    +0.000 C 
ATOM     21  C   UNL     1       5.177   3.816  12.745  0.00  0.00    +0.000 C 
ATOM     22  C   UNL     1       6.606   4.270  12.831  0.00  0.00    +0.000 C 
ENDBRANCH  19  20
ENDBRANCH  10  19
TORSDOF 3
ENDMDL
MODEL 2
REMARK VINA RESULT:      -7.3      1.675      6.539
REMARK  Name = 
REMARK  3 active torsions:
REMARK  status: ('A' for Active; 'I' for Inactive)
REMARK    1  A    between atoms: C_2  and  C_3
REMARK    2  A    between atoms: N_16  and  C_17
REMARK    3  A    between atoms: C_17  and  C_18
REMARK                            x       y       z     vdW  Elec       q    Type
REMARK                         _______ _______ _______ _____ _____    ______ ____
ROOT
ATOM      1  O   UNL     1       8.262   4.102  17.043  0.00  0.00    +0.000 OA
ATOM      2  C   UNL     1       7.211   4.547  16.593  0.00  0.00    +0.000 C 
ATOM      3  N   UNL     1       6.209   5.066  17.390  0.00  0.00    +0.000 N 
ATOM      4  C   UNL     1       6.391   5.202  18.840  0.00  0.00    +0.000 C 
ATOM      5  C   UNL     1       4.977   5.415  19.410  0.00  0.00    +0.000 C 
ATOM      6  O   UNL     1       4.458   4.126  19.774  0.00  0.00    +0.000 OA
ATOM      7  C   UNL     1       3.053   4.144  19.963  0.00  0.00    +0.000 C 
ATOM      8  C   UNL     1       2.220   4.730  18.821  0.00  0.00    +0.000 C 
ATOM      9  O   UNL     1       1.129   4.278  18.492  0.00  0.00    +0.000 OA
ATOM     10  N   UNL     1       2.758   5.907  18.304  0.00  0.00    +0.000 N 
ATOM     11  C   UNL     1       4.210   6.012  18.210  0.00  0.00    +0.000 C 
ATOM     12  C   UNL     1       4.794   5.182  17.063  0.00  0.00    +0.000 C 
ENDROOT
BRANCH   2  13
ATOM     13  C   UNL     1       7.041   4.574  15.119  0.00  0.00    +0.000 A 
ATOM     14  C   UNL     1       6.173   3.691  14.480  0.00  0.00    +0.000 A 
ATOM     15  C   UNL     1       6.082   3.711  13.088  0.00  0.00    +0.000 A 
ATOM     16  C   UNL     1       6.870   4.613  12.385  0.00  0.00    +0.000 A 
ATOM     17  N   UNL     1       7.745   5.455  12.972  0.00  0.00    +0.000 NA
ATOM     18  C   UNL     1       7.831   5.391  14.322  0.00  0.00    +0.000 A 
ENDBRANCH   2  13
BRANCH  10  19
ATOM     19  C   UNL     1       1.894   6.861  17.620  0.00  0.00    +0.000 C 
BRANCH  19  20
ATOM     20  C   UNL     1       2.178   8.291  17.949  0.00  0.00    +0.000 C 
ATOM     21  C   UNL     1       1.146   9.379  17.796  0.00  0.00    +0.000 C 
ATOM     22  C   UNL     1       1.529   8.903  19.168  0.00  0.00    +0.000 C 
ENDBRANCH  19  20
ENDBRANCH  10  19
TORSDOF 3
ENDMDL
MODEL 3
REMARK VINA RESULT:      -7.3      2.554      5.026
REMARK  Name = 
REMARK  3 active torsions:
REMARK  status: ('A' for Active; 'I' for Inactive)
REMARK    1  A    between atoms: C_2  and  C_3
REMARK    2  A    between atoms: N_16  and  C_17
REMARK    3  A    between atoms: C_17  and  C_18
REMARK                            x       y       z     vdW  Elec       q    Type
REMARK                         _______ _______ _______ _____ _____    ______ ____
ROOT
ATOM      1  O   UNL     1       3.806   1.032  17.952  0.00  0.00    +0.000 OA
ATOM      2  C   UNL     1       3.604   2.195  18.287  0.00  0.00    +0.000 C 
ATOM      3  N   UNL     1       4.032   3.278  17.545  0.00  0.00    +0.000 N 
ATOM      4  C   UNL     1       4.683   3.093  16.243  0.00  0.00    +0.000 C 
ATOM      5  C   UNL     1       5.359   4.441  15.931  0.00  0.00    +0.000 C 
ATOM      6  O   UNL     1       6.709   4.370  16.417  0.00  0.00    +0.000 OA
ATOM      7  C   UNL     1       7.312   5.650  16.521  0.00  0.00    +0.000 C 
ATOM      8  C   UNL     1       6.535   6.706  17.309  0.00  0.00    +0.000 C 
ATOM      9  O   UNL     1       7.081   7.534  18.029  0.00  0.00    +0.000 OA
ATOM     10  N   UNL     1       5.175   6.721  17.005  0.00  0.00    +0.000 N 
ATOM     11  C   UNL     1       4.518   5.445  16.748  0.00  0.00    +0.000 C 
ATOM     12  C   UNL     1       4.275   4.633  18.025  0.00  0.00    +0.000 C 
ENDROOT
BRANCH   2  13
ATOM     13  C   UNL     1       2.815   2.436  19.520  0.00  0.00    +0.000 A 
ATOM     14  C   UNL     1       1.488   2.857  19.454  0.00  0.00    +0.000 A 
ATOM     15  C   UNL     1       0.796   3.124  20.636  0.00  0.00    +0.000 A 
ATOM     16  C   UNL     1       1.462   2.964  21.844  0.00  0.00    +0.000 A 
ATOM     17  N   UNL     1       2.756   2.593  21.940  0.00  0.00    +0.000 NA
ATOM     18  C   UNL     1       3.408   2.369  20.774  0.00  0.00    +0.000 A 
ENDBRANCH   2  13
BRANCH  10  19
ATOM     19  C   UNL     1       4.396   7.933  17.225  0.00  0.00    +0.000 C 
BRANCH  19  20
ATOM     20  C   UNL     1       2.940   7.690  17.460  0.00  0.00    +0.000 C 
ATOM     21  C   UNL     1       2.314   7.773  18.829  0.00  0.00    +0.000 C 
ATOM     22  C   UNL     1       2.054   8.858  17.824  0.00  0.00    +0.000 C 
ENDBRANCH  19  20
ENDBRANCH  10  19
TORSDOF 3
ENDMDL
MODEL 4
REMARK VINA RESULT:      -7.2      0.626      1.031
REMARK  Name = 
REMARK  3 active torsions:
REMARK  status: ('A' for Active; 'I' for Inactive)
REMARK    1  A    between atoms: C_2  and  C_3
REMARK    2  A    between atoms: N_16  and  C_17
REMARK    3  A    between atoms: C_17  and  C_18
REMARK                            x       y       z     vdW  Elec       q    Type
REMARK                         _______ _______ _______ _____ _____    ______ ____
ROOT
ATOM      1  O   UNL     1       2.360   6.243  21.033  0.00  0.00    +0.000 OA
ATOM      2  C   UNL     1       2.609   6.526  19.865  0.00  0.00    +0.000 C 
ATOM      3  N   UNL     1       3.372   5.724  19.040  0.00  0.00    +0.000 N 
ATOM      4  C   UNL     1       3.857   4.416  19.496  0.00  0.00    +0.000 C 
ATOM      5  C   UNL     1       4.965   4.023  18.501  0.00  0.00    +0.000 C 
ATOM      6  O   UNL     1       6.215   4.479  19.043  0.00  0.00    +0.000 OA
ATOM      7  C   UNL     1       7.246   4.506  18.070  0.00  0.00    +0.000 C 
ATOM      8  C   UNL     1       6.940   5.262  16.775  0.00  0.00    +0.000 C 
ATOM      9  O   UNL     1       7.778   5.929  16.179  0.00  0.00    +0.000 OA
ATOM     10  N   UNL     1       5.668   4.992  16.275  0.00  0.00    +0.000 N 
ATOM     11  C   UNL     1       4.581   4.812  17.231  0.00  0.00    +0.000 C 
ATOM     12  C   UNL     1       4.111   6.132  17.852  0.00  0.00    +0.000 C 
ENDROOT
BRANCH   2  13
ATOM     13  C   UNL     1       2.012   7.766  19.309  0.00  0.00    +0.000 A 
ATOM     14  C   UNL     1       1.242   8.612  20.104  0.00  0.00    +0.000 A 
ATOM     15  C   UNL     1       0.654   9.740  19.531  0.00  0.00    +0.000 A 
ATOM     16  C   UNL     1       0.855   9.977  18.177  0.00  0.00    +0.000 A 
ATOM     17  N   UNL     1       1.564   9.158  17.373  0.00  0.00    +0.000 NA
ATOM     18  C   UNL     1       2.099   8.057  17.954  0.00  0.00    +0.000 A 
ENDBRANCH   2  13
BRANCH  10  19
ATOM     19  C   UNL     1       5.392   5.174  14.855  0.00  0.00    +0.000 C 
BRANCH  19  20
ATOM     20  C   UNL     1       5.725   3.987  14.009  0.00  0.00    +0.000 C 
ATOM     21  C   UNL     1       5.171   3.802  12.619  0.00  0.00    +0.000 C 
ATOM     22  C   UNL     1       6.614   4.176  12.803  0.00  0.00    +0.000 C 
ENDBRANCH  19  20
ENDBRANCH  10  19
TORSDOF 3
ENDMDL
MODEL 5
REMARK VINA RESULT:      -6.9      3.237      6.652
REMARK  Name = 
REMARK  3 active torsions:
REMARK  status: ('A' for Active; 'I' for Inactive)
REMARK    1  A    between atoms: C_2  and  C_3
REMARK    2  A    between atoms: N_16  and  C_17
REMARK    3  A    between atoms: C_17  and  C_18
REMARK                            x       y       z     vdW  Elec       q    Type
REMARK                         _______ _______ _______ _____ _____    ______ ____
ROOT
ATOM      1  O   UNL     1       7.716   6.145  15.847  0.00  0.00    +0.000 OA
ATOM      2  C   UNL     1       6.774   5.383  15.652  0.00  0.00    +0.000 C 
ATOM      3  N   UNL     1       5.834   5.083  16.618  0.00  0.00    +0.000 N 
ATOM      4  C   UNL     1       5.859   5.744  17.928  0.00  0.00    +0.000 C 
ATOM      5  C   UNL     1       4.957   4.887  18.834  0.00  0.00    +0.000 C 
ATOM      6  O   UNL     1       5.797   3.929  19.499  0.00  0.00    +0.000 OA
ATOM      7  C   UNL     1       5.054   2.863  20.067  0.00  0.00    +0.000 C 
ATOM      8  C   UNL     1       4.083   2.136  19.133  0.00  0.00    +0.000 C 
ATOM      9  O   UNL     1       3.889   0.927  19.185  0.00  0.00    +0.000 OA
ATOM     10  N   UNL     1       3.344   3.006  18.333  0.00  0.00    +0.000 N 
ATOM     11  C   UNL     1       4.010   4.201  17.826  0.00  0.00    +0.000 C 
ATOM     12  C   UNL     1       4.986   3.899  16.684  0.00  0.00    +0.000 C 
ENDROOT
BRANCH   2  13
ATOM     13  C   UNL     1       6.617   4.807  14.294  0.00  0.00    +0.000 A 
ATOM     14  C   UNL     1       5.551   3.962  13.990  0.00  0.00    +0.000 A 
ATOM     15  C   UNL     1       5.468   3.397  12.717  0.00  0.00    +0.000 A 
ATOM     16  C   UNL     1       6.461   3.696  11.793  0.00  0.00    +0.000 A 
ATOM     17  N   UNL     1       7.523   4.481  12.067  0.00  0.00    +0.000 NA
ATOM     18  C   UNL     1       7.590   4.991  13.321  0.00  0.00    +0.000 A 
ENDBRANCH   2  13
BRANCH  10  19
ATOM     19  C   UNL     1       2.059   2.581  17.794  0.00  0.00    +0.000 C 
BRANCH  19  20
ATOM     20  C   UNL     1       0.914   2.738  18.742  0.00  0.00    +0.000 C 
ATOM     21  C   UNL     1       1.080   2.634  20.237  0.00  0.00    +0.000 C 
ATOM     22  C   UNL     1       0.846   3.976  19.605  0.00  0.00    +0.000 C 
ENDBRANCH  19  20
ENDBRANCH  10  19
TORSDOF 3
ENDMDL
MODEL 6
REMARK VINA RESULT:      -6.9      2.673      4.707
REMARK  Name = 
REMARK  3 active torsions:
REMARK  status: ('A' for Active; 'I' for Inactive)
REMARK    1  A    between atoms: C_2  and  C_3
REMARK    2  A    between atoms: N_16  and  C_17
REMARK    3  A    between atoms: C_17  and  C_18
REMARK                            x       y       z     vdW  Elec       q    Type
REMARK                         _______ _______ _______ _____ _____    ______ ____
ROOT
ATOM      1  O   UNL     1       2.991   9.164  17.191  0.00  0.00    +0.000 OA
ATOM      2  C   UNL     1       2.701   8.344  18.057  0.00  0.00    +0.000 C 
ATOM      3  N   UNL     1       3.360   7.140  18.207  0.00  0.00    +0.000 N 
ATOM      4  C   UNL     1       4.529   6.811  17.382  0.00  0.00    +0.000 C 
ATOM      5  C   UNL     1       4.724   5.292  17.541  0.00  0.00    +0.000 C 
ATOM      6  O   UNL     1       4.009   4.650  16.472  0.00  0.00    +0.000 OA
ATOM      7  C   UNL     1       3.807   3.267  16.713  0.00  0.00    +0.000 C 
ATOM      8  C   UNL     1       3.171   2.896  18.054  0.00  0.00    +0.000 C 
ATOM      9  O   UNL     1       2.369   1.977  18.179  0.00  0.00    +0.000 OA
ATOM     10  N   UNL     1       3.707   3.607  19.127  0.00  0.00    +0.000 N 
ATOM     11  C   UNL     1       4.069   5.002  18.909  0.00  0.00    +0.000 C 
ATOM     12  C   UNL     1       2.851   5.930  18.839  0.00  0.00    +0.000 C 
ENDROOT
BRANCH   2  13
ATOM     13  C   UNL     1       1.624   8.698  19.015  0.00  0.00    +0.000 A 
ATOM     14  C   UNL     1       0.678   9.673  18.706  0.00  0.00    +0.000 A 
ATOM     15  C   UNL     1      -0.285  10.014  19.655  0.00  0.00    +0.000 A 
ATOM     16  C   UNL     1      -0.263   9.369  20.885  0.00  0.00    +0.000 A 
ATOM     17  N   UNL     1       0.661   8.447  21.227  0.00  0.00    +0.000 NA
ATOM     18  C   UNL     1       1.600   8.158  20.295  0.00  0.00    +0.000 A 
ENDBRANCH   2  13
BRANCH  10  19
ATOM     19  C   UNL     1       3.630   3.055  20.473  0.00  0.00    +0.000 C 
BRANCH  19  20
ATOM     20  C   UNL     1       2.458   3.536  21.266  0.00  0.00    +0.000 C 
ATOM     21  C   UNL     1       1.045   3.479  20.742  0.00  0.00    +0.000 C 
ATOM     22  C   UNL     1       1.481   2.523  21.815  0.00  0.00    +0.000 C 
ENDBRANCH  19  20
ENDBRANCH  10  19
TORSDOF 3
ENDMDL
MODEL 7
REMARK VINA RESULT:      -6.8      2.935      6.991
REMARK  Name = 
REMARK  3 active torsions:
REMARK  status: ('A' for Active; 'I' for Inactive)
REMARK    1  A    between atoms: C_2  and  C_3
REMARK    2  A    between atoms: N_16  and  C_17
REMARK    3  A    between atoms: C_17  and  C_18
REMARK                            x       y       z     vdW  Elec       q    Type
REMARK                         _______ _______ _______ _____ _____    ______ ____
ROOT
ATOM      1  O   UNL     1       7.802   5.504  14.170  0.00  0.00    +0.000 OA
ATOM      2  C   UNL     1       6.756   4.880  14.320  0.00  0.00    +0.000 C 
ATOM      3  N   UNL     1       5.975   4.977  15.455  0.00  0.00    +0.000 N 
ATOM      4  C   UNL     1       6.314   5.921  16.526  0.00  0.00    +0.000 C 
ATOM      5  C   UNL     1       5.492   5.464  17.746  0.00  0.00    +0.000 C 
ATOM      6  O   UNL     1       6.317   4.572  18.513  0.00  0.00    +0.000 OA
ATOM      7  C   UNL     1       5.565   3.808  19.442  0.00  0.00    +0.000 C 
ATOM      8  C   UNL     1       4.363   3.045  18.881  0.00  0.00    +0.000 C 
ATOM      9  O   UNL     1       4.038   1.932  19.278  0.00  0.00    +0.000 OA
ATOM     10  N   UNL     1       3.602   3.804  17.994  0.00  0.00    +0.000 N 
ATOM     11  C   UNL     1       4.305   4.718  17.100  0.00  0.00    +0.000 C 
ATOM     12  C   UNL     1       5.017   3.997  15.951  0.00  0.00    +0.000 C 
ENDROOT
BRANCH   2  13
ATOM     13  C   UNL     1       6.290   4.027  13.199  0.00  0.00    +0.000 A 
ATOM     14  C   UNL     1       4.948   4.001  12.825  0.00  0.00    +0.000 A 
ATOM     15  C   UNL     1       4.540   3.145  11.801  0.00  0.00    +0.000 A 
ATOM     16  C   UNL     1       5.494   2.341  11.191  0.00  0.00    +0.000 A 
ATOM     17  N   UNL     1       6.793   2.316  11.554  0.00  0.00    +0.000 NA
ATOM     18  C   UNL     1       7.151   3.138  12.570  0.00  0.00    +0.000 A 
ENDBRANCH   2  13
BRANCH  10  19
ATOM     19  C   UNL     1       2.200   3.475  17.775  0.00  0.00    +0.000 C 
BRANCH  19  20
ATOM     20  C   UNL     1       1.257   4.151  18.718  0.00  0.00    +0.000 C 
ATOM     21  C   UNL     1       0.965   3.615  20.096  0.00  0.00    +0.000 C 
ATOM     22  C   UNL     1       1.817   4.842  19.939  0.00  0.00    +0.000 C 
ENDBRANCH  19  20
ENDBRANCH  10  19
TORSDOF 3
ENDMDL
MODEL 8
REMARK VINA RESULT:      -6.8      2.919      6.948
REMARK  Name = 
REMARK  3 active torsions:
REMARK  status: ('A' for Active; 'I' for Inactive)
REMARK    1  A    between atoms: C_2  and  C_3
REMARK    2  A    between atoms: N_16  and  C_17
REMARK    3  A    between atoms: C_17  and  C_18
REMARK                            x       y       z     vdW  Elec       q    Type
REMARK                         _______ _______ _______ _____ _____    ______ ____
ROOT
ATOM      1  O   UNL     1       7.763   5.488  14.165  0.00  0.00    +0.000 OA
ATOM      2  C   UNL     1       6.734   4.846  14.351  0.00  0.00    +0.000 C 
ATOM      3  N   UNL     1       5.964   4.969  15.490  0.00  0.00    +0.000 N 
ATOM      4  C   UNL     1       6.289   5.963  16.519  0.00  0.00    +0.000 C 
ATOM      5  C   UNL     1       5.492   5.535  17.765  0.00  0.00    +0.000 C 
ATOM      6  O   UNL     1       6.346   4.694  18.557  0.00  0.00    +0.000 OA
ATOM      7  C   UNL     1       5.624   3.951  19.524  0.00  0.00    +0.000 C 
ATOM      8  C   UNL     1       4.435   3.137  19.008  0.00  0.00    +0.000 C 
ATOM      9  O   UNL     1       4.142   2.032  19.452  0.00  0.00    +0.000 OA
ATOM     10  N   UNL     1       3.647   3.841  18.100  0.00  0.00    +0.000 N 
ATOM     11  C   UNL     1       4.317   4.735  17.163  0.00  0.00    +0.000 C 
ATOM     12  C   UNL     1       5.035   3.987  16.036  0.00  0.00    +0.000 C 
ENDROOT
BRANCH   2  13
ATOM     13  C   UNL     1       6.278   3.937  13.270  0.00  0.00    +0.000 A 
ATOM     14  C   UNL     1       7.191   3.199  12.519  0.00  0.00    +0.000 A 
ATOM     15  C   UNL     1       6.726   2.397  11.476  0.00  0.00    +0.000 A 
ATOM     16  C   UNL     1       5.361   2.368  11.219  0.00  0.00    +0.000 A 
ATOM     17  N   UNL     1       4.457   3.098  11.904  0.00  0.00    +0.000 NA
ATOM     18  C   UNL     1       4.943   3.888  12.892  0.00  0.00    +0.000 A 
ENDBRANCH   2  13
BRANCH  10  19
ATOM     19  C   UNL     1       2.250   3.469  17.911  0.00  0.00    +0.000 C 
BRANCH  19  20
ATOM     20  C   UNL     1       1.297   4.190  18.808  0.00  0.00    +0.000 C 
ATOM     21  C   UNL     1       0.932   3.681  20.180  0.00  0.00    +0.000 C 
ATOM     22  C   UNL     1       1.833   4.875  20.043  0.00  0.00    +0.000 C 
ENDBRANCH  19  20
ENDBRANCH  10  19
TORSDOF 3
ENDMDL
MODEL 9
REMARK VINA RESULT:      -6.7      3.275      6.587
REMARK  Name = 
REMARK  3 active torsions:
REMARK  status: ('A' for Active; 'I' for Inactive)
REMARK    1  A    between atoms: C_2  and  C_3
REMARK    2  A    between atoms: N_16  and  C_17
REMARK    3  A    between atoms: C_17  and  C_18
REMARK                            x       y       z     vdW  Elec       q    Type
REMARK                         _______ _______ _______ _____ _____    ______ ____
ROOT
ATOM      1  O   UNL     1       7.654   6.200  15.919  0.00  0.00    +0.000 OA
ATOM      2  C   UNL     1       6.750   5.393  15.721  0.00  0.00    +0.000 C 
ATOM      3  N   UNL     1       5.805   5.071  16.675  0.00  0.00    +0.000 N 
ATOM      4  C   UNL     1       5.774   5.759  17.970  0.00  0.00    +0.000 C 
ATOM      5  C   UNL     1       4.892   4.881  18.877  0.00  0.00    +0.000 C 
ATOM      6  O   UNL     1       5.759   3.975  19.578  0.00  0.00    +0.000 OA
ATOM      7  C   UNL     1       5.052   2.889  20.153  0.00  0.00    +0.000 C 
ATOM      8  C   UNL     1       4.134   2.102  19.216  0.00  0.00    +0.000 C 
ATOM      9  O   UNL     1       3.991   0.886  19.290  0.00  0.00    +0.000 OA
ATOM     10  N   UNL     1       3.374   2.921  18.383  0.00  0.00    +0.000 N 
ATOM     11  C   UNL     1       3.997   4.134  17.865  0.00  0.00    +0.000 C 
ATOM     12  C   UNL     1       5.009   3.853  16.749  0.00  0.00    +0.000 C 
ENDROOT
BRANCH   2  13
ATOM     13  C   UNL     1       6.647   4.783  14.372  0.00  0.00    +0.000 A 
ATOM     14  C   UNL     1       7.611   5.028  13.397  0.00  0.00    +0.000 A 
ATOM     15  C   UNL     1       7.450   4.478  12.124  0.00  0.00    +0.000 A 
ATOM     16  C   UNL     1       6.323   3.706  11.874  0.00  0.00    +0.000 A 
ATOM     17  N   UNL     1       5.355   3.481  12.785  0.00  0.00    +0.000 NA
ATOM     18  C   UNL     1       5.526   4.051  14.002  0.00  0.00    +0.000 A 
ENDBRANCH   2  13
BRANCH  10  19
ATOM     19  C   UNL     1       2.120   2.428  17.828  0.00  0.00    +0.000 C 
BRANCH  19  20
ATOM     20  C   UNL     1       0.951   2.550  18.752  0.00  0.00    +0.000 C 
ATOM     21  C   UNL     1       1.103   2.582  20.251  0.00  0.00    +0.000 C 
ATOM     22  C   UNL     1       0.752   3.841  19.511  0.00  0.00    +0.000 C 
ENDBRANCH  19  20
ENDBRANCH  10  19
TORSDOF 3
ENDMDL
