MODEL 1
REMARK VINA RESULT:      -7.6      0.000      0.000
REMARK  Name = 
REMARK  9 active torsions:
REMARK  status: ('A' for Active; 'I' for Inactive)
REMARK    1  A    between atoms: C_1  and  O_2
REMARK    2  A    between atoms: O_2  and  C_3
REMARK    3  A    between atoms: C_6  and  C_7
REMARK    4  A    between atoms: C_10  and  O_11
REMARK    5  A    between atoms: O_11  and  C_12
REMARK    6  A    between atoms: C_12  and  C_13
REMARK    7  A    between atoms: C_13  and  C_14
REMARK    8  A    between atoms: C_14  and  N_15
REMARK    9  A    between atoms: C_16  and  C_17
REMARK                            x       y       z     vdW  Elec       q    Type
REMARK                         _______ _______ _______ _____ _____    ______ ____
ROOT
ATOM      1  C   UNL     1       4.865   5.903  16.746  0.00  0.00    +0.000 C 
ATOM      2  C   UNL     1       5.965   5.036  16.141  0.00  0.00    +0.000 C 
ATOM      3  C   UNL     1       7.129   5.988  16.076  0.00  0.00    +0.000 C 
ATOM      4  C   UNL     1       6.928   6.831  17.321  0.00  0.00    +0.000 C 
ATOM      5  O   UNL     1       5.513   6.940  17.504  0.00  0.00    +0.000 OA
ENDROOT
BRANCH   1   9
ATOM      6  C   UNL     1       2.123   3.507  19.113  0.00  0.00    +0.000 A 
ATOM      7  C   UNL     1       1.925   4.889  18.953  0.00  0.00    +0.000 A 
ATOM      8  C   UNL     1       2.823   5.676  18.223  0.00  0.00    +0.000 A 
ATOM      9  C   UNL     1       3.948   5.095  17.634  0.00  0.00    +0.000 A 
ATOM     10  C   UNL     1       4.153   3.718  17.807  0.00  0.00    +0.000 A 
ATOM     11  C   UNL     1       3.250   2.922  18.524  0.00  0.00    +0.000 A 
ATOM     12 CL   UNL     1       3.605   1.232  18.513  0.00  0.00    +0.000 Cl
BRANCH   6  14
ATOM     13  C   UNL     1       1.227   2.750  21.191  0.00  0.00    +0.000 C 
ATOM     14  O   UNL     1       1.098   2.898  19.783  0.00  0.00    +0.000 OA
ENDBRANCH   6  14
ENDBRANCH   1   9
BRANCH   4  15
ATOM     15  O   UNL     1       7.535   8.098  17.117  0.00  0.00    +0.000 OA
BRANCH  15  16
ATOM     16  C   UNL     1       8.346   8.495  18.219  0.00  0.00    +0.000 C 
BRANCH  16  17
ATOM     17  C   UNL     1       8.467  10.017  18.198  0.00  0.00    +0.000 C 
BRANCH  17  18
ATOM     18  C   UNL     1       9.784  10.481  18.827  0.00  0.00    +0.000 C 
BRANCH  18  19
ATOM     19  N   UNL     1       9.743  11.856  19.293  0.00  0.00    +0.000 N 
ATOM     20  C   UNL     1      10.052  12.999  18.582  0.00  0.00    +0.000 A 
ATOM     21  C   UNL     1      10.590  13.054  17.199  0.00  0.00    +0.000 C 
ATOM     22  N   UNL     1       9.797  14.079  19.298  0.00  0.00    +0.000 NA
ATOM     23  C   UNL     1       9.314  13.631  20.501  0.00  0.00    +0.000 A 
ATOM     24  C   UNL     1       8.876  14.353  21.615  0.00  0.00    +0.000 A 
ATOM     25  N   UNL     1       8.434  13.701  22.722  0.00  0.00    +0.000 NA
ATOM     26  C   UNL     1       8.427  12.348  22.716  0.00  0.00    +0.000 A 
ATOM     27  C   UNL     1       8.835  11.546  21.658  0.00  0.00    +0.000 A 
ATOM     28  C   UNL     1       9.282  12.245  20.534  0.00  0.00    +0.000 A 
ENDBRANCH  18  19
ENDBRANCH  17  18
ENDBRANCH  16  17
ENDBRANCH  15  16
ENDBRANCH   4  15
TORSDOF 7
ENDMDL
MODEL 2
REMARK VINA RESULT:      -7.6      5.590      7.683
REMARK  Name = 
REMARK  9 active torsions:
REMARK  status: ('A' for Active; 'I' for Inactive)
REMARK    1  A    between atoms: C_1  and  O_2
REMARK    2  A    between atoms: O_2  and  C_3
REMARK    3  A    between atoms: C_6  and  C_7
REMARK    4  A    between atoms: C_10  and  O_11
REMARK    5  A    between atoms: O_11  and  C_12
REMARK    6  A    between atoms: C_12  and  C_13
REMARK    7  A    between atoms: C_13  and  C_14
REMARK    8  A    between atoms: C_14  and  N_15
REMARK    9  A    between atoms: C_16  and  C_17
REMARK                            x       y       z     vdW  Elec       q    Type
REMARK                         _______ _______ _______ _____ _____    ______ ____
ROOT
ATOM      1  C   UNL     1       4.440   4.220  19.143  0.00  0.00    +0.000 C 
ATOM      2  C   UNL     1       4.540   2.747  19.526  0.00  0.00    +0.000 C 
ATOM      3  C   UNL     1       3.123   2.415  19.910  0.00  0.00    +0.000 C 
ATOM      4  C   UNL     1       2.318   3.267  18.949  0.00  0.00    +0.000 C 
ATOM      5  O   UNL     1       3.079   4.460  18.741  0.00  0.00    +0.000 OA
ENDROOT
BRANCH   1   9
ATOM      6  C   UNL     1       7.023   5.370  15.846  0.00  0.00    +0.000 A 
ATOM      7  C   UNL     1       6.226   4.214  15.773  0.00  0.00    +0.000 A 
ATOM      8  C   UNL     1       5.418   3.816  16.845  0.00  0.00    +0.000 A 
ATOM      9  C   UNL     1       5.391   4.567  18.022  0.00  0.00    +0.000 A 
ATOM     10  C   UNL     1       6.198   5.711  18.100  0.00  0.00    +0.000 A 
ATOM     11  C   UNL     1       6.997   6.124  17.025  0.00  0.00    +0.000 A 
ATOM     12 CL   UNL     1       7.815   7.627  17.265  0.00  0.00    +0.000 Cl
BRANCH   6  14
ATOM     13  C   UNL     1       7.319   4.876  13.531  0.00  0.00    +0.000 C 
ATOM     14  O   UNL     1       7.674   5.640  14.675  0.00  0.00    +0.000 OA
ENDBRANCH   6  14
ENDBRANCH   1   9
BRANCH   4  15
ATOM     15  O   UNL     1       1.053   3.541  19.531  0.00  0.00    +0.000 OA
BRANCH  15  16
ATOM     16  C   UNL     1       1.159   4.316  20.721  0.00  0.00    +0.000 C 
BRANCH  16  17
ATOM     17  C   UNL     1       0.715   5.743  20.404  0.00  0.00    +0.000 C 
BRANCH  17  18
ATOM     18  C   UNL     1       1.779   6.763  20.818  0.00  0.00    +0.000 C 
BRANCH  18  19
ATOM     19  N   UNL     1       1.468   8.117  20.394  0.00  0.00    +0.000 N 
ATOM     20  C   UNL     1       1.712   8.695  19.163  0.00  0.00    +0.000 A 
ATOM     21  C   UNL     1       2.439   8.070  18.029  0.00  0.00    +0.000 C 
ATOM     22  N   UNL     1       1.197   9.910  19.106  0.00  0.00    +0.000 NA
ATOM     23  C   UNL     1       0.608  10.130  20.325  0.00  0.00    +0.000 A 
ATOM     24  C   UNL     1      -0.093  11.244  20.792  0.00  0.00    +0.000 A 
ATOM     25  N   UNL     1      -0.598  11.256  22.053  0.00  0.00    +0.000 NA
ATOM     26  C   UNL     1      -0.407  10.169  22.836  0.00  0.00    +0.000 A 
ATOM     27  C   UNL     1       0.267   9.015  22.460  0.00  0.00    +0.000 A 
ATOM     28  C   UNL     1       0.773   9.033  21.158  0.00  0.00    +0.000 A 
ENDBRANCH  18  19
ENDBRANCH  17  18
ENDBRANCH  16  17
ENDBRANCH  15  16
ENDBRANCH   4  15
TORSDOF 7
ENDMDL
MODEL 3
REMARK VINA RESULT:      -7.6      6.389      9.471
REMARK  Name = 
REMARK  9 active torsions:
REMARK  status: ('A' for Active; 'I' for Inactive)
REMARK    1  A    between atoms: C_1  and  O_2
REMARK    2  A    between atoms: O_2  and  C_3
REMARK    3  A    between atoms: C_6  and  C_7
REMARK    4  A    between atoms: C_10  and  O_11
REMARK    5  A    between atoms: O_11  and  C_12
REMARK    6  A    between atoms: C_12  and  C_13
REMARK    7  A    between atoms: C_13  and  C_14
REMARK    8  A    between atoms: C_14  and  N_15
REMARK    9  A    between atoms: C_16  and  C_17
REMARK                            x       y       z     vdW  Elec       q    Type
REMARK                         _______ _______ _______ _____ _____    ______ ____
ROOT
ATOM      1  C   UNL     1       1.005   9.815  18.913  0.00  0.00    +0.000 C 
ATOM      2  C   UNL     1       1.780   9.561  17.624  0.00  0.00    +0.000 C 
ATOM      3  C   UNL     1       2.687   8.424  18.009  0.00  0.00    +0.000 C 
ATOM      4  C   UNL     1       1.822   7.629  18.968  0.00  0.00    +0.000 C 
ATOM      5  O   UNL     1       1.012   8.585  19.659  0.00  0.00    +0.000 OA
ENDROOT
BRANCH   1   9
ATOM      6  C   UNL     1      -2.989  11.226  17.955  0.00  0.00    +0.000 A 
ATOM      7  C   UNL     1      -2.328  11.656  19.118  0.00  0.00    +0.000 A 
ATOM      8  C   UNL     1      -1.056  11.179  19.454  0.00  0.00    +0.000 A 
ATOM      9  C   UNL     1      -0.412  10.253  18.630  0.00  0.00    +0.000 A 
ATOM     10  C   UNL     1      -1.079   9.812  17.478  0.00  0.00    +0.000 A 
ATOM     11  C   UNL     1      -2.346  10.297  17.128  0.00  0.00    +0.000 A 
ATOM     12 CL   UNL     1      -2.944   9.735  15.607  0.00  0.00    +0.000 Cl
BRANCH   6  14
ATOM     13  C   UNL     1      -4.973  12.158  18.896  0.00  0.00    +0.000 C 
ATOM     14  O   UNL     1      -4.181  11.866  17.754  0.00  0.00    +0.000 OA
ENDBRANCH   6  14
ENDBRANCH   1   9
BRANCH   4  15
ATOM     15  O   UNL     1       2.665   6.909  19.855  0.00  0.00    +0.000 OA
BRANCH  15  16
ATOM     16  C   UNL     1       1.965   6.426  20.998  0.00  0.00    +0.000 C 
BRANCH  16  17
ATOM     17  C   UNL     1       1.476   5.011  20.695  0.00  0.00    +0.000 C 
BRANCH  17  18
ATOM     18  C   UNL     1       2.639   4.017  20.644  0.00  0.00    +0.000 C 
BRANCH  18  19
ATOM     19  N   UNL     1       3.010   3.639  19.291  0.00  0.00    +0.000 N 
ATOM     20  C   UNL     1       2.255   2.938  18.372  0.00  0.00    +0.000 A 
ATOM     21  C   UNL     1       0.920   2.333  18.612  0.00  0.00    +0.000 C 
ATOM     22  N   UNL     1       2.876   2.872  17.209  0.00  0.00    +0.000 NA
ATOM     23  C   UNL     1       4.062   3.541  17.374  0.00  0.00    +0.000 A 
ATOM     24  C   UNL     1       5.087   3.786  16.456  0.00  0.00    +0.000 A 
ATOM     25  N   UNL     1       6.194   4.477  16.834  0.00  0.00    +0.000 NA
ATOM     26  C   UNL     1       6.274   4.919  18.110  0.00  0.00    +0.000 A 
ATOM     27  C   UNL     1       5.308   4.733  19.089  0.00  0.00    +0.000 A 
ATOM     28  C   UNL     1       4.182   4.021  18.669  0.00  0.00    +0.000 A 
ENDBRANCH  18  19
ENDBRANCH  17  18
ENDBRANCH  16  17
ENDBRANCH  15  16
ENDBRANCH   4  15
TORSDOF 7
ENDMDL
MODEL 4
REMARK VINA RESULT:      -7.4      1.395      1.646
REMARK  Name = 
REMARK  9 active torsions:
REMARK  status: ('A' for Active; 'I' for Inactive)
REMARK    1  A    between atoms: C_1  and  O_2
REMARK    2  A    between atoms: O_2  and  C_3
REMARK    3  A    between atoms: C_6  and  C_7
REMARK    4  A    between atoms: C_10  and  O_11
REMARK    5  A    between atoms: O_11  and  C_12
REMARK    6  A    between atoms: C_12  and  C_13
REMARK    7  A    between atoms: C_13  and  C_14
REMARK    8  A    between atoms: C_14  and  N_15
REMARK    9  A    between atoms: C_16  and  C_17
REMARK                            x       y       z     vdW  Elec       q    Type
REMARK                         _______ _______ _______ _____ _____    ______ ____
ROOT
ATOM      1  C   UNL     1       4.676   5.808  16.956  0.00  0.00    +0.000 C 
ATOM      2  C   UNL     1       5.893   4.889  17.002  0.00  0.00    +0.000 C 
ATOM      3  C   UNL     1       7.035   5.856  16.844  0.00  0.00    +0.000 C 
ATOM      4  C   UNL     1       6.530   7.079  17.583  0.00  0.00    +0.000 C 
ATOM      5  O   UNL     1       5.114   7.111  17.380  0.00  0.00    +0.000 OA
ENDROOT
BRANCH   1   9
ATOM      6  C   UNL     1       1.641   4.342  19.695  0.00  0.00    +0.000 A 
ATOM      7  C   UNL     1       2.229   3.492  18.743  0.00  0.00    +0.000 A 
ATOM      8  C   UNL     1       3.181   3.964  17.831  0.00  0.00    +0.000 A 
ATOM      9  C   UNL     1       3.568   5.306  17.851  0.00  0.00    +0.000 A 
ATOM     10  C   UNL     1       2.969   6.157  18.791  0.00  0.00    +0.000 A 
ATOM     11  C   UNL     1       2.027   5.687  19.716  0.00  0.00    +0.000 A 
ATOM     12 CL   UNL     1       1.505   6.856  20.877  0.00  0.00    +0.000 Cl
BRANCH   6  14
ATOM     13  C   UNL     1       1.374   2.728  21.432  0.00  0.00    +0.000 C 
ATOM     14  O   UNL     1       0.801   3.682  20.549  0.00  0.00    +0.000 OA
ENDBRANCH   6  14
ENDBRANCH   1   9
BRANCH   4  15
ATOM     15  O   UNL     1       7.167   8.231  17.051  0.00  0.00    +0.000 OA
BRANCH  15  16
ATOM     16  C   UNL     1       8.413   8.504  17.684  0.00  0.00    +0.000 C 
BRANCH  16  17
ATOM     17  C   UNL     1       8.346   9.906  18.287  0.00  0.00    +0.000 C 
BRANCH  17  18
ATOM     18  C   UNL     1       9.344  10.068  19.436  0.00  0.00    +0.000 C 
BRANCH  18  19
ATOM     19  N   UNL     1       9.668  11.455  19.721  0.00  0.00    +0.000 N 
ATOM     20  C   UNL     1      10.293  12.365  18.890  0.00  0.00    +0.000 A 
ATOM     21  C   UNL     1      10.857  12.082  17.546  0.00  0.00    +0.000 C 
ATOM     22  N   UNL     1      10.325  13.562  19.447  0.00  0.00    +0.000 NA
ATOM     23  C   UNL     1       9.711  13.429  20.667  0.00  0.00    +0.000 A 
ATOM     24  C   UNL     1       9.461  14.389  21.651  0.00  0.00    +0.000 A 
ATOM     25  N   UNL     1       8.833  14.038  22.804  0.00  0.00    +0.000 NA
ATOM     26  C   UNL     1       8.458  12.748  22.969  0.00  0.00    +0.000 A 
ATOM     27  C   UNL     1       8.656  11.729  22.048  0.00  0.00    +0.000 A 
ATOM     28  C   UNL     1       9.302  12.121  20.873  0.00  0.00    +0.000 A 
ENDBRANCH  18  19
ENDBRANCH  17  18
ENDBRANCH  16  17
ENDBRANCH  15  16
ENDBRANCH   4  15
TORSDOF 7
ENDMDL
MODEL 5
REMARK VINA RESULT:      -7.4      5.827      7.672
REMARK  Name = 
REMARK  9 active torsions:
REMARK  status: ('A' for Active; 'I' for Inactive)
REMARK    1  A    between atoms: C_1  and  O_2
REMARK    2  A    between atoms: O_2  and  C_3
REMARK    3  A    between atoms: C_6  and  C_7
REMARK    4  A    between atoms: C_10  and  O_11
REMARK    5  A    between atoms: O_11  and  C_12
REMARK    6  A    between atoms: C_12  and  C_13
REMARK    7  A    between atoms: C_13  and  C_14
REMARK    8  A    between atoms: C_14  and  N_15
REMARK    9  A    between atoms: C_16  and  C_17
REMARK                            x       y       z     vdW  Elec       q    Type
REMARK                         _______ _______ _______ _____ _____    ______ ____
ROOT
ATOM      1  C   UNL     1       3.996   3.195  17.655  0.00  0.00    +0.000 C 
ATOM      2  C   UNL     1       2.649   3.300  16.947  0.00  0.00    +0.000 C 
ATOM      3  C   UNL     1       1.695   3.500  18.092  0.00  0.00    +0.000 C 
ATOM      4  C   UNL     1       2.517   4.331  19.058  0.00  0.00    +0.000 C 
ATOM      5  O   UNL     1       3.871   3.895  18.906  0.00  0.00    +0.000 OA
ENDROOT
BRANCH   1   9
ATOM      6  C   UNL     1       7.052   5.079  15.211  0.00  0.00    +0.000 A 
ATOM      7  C   UNL     1       6.306   3.991  14.727  0.00  0.00    +0.000 A 
ATOM      8  C   UNL     1       5.344   3.353  15.520  0.00  0.00    +0.000 A 
ATOM      9  C   UNL     1       5.108   3.792  16.825  0.00  0.00    +0.000 A 
ATOM     10  C   UNL     1       5.863   4.867  17.313  0.00  0.00    +0.000 A 
ATOM     11  C   UNL     1       6.816   5.519  16.519  0.00  0.00    +0.000 A 
ATOM     12 CL   UNL     1       7.548   6.903  17.251  0.00  0.00    +0.000 Cl
BRANCH   6  14
ATOM     13  C   UNL     1       7.781   5.115  12.939  0.00  0.00    +0.000 C 
ATOM     14  O   UNL     1       7.877   5.619  14.264  0.00  0.00    +0.000 OA
ENDBRANCH   6  14
ENDBRANCH   1   9
BRANCH   4  15
ATOM     15  O   UNL     1       2.034   4.111  20.375  0.00  0.00    +0.000 OA
BRANCH  15  16
ATOM     16  C   UNL     1       1.716   5.326  21.047  0.00  0.00    +0.000 C 
BRANCH  16  17
ATOM     17  C   UNL     1       1.898   6.478  20.063  0.00  0.00    +0.000 C 
BRANCH  17  18
ATOM     18  C   UNL     1       1.715   7.834  20.750  0.00  0.00    +0.000 C 
BRANCH  18  19
ATOM     19  N   UNL     1       1.340   8.896  19.832  0.00  0.00    +0.000 N 
ATOM     20  C   UNL     1       1.712   9.041  18.510  0.00  0.00    +0.000 A 
ATOM     21  C   UNL     1       2.666   8.177  17.767  0.00  0.00    +0.000 C 
ATOM     22  N   UNL     1       1.094  10.069  17.959  0.00  0.00    +0.000 NA
ATOM     23  C   UNL     1       0.304  10.607  18.943  0.00  0.00    +0.000 A 
ATOM     24  C   UNL     1      -0.570  11.697  18.893  0.00  0.00    +0.000 A 
ATOM     25  N   UNL     1      -1.263  12.069  20.001  0.00  0.00    +0.000 NA
ATOM     26  C   UNL     1      -1.088  11.361  21.141  0.00  0.00    +0.000 A 
ATOM     27  C   UNL     1      -0.251  10.263  21.286  0.00  0.00    +0.000 A 
ATOM     28  C   UNL     1       0.446   9.904  20.130  0.00  0.00    +0.000 A 
ENDBRANCH  18  19
ENDBRANCH  17  18
ENDBRANCH  16  17
ENDBRANCH  15  16
ENDBRANCH   4  15
TORSDOF 7
ENDMDL
MODEL 6
REMARK VINA RESULT:      -7.4      7.040      9.929
REMARK  Name = 
REMARK  9 active torsions:
REMARK  status: ('A' for Active; 'I' for Inactive)
REMARK    1  A    between atoms: C_1  and  O_2
REMARK    2  A    between atoms: O_2  and  C_3
REMARK    3  A    between atoms: C_6  and  C_7
REMARK    4  A    between atoms: C_10  and  O_11
REMARK    5  A    between atoms: O_11  and  C_12
REMARK    6  A    between atoms: C_12  and  C_13
REMARK    7  A    between atoms: C_13  and  C_14
REMARK    8  A    between atoms: C_14  and  N_15
REMARK    9  A    between atoms: C_16  and  C_17
REMARK                            x       y       z     vdW  Elec       q    Type
REMARK                         _______ _______ _______ _____ _____    ______ ____
ROOT
ATOM      1  C   UNL     1      -0.875   9.743  18.812  0.00  0.00    +0.000 C 
ATOM      2  C   UNL     1      -0.351  10.591  19.966  0.00  0.00    +0.000 C 
ATOM      3  C   UNL     1       1.140  10.427  19.838  0.00  0.00    +0.000 C 
ATOM      4  C   UNL     1       1.329  10.344  18.336  0.00  0.00    +0.000 C 
ATOM      5  O   UNL     1       0.169   9.682  17.824  0.00  0.00    +0.000 OA
ENDROOT
BRANCH   1   9
ATOM      6  C   UNL     1      -4.357  11.584  16.981  0.00  0.00    +0.000 A 
ATOM      7  C   UNL     1      -3.953  11.931  18.282  0.00  0.00    +0.000 A 
ATOM      8  C   UNL     1      -2.854  11.317  18.894  0.00  0.00    +0.000 A 
ATOM      9  C   UNL     1      -2.131  10.333  18.216  0.00  0.00    +0.000 A 
ATOM     10  C   UNL     1      -2.544   9.976  16.924  0.00  0.00    +0.000 A 
ATOM     11  C   UNL     1      -3.634  10.598  16.300  0.00  0.00    +0.000 A 
ATOM     12 CL   UNL     1      -3.905  10.116  14.663  0.00  0.00    +0.000 Cl
BRANCH   6  14
ATOM     13  C   UNL     1      -6.573  12.402  17.316  0.00  0.00    +0.000 C 
ATOM     14  O   UNL     1      -5.394  12.350  16.525  0.00  0.00    +0.000 OA
ENDBRANCH   6  14
ENDBRANCH   1   9
BRANCH   4  15
ATOM     15  O   UNL     1       2.518   9.616  18.065  0.00  0.00    +0.000 OA
BRANCH  15  16
ATOM     16  C   UNL     1       2.286   8.213  17.972  0.00  0.00    +0.000 C 
BRANCH  16  17
ATOM     17  C   UNL     1       3.527   7.564  17.364  0.00  0.00    +0.000 C 
BRANCH  17  18
ATOM     18  C   UNL     1       4.116   6.503  18.297  0.00  0.00    +0.000 C 
BRANCH  18  19
ATOM     19  N   UNL     1       3.561   5.178  18.080  0.00  0.00    +0.000 N 
ATOM     20  C   UNL     1       3.933   4.250  17.127  0.00  0.00    +0.000 A 
ATOM     21  C   UNL     1       4.933   4.455  16.047  0.00  0.00    +0.000 C 
ATOM     22  N   UNL     1       3.280   3.116  17.297  0.00  0.00    +0.000 NA
ATOM     23  C   UNL     1       2.463   3.308  18.382  0.00  0.00    +0.000 A 
ATOM     24  C   UNL     1       1.574   2.425  19.000  0.00  0.00    +0.000 A 
ATOM     25  N   UNL     1       0.848   2.826  20.076  0.00  0.00    +0.000 NA
ATOM     26  C   UNL     1       1.010   4.090  20.530  0.00  0.00    +0.000 A 
ATOM     27  C   UNL     1       1.872   5.035  19.989  0.00  0.00    +0.000 A 
ATOM     28  C   UNL     1       2.605   4.592  18.885  0.00  0.00    +0.000 A 
ENDBRANCH  18  19
ENDBRANCH  17  18
ENDBRANCH  16  17
ENDBRANCH  15  16
ENDBRANCH   4  15
TORSDOF 7
ENDMDL
MODEL 7
REMARK VINA RESULT:      -7.4      1.610      2.079
REMARK  Name = 
REMARK  9 active torsions:
REMARK  status: ('A' for Active; 'I' for Inactive)
REMARK    1  A    between atoms: C_1  and  O_2
REMARK    2  A    between atoms: O_2  and  C_3
REMARK    3  A    between atoms: C_6  and  C_7
REMARK    4  A    between atoms: C_10  and  O_11
REMARK    5  A    between atoms: O_11  and  C_12
REMARK    6  A    between atoms: C_12  and  C_13
REMARK    7  A    between atoms: C_13  and  C_14
REMARK    8  A    between atoms: C_14  and  N_15
REMARK    9  A    between atoms: C_16  and  C_17
REMARK                            x       y       z     vdW  Elec       q    Type
REMARK                         _______ _______ _______ _____ _____    ______ ____
ROOT
ATOM      1  C   UNL     1       4.652   6.288  17.038  0.00  0.00    +0.000 C 
ATOM      2  C   UNL     1       5.671   5.351  16.397  0.00  0.00    +0.000 C 
ATOM      3  C   UNL     1       6.881   6.234  16.258  0.00  0.00    +0.000 C 
ATOM      4  C   UNL     1       6.789   7.108  17.493  0.00  0.00    +0.000 C 
ATOM      5  O   UNL     1       5.394   7.300  17.742  0.00  0.00    +0.000 OA
ENDROOT
BRANCH   1   9
ATOM      6  C   UNL     1       1.854   4.189  19.612  0.00  0.00    +0.000 A 
ATOM      7  C   UNL     1       2.174   5.539  19.838  0.00  0.00    +0.000 A 
ATOM      8  C   UNL     1       3.102   6.214  19.037  0.00  0.00    +0.000 A 
ATOM      9  C   UNL     1       3.737   5.549  17.985  0.00  0.00    +0.000 A 
ATOM     10  C   UNL     1       3.429   4.198  17.770  0.00  0.00    +0.000 A 
ATOM     11  C   UNL     1       2.489   3.521  18.559  0.00  0.00    +0.000 A 
ATOM     12 CL   UNL     1       2.148   1.904  18.056  0.00  0.00    +0.000 Cl
BRANCH   6  14
ATOM     13  C   UNL     1       1.244   2.849  21.489  0.00  0.00    +0.000 C 
ATOM     14  O   UNL     1       0.868   3.732  20.442  0.00  0.00    +0.000 OA
ENDBRANCH   6  14
ENDBRANCH   1   9
BRANCH   4  15
ATOM     15  O   UNL     1       7.455   8.336  17.235  0.00  0.00    +0.000 OA
BRANCH  15  16
ATOM     16  C   UNL     1       8.626   8.497  18.030  0.00  0.00    +0.000 C 
BRANCH  16  17
ATOM     17  C   UNL     1       8.610   9.903  18.624  0.00  0.00    +0.000 C 
BRANCH  17  18
ATOM     18  C   UNL     1       9.585  10.829  17.892  0.00  0.00    +0.000 C 
BRANCH  18  19
ATOM     19  N   UNL     1       9.694  12.143  18.503  0.00  0.00    +0.000 N 
ATOM     20  C   UNL     1      10.708  12.617  19.314  0.00  0.00    +0.000 A 
ATOM     21  C   UNL     1      11.869  11.837  19.813  0.00  0.00    +0.000 C 
ATOM     22  N   UNL     1      10.522  13.893  19.598  0.00  0.00    +0.000 NA
ATOM     23  C   UNL     1       9.363  14.258  18.961  0.00  0.00    +0.000 A 
ATOM     24  C   UNL     1       8.720  15.498  18.916  0.00  0.00    +0.000 A 
ATOM     25  N   UNL     1       7.562  15.643  18.220  0.00  0.00    +0.000 NA
ATOM     26  C   UNL     1       7.056  14.565  17.576  0.00  0.00    +0.000 A 
ATOM     27  C   UNL     1       7.625  13.298  17.557  0.00  0.00    +0.000 A 
ATOM     28  C   UNL     1       8.814  13.182  18.280  0.00  0.00    +0.000 A 
ENDBRANCH  18  19
ENDBRANCH  17  18
ENDBRANCH  16  17
ENDBRANCH  15  16
ENDBRANCH   4  15
TORSDOF 7
ENDMDL
MODEL 8
REMARK VINA RESULT:      -7.4      6.057      9.006
REMARK  Name = 
REMARK  9 active torsions:
REMARK  status: ('A' for Active; 'I' for Inactive)
REMARK    1  A    between atoms: C_1  and  O_2
REMARK    2  A    between atoms: O_2  and  C_3
REMARK    3  A    between atoms: C_6  and  C_7
REMARK    4  A    between atoms: C_10  and  O_11
REMARK    5  A    between atoms: O_11  and  C_12
REMARK    6  A    between atoms: C_12  and  C_13
REMARK    7  A    between atoms: C_13  and  C_14
REMARK    8  A    between atoms: C_14  and  N_15
REMARK    9  A    between atoms: C_16  and  C_17
REMARK                            x       y       z     vdW  Elec       q    Type
REMARK                         _______ _______ _______ _____ _____    ______ ____
ROOT
ATOM      1  C   UNL     1       1.508   9.539  19.281  0.00  0.00    +0.000 C 
ATOM      2  C   UNL     1       2.000   9.535  17.838  0.00  0.00    +0.000 C 
ATOM      3  C   UNL     1       2.691   8.202  17.735  0.00  0.00    +0.000 C 
ATOM      4  C   UNL     1       1.836   7.323  18.626  0.00  0.00    +0.000 C 
ATOM      5  O   UNL     1       1.367   8.165  19.684  0.00  0.00    +0.000 OA
ENDROOT
BRANCH   1   9
ATOM      6  C   UNL     1      -2.184  11.809  19.567  0.00  0.00    +0.000 A 
ATOM      7  C   UNL     1      -1.319  11.691  20.668  0.00  0.00    +0.000 A 
ATOM      8  C   UNL     1      -0.145  10.932  20.597  0.00  0.00    +0.000 A 
ATOM      9  C   UNL     1       0.191  10.267  19.416  0.00  0.00    +0.000 A 
ATOM     10  C   UNL     1      -0.681  10.371  18.323  0.00  0.00    +0.000 A 
ATOM     11  C   UNL     1      -1.850  11.142  18.382  0.00  0.00    +0.000 A 
ATOM     12 CL   UNL     1      -2.722  11.254  16.895  0.00  0.00    +0.000 Cl
BRANCH   6  14
ATOM     13  C   UNL     1      -3.305  13.274  21.080  0.00  0.00    +0.000 C 
ATOM     14  O   UNL     1      -3.230  12.657  19.802  0.00  0.00    +0.000 OA
ENDBRANCH   6  14
ENDBRANCH   1   9
BRANCH   4  15
ATOM     15  O   UNL     1       2.632   6.254  19.114  0.00  0.00    +0.000 OA
BRANCH  15  16
ATOM     16  C   UNL     1       1.906   5.032  19.204  0.00  0.00    +0.000 C 
BRANCH  16  17
ATOM     17  C   UNL     1       1.756   4.461  17.796  0.00  0.00    +0.000 C 
BRANCH  17  18
ATOM     18  C   UNL     1       2.820   3.397  17.509  0.00  0.00    +0.000 C 
BRANCH  18  19
ATOM     19  N   UNL     1       4.150   3.786  17.945  0.00  0.00    +0.000 N 
ATOM     20  C   UNL     1       4.806   3.408  19.100  0.00  0.00    +0.000 A 
ATOM     21  C   UNL     1       4.242   2.585  20.200  0.00  0.00    +0.000 C 
ATOM     22  N   UNL     1       6.042   3.873  19.110  0.00  0.00    +0.000 NA
ATOM     23  C   UNL     1       6.194   4.571  17.938  0.00  0.00    +0.000 A 
ATOM     24  C   UNL     1       7.310   5.247  17.439  0.00  0.00    +0.000 A 
ATOM     25  N   UNL     1       7.243   5.886  16.241  0.00  0.00    +0.000 NA
ATOM     26  C   UNL     1       6.079   5.845  15.552  0.00  0.00    +0.000 A 
ATOM     27  C   UNL     1       4.923   5.195  15.961  0.00  0.00    +0.000 A 
ATOM     28  C   UNL     1       5.024   4.547  17.195  0.00  0.00    +0.000 A 
ENDBRANCH  18  19
ENDBRANCH  17  18
ENDBRANCH  16  17
ENDBRANCH  15  16
ENDBRANCH   4  15
TORSDOF 7
ENDMDL
MODEL 9
REMARK VINA RESULT:      -7.3      5.840      7.669
REMARK  Name = 
REMARK  9 active torsions:
REMARK  status: ('A' for Active; 'I' for Inactive)
REMARK    1  A    between atoms: C_1  and  O_2
REMARK    2  A    between atoms: O_2  and  C_3
REMARK    3  A    between atoms: C_6  and  C_7
REMARK    4  A    between atoms: C_10  and  O_11
REMARK    5  A    between atoms: O_11  and  C_12
REMARK    6  A    between atoms: C_12  and  C_13
REMARK    7  A    between atoms: C_13  and  C_14
REMARK    8  A    between atoms: C_14  and  N_15
REMARK    9  A    between atoms: C_16  and  C_17
REMARK                            x       y       z     vdW  Elec       q    Type
REMARK                         _______ _______ _______ _____ _____    ______ ____
ROOT
ATOM      1  C   UNL     1       4.018   3.225  17.523  0.00  0.00    +0.000 C 
ATOM      2  C   UNL     1       2.637   3.137  16.882  0.00  0.00    +0.000 C 
ATOM      3  C   UNL     1       1.720   3.274  18.068  0.00  0.00    +0.000 C 
ATOM      4  C   UNL     1       2.480   4.239  18.956  0.00  0.00    +0.000 C 
ATOM      5  O   UNL     1       3.868   3.961  18.751  0.00  0.00    +0.000 OA
ENDROOT
BRANCH   1   9
ATOM      6  C   UNL     1       7.002   5.020  14.928  0.00  0.00    +0.000 A 
ATOM      7  C   UNL     1       6.909   5.381  16.283  0.00  0.00    +0.000 A 
ATOM      8  C   UNL     1       5.927   4.835  17.118  0.00  0.00    +0.000 A 
ATOM      9  C   UNL     1       5.009   3.912  16.614  0.00  0.00    +0.000 A 
ATOM     10  C   UNL     1       5.092   3.564  15.258  0.00  0.00    +0.000 A 
ATOM     11  C   UNL     1       6.082   4.095  14.420  0.00  0.00    +0.000 A 
ATOM     12 CL   UNL     1       6.103   3.445  12.819  0.00  0.00    +0.000 Cl
BRANCH   6  14
ATOM     13  C   UNL     1       8.071   5.610  12.878  0.00  0.00    +0.000 C 
ATOM     14  O   UNL     1       8.073   5.592  14.299  0.00  0.00    +0.000 OA
ENDBRANCH   6  14
ENDBRANCH   1   9
BRANCH   4  15
ATOM     15  O   UNL     1       2.090   4.023  20.304  0.00  0.00    +0.000 OA
BRANCH  15  16
ATOM     16  C   UNL     1       2.261   5.184  21.112  0.00  0.00    +0.000 C 
BRANCH  16  17
ATOM     17  C   UNL     1       1.319   6.269  20.595  0.00  0.00    +0.000 C 
BRANCH  17  18
ATOM     18  C   UNL     1       1.885   7.668  20.854  0.00  0.00    +0.000 C 
BRANCH  18  19
ATOM     19  N   UNL     1       1.524   8.630  19.826  0.00  0.00    +0.000 N 
ATOM     20  C   UNL     1       1.932   8.649  18.506  0.00  0.00    +0.000 A 
ATOM     21  C   UNL     1       2.913   7.728  17.877  0.00  0.00    +0.000 C 
ATOM     22  N   UNL     1       1.318   9.611  17.841  0.00  0.00    +0.000 NA
ATOM     23  C   UNL     1       0.497  10.233  18.746  0.00  0.00    +0.000 A 
ATOM     24  C   UNL     1      -0.386  11.302  18.566  0.00  0.00    +0.000 A 
ATOM     25  N   UNL     1      -1.113  11.773  19.613  0.00  0.00    +0.000 NA
ATOM     26  C   UNL     1      -0.962  11.182  20.821  0.00  0.00    +0.000 A 
ATOM     27  C   UNL     1      -0.119  10.114  21.096  0.00  0.00    +0.000 A 
ATOM     28  C   UNL     1       0.613   9.651  19.999  0.00  0.00    +0.000 A 
ENDBRANCH  18  19
ENDBRANCH  17  18
ENDBRANCH  16  17
ENDBRANCH  15  16
ENDBRANCH   4  15
TORSDOF 7
ENDMDL
