MODEL 1
REMARK VINA RESULT:      -7.4      0.000      0.000
REMARK  Name = 
REMARK  2 active torsions:
REMARK  status: ('A' for Active; 'I' for Inactive)
REMARK    1  A    between atoms: C_2  and  C_12
REMARK    2  A    between atoms: N_3  and  C_4
REMARK                            x       y       z     vdW  Elec       q    Type
REMARK                         _______ _______ _______ _____ _____    ______ ____
ROOT
ATOM      1  O   UNL     1       3.051   4.475  18.925  0.00  0.00    +0.000 OA
ATOM      2  C   UNL     1       3.360   5.652  18.784  0.00  0.00    +0.000 C 
ATOM      3  N   UNL     1       4.654   6.081  18.552  0.00  0.00    +0.000 N 
ATOM      4  H   UNL     1       4.831   7.078  18.533  0.00  0.00    +0.000 HD
ENDROOT
BRANCH   2   5
ATOM      5  C   UNL     1       2.331   6.772  18.751  0.00  0.00    +0.000 C 
ATOM      6  C   UNL     1       2.800   7.957  17.885  0.00  0.00    +0.000 C 
ATOM      7  C   UNL     1       1.746   9.060  17.870  0.00  0.00    +0.000 C 
ATOM      8  N   UNL     1       1.244   9.356  19.199  0.00  0.00    +0.000 N 
ATOM      9  C   UNL     1       0.561  10.466  19.597  0.00  0.00    +0.000 A 
ATOM     10  C   UNL     1       0.296  10.256  20.930  0.00  0.00    +0.000 A 
ATOM     11  N   UNL     1       0.785   9.037  21.337  0.00  0.00    +0.000 NA
ATOM     12  C   UNL     1       1.356   8.513  20.275  0.00  0.00    +0.000 A 
ATOM     13  C   UNL     1       2.090   7.220  20.199  0.00  0.00    +0.000 C 
ENDBRANCH   2   5
BRANCH   3  14
ATOM     14  C   UNL     1       5.792   5.133  18.400  0.00  0.00    +0.000 C 
ATOM     15  C   UNL     1       7.127   5.864  18.542  0.00  0.00    +0.000 C 
ATOM     16  C   UNL     1       7.678   4.638  17.855  0.00  0.00    +0.000 C 
ATOM     17  C   UNL     1       6.324   4.667  16.833  0.00  0.00    +0.000 C 
ATOM     18  C   UNL     1       5.145   5.273  16.051  0.00  0.00    +0.000 C 
ATOM     19  C   UNL     1       5.192   4.726  14.638  0.00  0.00    +0.000 C 
ATOM     20  C   UNL     1       6.653   4.733  14.325  0.00  0.00    +0.000 C 
ATOM     21  C   UNL     1       7.337   4.444  15.655  0.00  0.00    +0.000 C 
ENDBRANCH   3  14
TORSDOF 2
ENDMDL
MODEL 2
REMARK VINA RESULT:      -7.1      2.545      7.687
REMARK  Name = 
REMARK  2 active torsions:
REMARK  status: ('A' for Active; 'I' for Inactive)
REMARK    1  A    between atoms: C_2  and  C_12
REMARK    2  A    between atoms: N_3  and  C_4
REMARK                            x       y       z     vdW  Elec       q    Type
REMARK                         _______ _______ _______ _____ _____    ______ ____
ROOT
ATOM      1  O   UNL     1       2.353   9.982  17.446  0.00  0.00    +0.000 OA
ATOM      2  C   UNL     1       1.798   9.203  18.211  0.00  0.00    +0.000 C 
ATOM      3  N   UNL     1       0.728   9.553  19.015  0.00  0.00    +0.000 N 
ATOM      4  H   UNL     1       0.386   8.870  19.680  0.00  0.00    +0.000 HD
ENDROOT
BRANCH   2   5
ATOM      5  C   UNL     1       2.163   7.729  18.290  0.00  0.00    +0.000 C 
ATOM      6  C   UNL     1       2.213   7.227  19.746  0.00  0.00    +0.000 C 
ATOM      7  C   UNL     1       2.578   5.747  19.790  0.00  0.00    +0.000 C 
ATOM      8  N   UNL     1       3.707   5.435  18.933  0.00  0.00    +0.000 N 
ATOM      9  C   UNL     1       4.490   4.321  18.968  0.00  0.00    +0.000 A 
ATOM     10  C   UNL     1       5.396   4.495  17.949  0.00  0.00    +0.000 A 
ATOM     11  N   UNL     1       5.162   5.678  17.287  0.00  0.00    +0.000 NA
ATOM     12  C   UNL     1       4.139   6.230  17.902  0.00  0.00    +0.000 A 
ATOM     13  C   UNL     1       3.528   7.555  17.610  0.00  0.00    +0.000 C 
ENDBRANCH   2   5
BRANCH   3  14
ATOM     14  C   UNL     1       0.117  10.911  18.983  0.00  0.00    +0.000 C 
ATOM     15  C   UNL     1      -0.629  11.200  20.286  0.00  0.00    +0.000 C 
ATOM     16  C   UNL     1      -1.302  12.271  19.464  0.00  0.00    +0.000 C 
ATOM     17  C   UNL     1      -1.382  11.163  18.181  0.00  0.00    +0.000 C 
ATOM     18  C   UNL     1      -1.455   9.790  17.490  0.00  0.00    +0.000 C 
ATOM     19  C   UNL     1      -2.545   9.853  16.439  0.00  0.00    +0.000 C 
ATOM     20  C   UNL     1      -3.618  10.642  17.117  0.00  0.00    +0.000 C 
ATOM     21  C   UNL     1      -2.872  11.625  18.010  0.00  0.00    +0.000 C 
ENDBRANCH   3  14
TORSDOF 2
ENDMDL
MODEL 3
REMARK VINA RESULT:      -7.1      3.210      4.593
REMARK  Name = 
REMARK  2 active torsions:
REMARK  status: ('A' for Active; 'I' for Inactive)
REMARK    1  A    between atoms: C_2  and  C_12
REMARK    2  A    between atoms: N_3  and  C_4
REMARK                            x       y       z     vdW  Elec       q    Type
REMARK                         _______ _______ _______ _____ _____    ______ ____
ROOT
ATOM      1  O   UNL     1       3.263   7.779  17.340  0.00  0.00    +0.000 OA
ATOM      2  C   UNL     1       2.447   7.697  18.250  0.00  0.00    +0.000 C 
ATOM      3  N   UNL     1       2.028   6.497  18.796  0.00  0.00    +0.000 N 
ATOM      4  H   UNL     1       1.287   6.518  19.486  0.00  0.00    +0.000 HD
ENDROOT
BRANCH   2   5
ATOM      5  C   UNL     1       1.874   8.918  18.952  0.00  0.00    +0.000 C 
ATOM      6  C   UNL     1       1.348   8.579  20.360  0.00  0.00    +0.000 C 
ATOM      7  C   UNL     1       0.785   9.824  21.037  0.00  0.00    +0.000 C 
ATOM      8  N   UNL     1      -0.089  10.578  20.157  0.00  0.00    +0.000 N 
ATOM      9  C   UNL     1      -0.997  11.531  20.510  0.00  0.00    +0.000 A 
ATOM     10  C   UNL     1      -1.545  11.951  19.321  0.00  0.00    +0.000 A 
ATOM     11  N   UNL     1      -0.974  11.288  18.261  0.00  0.00    +0.000 NA
ATOM     12  C   UNL     1      -0.100  10.461  18.790  0.00  0.00    +0.000 A 
ATOM     13  C   UNL     1       0.746   9.471  18.070  0.00  0.00    +0.000 C 
ENDBRANCH   2   5
BRANCH   3  14
ATOM     14  C   UNL     1       2.577   5.186  18.353  0.00  0.00    +0.000 C 
ATOM     15  C   UNL     1       1.578   4.456  17.456  0.00  0.00    +0.000 C 
ATOM     16  C   UNL     1       2.412   3.246  17.799  0.00  0.00    +0.000 C 
ATOM     17  C   UNL     1       2.493   3.820  19.394  0.00  0.00    +0.000 C 
ATOM     18  C   UNL     1       2.048   4.578  20.657  0.00  0.00    +0.000 C 
ATOM     19  C   UNL     1       2.204   3.644  21.841  0.00  0.00    +0.000 C 
ATOM     20  C   UNL     1       1.738   2.333  21.297  0.00  0.00    +0.000 C 
ATOM     21  C   UNL     1       2.150   2.352  19.831  0.00  0.00    +0.000 C 
ENDBRANCH   3  14
TORSDOF 2
ENDMDL
MODEL 4
REMARK VINA RESULT:      -7.1      3.772      6.296
REMARK  Name = 
REMARK  2 active torsions:
REMARK  status: ('A' for Active; 'I' for Inactive)
REMARK    1  A    between atoms: C_2  and  C_12
REMARK    2  A    between atoms: N_3  and  C_4
REMARK                            x       y       z     vdW  Elec       q    Type
REMARK                         _______ _______ _______ _____ _____    ______ ____
ROOT
ATOM      1  O   UNL     1       5.176   3.246  16.218  0.00  0.00    +0.000 OA
ATOM      2  C   UNL     1       5.161   4.150  17.045  0.00  0.00    +0.000 C 
ATOM      3  N   UNL     1       4.061   4.452  17.828  0.00  0.00    +0.000 N 
ATOM      4  H   UNL     1       4.109   5.269  18.424  0.00  0.00    +0.000 HD
ENDROOT
BRANCH   2   5
ATOM      5  C   UNL     1       6.390   4.983  17.374  0.00  0.00    +0.000 C 
ATOM      6  C   UNL     1       6.743   4.921  18.872  0.00  0.00    +0.000 C 
ATOM      7  C   UNL     1       7.980   5.762  19.167  0.00  0.00    +0.000 C 
ATOM      8  N   UNL     1       7.913   7.073  18.547  0.00  0.00    +0.000 N 
ATOM      9  C   UNL     1       8.658   8.171  18.851  0.00  0.00    +0.000 A 
ATOM     10  C   UNL     1       8.232   9.139  17.973  0.00  0.00    +0.000 A 
ATOM     11  N   UNL     1       7.263   8.642  17.133  0.00  0.00    +0.000 NA
ATOM     12  C   UNL     1       7.084   7.392  17.501  0.00  0.00    +0.000 A 
ATOM     13  C   UNL     1       6.097   6.427  16.945  0.00  0.00    +0.000 C 
ENDBRANCH   2   5
BRANCH   3  14
ATOM     14  C   UNL     1       2.800   3.662  17.769  0.00  0.00    +0.000 C 
ATOM     15  C   UNL     1       1.585   4.587  17.719  0.00  0.00    +0.000 C 
ATOM     16  C   UNL     1       0.838   3.350  18.155  0.00  0.00    +0.000 C 
ATOM     17  C   UNL     1       2.124   3.009  19.209  0.00  0.00    +0.000 C 
ATOM     18  C   UNL     1       3.326   3.298  20.124  0.00  0.00    +0.000 C 
ATOM     19  C   UNL     1       3.128   2.525  21.414  0.00  0.00    +0.000 C 
ATOM     20  C   UNL     1       1.665   2.682  21.676  0.00  0.00    +0.000 C 
ATOM     21  C   UNL     1       1.025   2.729  20.294  0.00  0.00    +0.000 C 
ENDBRANCH   3  14
TORSDOF 2
ENDMDL
MODEL 5
REMARK VINA RESULT:      -7.0      2.647      7.493
REMARK  Name = 
REMARK  2 active torsions:
REMARK  status: ('A' for Active; 'I' for Inactive)
REMARK    1  A    between atoms: C_2  and  C_12
REMARK    2  A    between atoms: N_3  and  C_4
REMARK                            x       y       z     vdW  Elec       q    Type
REMARK                         _______ _______ _______ _____ _____    ______ ____
ROOT
ATOM      1  O   UNL     1       2.298   8.536  17.360  0.00  0.00    +0.000 OA
ATOM      2  C   UNL     1       2.241   8.110  18.508  0.00  0.00    +0.000 C 
ATOM      3  N   UNL     1       1.447   8.670  19.492  0.00  0.00    +0.000 N 
ATOM      4  H   UNL     1       1.526   8.307  20.434  0.00  0.00    +0.000 HD
ENDROOT
BRANCH   2   5
ATOM      5  C   UNL     1       2.967   6.851  18.953  0.00  0.00    +0.000 C 
ATOM      6  C   UNL     1       3.207   5.880  17.781  0.00  0.00    +0.000 C 
ATOM      7  C   UNL     1       3.940   4.631  18.260  0.00  0.00    +0.000 C 
ATOM      8  N   UNL     1       3.360   4.087  19.474  0.00  0.00    +0.000 N 
ATOM      9  C   UNL     1       3.538   2.839  19.989  0.00  0.00    +0.000 A 
ATOM     10  C   UNL     1       2.799   2.829  21.149  0.00  0.00    +0.000 A 
ATOM     11  N   UNL     1       2.199   4.049  21.354  0.00  0.00    +0.000 NA
ATOM     12  C   UNL     1       2.549   4.792  20.327  0.00  0.00    +0.000 A 
ATOM     13  C   UNL     1       2.113   6.186  20.041  0.00  0.00    +0.000 C 
ENDBRANCH   2   5
BRANCH   3  14
ATOM     14  C   UNL     1       0.542   9.822  19.226  0.00  0.00    +0.000 C 
ATOM     15  C   UNL     1       1.343  11.115  19.073  0.00  0.00    +0.000 C 
ATOM     16  C   UNL     1       0.011  11.772  19.337  0.00  0.00    +0.000 C 
ATOM     17  C   UNL     1      -0.274  10.596  20.527  0.00  0.00    +0.000 C 
ATOM     18  C   UNL     1       0.067   9.552  21.605  0.00  0.00    +0.000 C 
ATOM     19  C   UNL     1      -0.810   9.824  22.811  0.00  0.00    +0.000 C 
ATOM     20  C   UNL     1      -0.816  11.316  22.891  0.00  0.00    +0.000 C 
ATOM     21  C   UNL     1      -0.737  11.783  21.444  0.00  0.00    +0.000 C 
ENDBRANCH   3  14
TORSDOF 2
ENDMDL
MODEL 6
REMARK VINA RESULT:      -7.0      2.244      7.570
REMARK  Name = 
REMARK  2 active torsions:
REMARK  status: ('A' for Active; 'I' for Inactive)
REMARK    1  A    between atoms: C_2  and  C_12
REMARK    2  A    between atoms: N_3  and  C_4
REMARK                            x       y       z     vdW  Elec       q    Type
REMARK                         _______ _______ _______ _____ _____    ______ ____
ROOT
ATOM      1  O   UNL     1       2.393   9.009  17.082  0.00  0.00    +0.000 OA
ATOM      2  C   UNL     1       2.340   8.347  18.112  0.00  0.00    +0.000 C 
ATOM      3  N   UNL     1       1.529   8.667  19.186  0.00  0.00    +0.000 N 
ATOM      4  H   UNL     1       1.613   8.112  20.029  0.00  0.00    +0.000 HD
ENDROOT
BRANCH   2   5
ATOM      5  C   UNL     1       3.093   7.038  18.284  0.00  0.00    +0.000 C 
ATOM      6  C   UNL     1       4.213   6.876  17.239  0.00  0.00    +0.000 C 
ATOM      7  C   UNL     1       4.950   5.556  17.442  0.00  0.00    +0.000 C 
ATOM      8  N   UNL     1       4.038   4.442  17.626  0.00  0.00    +0.000 N 
ATOM      9  C   UNL     1       4.319   3.114  17.511  0.00  0.00    +0.000 A 
ATOM     10  C   UNL     1       3.136   2.478  17.802  0.00  0.00    +0.000 A 
ATOM     11  N   UNL     1       2.155   3.391  18.110  0.00  0.00    +0.000 NA
ATOM     12  C   UNL     1       2.723   4.572  17.994  0.00  0.00    +0.000 A 
ATOM     13  C   UNL     1       2.071   5.899  18.164  0.00  0.00    +0.000 C 
ENDBRANCH   2   5
BRANCH   3  14
ATOM     14  C   UNL     1       0.600   9.830  19.164  0.00  0.00    +0.000 C 
ATOM     15  C   UNL     1       1.377  11.144  19.233  0.00  0.00    +0.000 C 
ATOM     16  C   UNL     1       0.043  11.714  19.651  0.00  0.00    +0.000 C 
ATOM     17  C   UNL     1      -0.188  10.332  20.608  0.00  0.00    +0.000 C 
ATOM     18  C   UNL     1       0.201   9.113  21.462  0.00  0.00    +0.000 C 
ATOM     19  C   UNL     1      -0.643   9.137  22.722  0.00  0.00    +0.000 C 
ATOM     20  C   UNL     1      -0.669  10.588  23.078  0.00  0.00    +0.000 C 
ATOM     21  C   UNL     1      -0.640  11.317  21.742  0.00  0.00    +0.000 C 
ENDBRANCH   3  14
TORSDOF 2
ENDMDL
MODEL 7
REMARK VINA RESULT:      -6.9      3.045      4.848
REMARK  Name = 
REMARK  2 active torsions:
REMARK  status: ('A' for Active; 'I' for Inactive)
REMARK    1  A    between atoms: C_2  and  C_12
REMARK    2  A    between atoms: N_3  and  C_4
REMARK                            x       y       z     vdW  Elec       q    Type
REMARK                         _______ _______ _______ _____ _____    ______ ____
ROOT
ATOM      1  O   UNL     1       1.810   8.922  18.746  0.00  0.00    +0.000 OA
ATOM      2  C   UNL     1       1.675   8.501  19.888  0.00  0.00    +0.000 C 
ATOM      3  N   UNL     1       2.126   7.262  20.305  0.00  0.00    +0.000 N 
ATOM      4  H   UNL     1       1.897   6.960  21.244  0.00  0.00    +0.000 HD
ENDROOT
BRANCH   2   5
ATOM      5  C   UNL     1       1.079   9.341  21.008  0.00  0.00    +0.000 C 
ATOM      6  C   UNL     1       0.031   8.556  21.819  0.00  0.00    +0.000 C 
ATOM      7  C   UNL     1      -0.543   9.424  22.934  0.00  0.00    +0.000 C 
ATOM      8  N   UNL     1      -0.910  10.747  22.465  0.00  0.00    +0.000 N 
ATOM      9  C   UNL     1      -1.727  11.647  23.082  0.00  0.00    +0.000 A 
ATOM     10  C   UNL     1      -1.733  12.742  22.251  0.00  0.00    +0.000 A 
ATOM     11  N   UNL     1      -0.923  12.530  21.160  0.00  0.00    +0.000 NA
ATOM     12  C   UNL     1      -0.439  11.317  21.310  0.00  0.00    +0.000 A 
ATOM     13  C   UNL     1       0.449  10.584  20.366  0.00  0.00    +0.000 C 
ENDBRANCH   2   5
BRANCH   3  14
ATOM     14  C   UNL     1       2.870   6.340  19.402  0.00  0.00    +0.000 C 
ATOM     15  C   UNL     1       2.419   6.522  17.953  0.00  0.00    +0.000 C 
ATOM     16  C   UNL     1       3.054   5.166  17.764  0.00  0.00    +0.000 C 
ATOM     17  C   UNL     1       2.378   4.700  19.248  0.00  0.00    +0.000 C 
ATOM     18  C   UNL     1       1.377   4.698  20.416  0.00  0.00    +0.000 C 
ATOM     19  C   UNL     1       1.015   3.258  20.719  0.00  0.00    +0.000 C 
ATOM     20  C   UNL     1       0.902   2.649  19.360  0.00  0.00    +0.000 C 
ATOM     21  C   UNL     1       1.934   3.385  18.516  0.00  0.00    +0.000 C 
ENDBRANCH   3  14
TORSDOF 2
ENDMDL
MODEL 8
REMARK VINA RESULT:      -6.8      1.708      2.625
REMARK  Name = 
REMARK  2 active torsions:
REMARK  status: ('A' for Active; 'I' for Inactive)
REMARK    1  A    between atoms: C_2  and  C_12
REMARK    2  A    between atoms: N_3  and  C_4
REMARK                            x       y       z     vdW  Elec       q    Type
REMARK                         _______ _______ _______ _____ _____    ______ ____
ROOT
ATOM      1  O   UNL     1       1.354   5.519  20.628  0.00  0.00    +0.000 OA
ATOM      2  C   UNL     1       1.989   6.413  20.083  0.00  0.00    +0.000 C 
ATOM      3  N   UNL     1       2.840   6.204  19.012  0.00  0.00    +0.000 N 
ATOM      4  H   UNL     1       3.390   6.986  18.679  0.00  0.00    +0.000 HD
ENDROOT
BRANCH   2   5
ATOM      5  C   UNL     1       1.836   7.878  20.462  0.00  0.00    +0.000 C 
ATOM      6  C   UNL     1       0.697   8.092  21.478  0.00  0.00    +0.000 C 
ATOM      7  C   UNL     1       0.572   9.568  21.839  0.00  0.00    +0.000 C 
ATOM      8  N   UNL     1       0.596  10.424  20.667  0.00  0.00    +0.000 N 
ATOM      9  C   UNL     1       0.194  11.723  20.582  0.00  0.00    +0.000 A 
ATOM     10  C   UNL     1       0.439  12.082  19.278  0.00  0.00    +0.000 A 
ATOM     11  N   UNL     1       1.000  11.036  18.583  0.00  0.00    +0.000 NA
ATOM     12  C   UNL     1       1.082  10.044  19.442  0.00  0.00    +0.000 A 
ATOM     13  C   UNL     1       1.566   8.663  19.171  0.00  0.00    +0.000 C 
ENDBRANCH   2   5
BRANCH   3  14
ATOM     14  C   UNL     1       3.022   4.864  18.389  0.00  0.00    +0.000 C 
ATOM     15  C   UNL     1       3.938   3.989  19.245  0.00  0.00    +0.000 C 
ATOM     16  C   UNL     1       4.076   3.186  17.975  0.00  0.00    +0.000 C 
ATOM     17  C   UNL     1       4.163   4.650  17.121  0.00  0.00    +0.000 C 
ATOM     18  C   UNL     1       4.454   6.142  16.883  0.00  0.00    +0.000 C 
ATOM     19  C   UNL     1       5.210   6.267  15.574  0.00  0.00    +0.000 C 
ATOM     20  C   UNL     1       6.145   5.102  15.616  0.00  0.00    +0.000 C 
ATOM     21  C   UNL     1       5.382   4.017  16.363  0.00  0.00    +0.000 C 
ENDBRANCH   3  14
TORSDOF 2
ENDMDL
MODEL 9
REMARK VINA RESULT:      -6.7      2.616      4.101
REMARK  Name = 
REMARK  2 active torsions:
REMARK  status: ('A' for Active; 'I' for Inactive)
REMARK    1  A    between atoms: C_2  and  C_12
REMARK    2  A    between atoms: N_3  and  C_4
REMARK                            x       y       z     vdW  Elec       q    Type
REMARK                         _______ _______ _______ _____ _____    ______ ____
ROOT
ATOM      1  O   UNL     1       2.842   8.445  17.517  0.00  0.00    +0.000 OA
ATOM      2  C   UNL     1       2.161   8.191  18.504  0.00  0.00    +0.000 C 
ATOM      3  N   UNL     1       2.337   7.063  19.285  0.00  0.00    +0.000 N 
ATOM      4  H   UNL     1       1.674   6.890  20.030  0.00  0.00    +0.000 HD
ENDROOT
BRANCH   2   5
ATOM      5  C   UNL     1       1.103   9.144  19.038  0.00  0.00    +0.000 C 
ATOM      6  C   UNL     1       1.440  10.614  18.722  0.00  0.00    +0.000 C 
ATOM      7  C   UNL     1       0.360  11.542  19.268  0.00  0.00    +0.000 C 
ATOM      8  N   UNL     1      -0.003  11.216  20.634  0.00  0.00    +0.000 N 
ATOM      9  C   UNL     1      -0.670  12.003  21.524  0.00  0.00    +0.000 A 
ATOM     10  C   UNL     1      -0.782  11.235  22.658  0.00  0.00    +0.000 A 
ATOM     11  N   UNL     1      -0.217   9.996  22.464  0.00  0.00    +0.000 NA
ATOM     12  C   UNL     1       0.250  10.009  21.235  0.00  0.00    +0.000 A 
ATOM     13  C   UNL     1       1.008   8.924  20.555  0.00  0.00    +0.000 C 
ENDBRANCH   2   5
BRANCH   3  14
ATOM     14  C   UNL     1       3.417   6.073  19.021  0.00  0.00    +0.000 C 
ATOM     15  C   UNL     1       3.200   5.382  17.675  0.00  0.00    +0.000 C 
ATOM     16  C   UNL     1       4.148   4.353  18.242  0.00  0.00    +0.000 C 
ATOM     17  C   UNL     1       3.341   4.507  19.727  0.00  0.00    +0.000 C 
ATOM     18  C   UNL     1       2.175   4.795  20.689  0.00  0.00    +0.000 C 
ATOM     19  C   UNL     1       2.099   3.654  21.685  0.00  0.00    +0.000 C 
ATOM     20  C   UNL     1       2.368   2.453  20.839  0.00  0.00    +0.000 C 
ATOM     21  C   UNL     1       3.342   2.938  19.773  0.00  0.00    +0.000 C 
ENDBRANCH   3  14
TORSDOF 2
ENDMDL
