MODEL 1
REMARK VINA RESULT:      -5.8      0.000      0.000
REMARK  Name = 
REMARK  19 active torsions:
REMARK  status: ('A' for Active; 'I' for Inactive)
REMARK    1  A    between atoms: C_1  and  C_2
REMARK    2  A    between atoms: C_2  and  C_3
REMARK    3  A    between atoms: C_3  and  C_4
REMARK    4  A    between atoms: C_4  and  C_5
REMARK    5  A    between atoms: C_5  and  C_6
REMARK    6  A    between atoms: C_6  and  C_7
REMARK    7  A    between atoms: C_7  and  C_8
REMARK    8  A    between atoms: C_8  and  C_9
REMARK    9  A    between atoms: C_9  and  C_10
REMARK   10  A    between atoms: C_10  and  C_11
REMARK   11  A    between atoms: C_11  and  S_12
REMARK   12  A    between atoms: S_12  and  C_13
REMARK   13  A    between atoms: C_13  and  C_14
REMARK   14  A    between atoms: C_14  and  P_15
REMARK   15  A    between atoms: C_14  and  P_19
REMARK   16  A    between atoms: P_15  and  O_17
REMARK   17  A    between atoms: P_15  and  O_18
REMARK   18  A    between atoms: P_19  and  O_21
REMARK   19  A    between atoms: P_19  and  O_22
REMARK                            x       y       z     vdW  Elec       q    Type
REMARK                         _______ _______ _______ _____ _____    ______ ____
ROOT
ATOM      1  C   UNL     1       3.386   4.983  18.240  0.00  0.00    +0.000 C 
ENDROOT
BRANCH   1   2
ATOM      2  C   UNL     1       3.386   3.959  19.385  0.00  0.00    +0.000 C 
BRANCH   2   3
ATOM      3  P   UNL     1       3.711   2.224  18.901  0.00  0.00    +0.000 P 
ATOM      4  O   UNL     1       4.253   2.613  17.528  0.00  0.00    +0.000 OA
BRANCH   3   5
ATOM      5  O   UNL     1       4.018   0.585  18.443  0.00  0.00    +0.000 OA
ATOM      6  H   UNL     1       3.279   0.348  17.844  0.00  0.00    +0.000 HD
ENDBRANCH   3   5
BRANCH   3   7
ATOM      7  O   UNL     1       5.028   2.138  19.864  0.00  0.00    +0.000 OA
ATOM      8  H   UNL     1       5.390   1.226  19.861  0.00  0.00    +0.000 HD
ENDBRANCH   3   7
ENDBRANCH   2   3
BRANCH   2   9
ATOM      9  P   UNL     1       1.634   3.845  19.989  0.00  0.00    +0.000 P 
ATOM     10  O   UNL     1       0.974   5.074  20.501  0.00  0.00    +0.000 OA
BRANCH   9  11
ATOM     11  O   UNL     1       1.551   2.683  21.109  0.00  0.00    +0.000 OA
ATOM     12  H   UNL     1       0.735   2.163  20.995  0.00  0.00    +0.000 HD
ENDBRANCH   9  11
BRANCH   9  13
ATOM     13  O   UNL     1       0.790   3.123  18.831  0.00  0.00    +0.000 OA
ATOM     14  H   UNL     1       0.592   3.643  18.030  0.00  0.00    +0.000 HD
ENDBRANCH   9  13
ENDBRANCH   2   9
ENDBRANCH   1   2
BRANCH   1  15
ATOM     15  S   UNL     1       4.619   6.297  18.491  0.00  0.00    +0.000 S 
BRANCH  15  16
ATOM     16  C   UNL     1       6.078   5.277  18.840  0.00  0.00    +0.000 C 
BRANCH  16  17
ATOM     17  C   UNL     1       7.288   6.015  18.281  0.00  0.00    +0.000 C 
BRANCH  17  18
ATOM     18  C   UNL     1       7.177   6.234  16.775  0.00  0.00    +0.000 C 
BRANCH  18  19
ATOM     19  C   UNL     1       7.102   4.885  16.059  0.00  0.00    +0.000 C 
BRANCH  19  20
ATOM     20  C   UNL     1       5.867   4.794  15.171  0.00  0.00    +0.000 C 
BRANCH  20  21
ATOM     21  C   UNL     1       5.937   3.565  14.265  0.00  0.00    +0.000 C 
BRANCH  21  22
ATOM     22  C   UNL     1       6.363   3.951  12.851  0.00  0.00    +0.000 C 
BRANCH  22  23
ATOM     23  C   UNL     1       6.153   2.792  11.880  0.00  0.00    +0.000 C 
BRANCH  23  24
ATOM     24  C   UNL     1       4.672   2.608  11.555  0.00  0.00    +0.000 C 
BRANCH  24  26
ATOM     25  C   UNL     1       3.079   3.660   9.914  0.00  0.00    +0.000 C 
ATOM     26  C   UNL     1       4.051   3.911  11.057  0.00  0.00    +0.000 C 
ENDBRANCH  24  26
ENDBRANCH  23  24
ENDBRANCH  22  23
ENDBRANCH  21  22
ENDBRANCH  20  21
ENDBRANCH  19  20
ENDBRANCH  18  19
ENDBRANCH  17  18
ENDBRANCH  16  17
ENDBRANCH  15  16
ENDBRANCH   1  15
TORSDOF 18
ENDMDL
MODEL 2
REMARK VINA RESULT:      -5.8      1.461      2.036
REMARK  Name = 
REMARK  19 active torsions:
REMARK  status: ('A' for Active; 'I' for Inactive)
REMARK    1  A    between atoms: C_1  and  C_2
REMARK    2  A    between atoms: C_2  and  C_3
REMARK    3  A    between atoms: C_3  and  C_4
REMARK    4  A    between atoms: C_4  and  C_5
REMARK    5  A    between atoms: C_5  and  C_6
REMARK    6  A    between atoms: C_6  and  C_7
REMARK    7  A    between atoms: C_7  and  C_8
REMARK    8  A    between atoms: C_8  and  C_9
REMARK    9  A    between atoms: C_9  and  C_10
REMARK   10  A    between atoms: C_10  and  C_11
REMARK   11  A    between atoms: C_11  and  S_12
REMARK   12  A    between atoms: S_12  and  C_13
REMARK   13  A    between atoms: C_13  and  C_14
REMARK   14  A    between atoms: C_14  and  P_15
REMARK   15  A    between atoms: C_14  and  P_19
REMARK   16  A    between atoms: P_15  and  O_17
REMARK   17  A    between atoms: P_15  and  O_18
REMARK   18  A    between atoms: P_19  and  O_21
REMARK   19  A    between atoms: P_19  and  O_22
REMARK                            x       y       z     vdW  Elec       q    Type
REMARK                         _______ _______ _______ _____ _____    ______ ____
ROOT
ATOM      1  C   UNL     1       3.773   4.101  18.872  0.00  0.00    +0.000 C 
ENDROOT
BRANCH   1   2
ATOM      2  C   UNL     1       2.990   3.035  19.652  0.00  0.00    +0.000 C 
BRANCH   2   3
ATOM      3  P   UNL     1       1.537   2.327  18.793  0.00  0.00    +0.000 P 
ATOM      4  O   UNL     1       1.195   3.643  18.096  0.00  0.00    +0.000 OA
BRANCH   3   5
ATOM      5  O   UNL     1       0.163   1.660  17.981  0.00  0.00    +0.000 OA
ATOM      6  H   UNL     1       0.103   2.156  17.138  0.00  0.00    +0.000 HD
ENDBRANCH   3   5
BRANCH   3   7
ATOM      7  O   UNL     1       2.480   1.522  17.731  0.00  0.00    +0.000 OA
ATOM      8  H   UNL     1       3.418   1.794  17.835  0.00  0.00    +0.000 HD
ENDBRANCH   3   7
ENDBRANCH   2   3
BRANCH   2   9
ATOM      9  P   UNL     1       2.178   3.913  21.073  0.00  0.00    +0.000 P 
ATOM     10  O   UNL     1       2.317   3.341  22.438  0.00  0.00    +0.000 OA
BRANCH   9  11
ATOM     11  O   UNL     1       0.612   4.109  20.729  0.00  0.00    +0.000 OA
ATOM     12  H   UNL     1       0.178   4.639  21.424  0.00  0.00    +0.000 HD
ENDBRANCH   9  11
BRANCH   9  13
ATOM     13  O   UNL     1       2.637   5.448  20.994  0.00  0.00    +0.000 OA
ATOM     14  H   UNL     1       2.606   5.969  21.817  0.00  0.00    +0.000 HD
ENDBRANCH   9  13
ENDBRANCH   2   9
ENDBRANCH   1   2
BRANCH   1  15
ATOM     15  S   UNL     1       5.546   4.088  19.279  0.00  0.00    +0.000 S 
BRANCH  15  16
ATOM     16  C   UNL     1       6.031   5.680  18.557  0.00  0.00    +0.000 C 
BRANCH  16  17
ATOM     17  C   UNL     1       7.211   5.415  17.631  0.00  0.00    +0.000 C 
BRANCH  17  18
ATOM     18  C   UNL     1       6.940   5.895  16.208  0.00  0.00    +0.000 C 
BRANCH  18  19
ATOM     19  C   UNL     1       5.469   5.673  15.858  0.00  0.00    +0.000 C 
BRANCH  19  20
ATOM     20  C   UNL     1       5.299   4.533  14.862  0.00  0.00    +0.000 C 
BRANCH  20  21
ATOM     21  C   UNL     1       6.425   4.539  13.830  0.00  0.00    +0.000 C 
BRANCH  21  22
ATOM     22  C   UNL     1       6.161   3.518  12.727  0.00  0.00    +0.000 C 
BRANCH  22  23
ATOM     23  C   UNL     1       4.824   3.785  12.041  0.00  0.00    +0.000 C 
BRANCH  23  24
ATOM     24  C   UNL     1       4.400   2.595  11.180  0.00  0.00    +0.000 C 
BRANCH  24  26
ATOM     25  C   UNL     1       3.196   4.316   9.793  0.00  0.00    +0.000 C 
ATOM     26  C   UNL     1       3.139   2.915  10.381  0.00  0.00    +0.000 C 
ENDBRANCH  24  26
ENDBRANCH  23  24
ENDBRANCH  22  23
ENDBRANCH  21  22
ENDBRANCH  20  21
ENDBRANCH  19  20
ENDBRANCH  18  19
ENDBRANCH  17  18
ENDBRANCH  16  17
ENDBRANCH  15  16
ENDBRANCH   1  15
TORSDOF 18
ENDMDL
MODEL 3
REMARK VINA RESULT:      -5.8      4.537      7.116
REMARK  Name = 
REMARK  19 active torsions:
REMARK  status: ('A' for Active; 'I' for Inactive)
REMARK    1  A    between atoms: C_1  and  C_2
REMARK    2  A    between atoms: C_2  and  C_3
REMARK    3  A    between atoms: C_3  and  C_4
REMARK    4  A    between atoms: C_4  and  C_5
REMARK    5  A    between atoms: C_5  and  C_6
REMARK    6  A    between atoms: C_6  and  C_7
REMARK    7  A    between atoms: C_7  and  C_8
REMARK    8  A    between atoms: C_8  and  C_9
REMARK    9  A    between atoms: C_9  and  C_10
REMARK   10  A    between atoms: C_10  and  C_11
REMARK   11  A    between atoms: C_11  and  S_12
REMARK   12  A    between atoms: S_12  and  C_13
REMARK   13  A    between atoms: C_13  and  C_14
REMARK   14  A    between atoms: C_14  and  P_15
REMARK   15  A    between atoms: C_14  and  P_19
REMARK   16  A    between atoms: P_15  and  O_17
REMARK   17  A    between atoms: P_15  and  O_18
REMARK   18  A    between atoms: P_19  and  O_21
REMARK   19  A    between atoms: P_19  and  O_22
REMARK                            x       y       z     vdW  Elec       q    Type
REMARK                         _______ _______ _______ _____ _____    ______ ____
ROOT
ATOM      1  C   UNL     1       4.621   4.746  17.336  0.00  0.00    +0.000 C 
ENDROOT
BRANCH   1   2
ATOM      2  C   UNL     1       6.120   4.547  17.066  0.00  0.00    +0.000 C 
BRANCH   2   3
ATOM      3  P   UNL     1       7.248   5.652  17.991  0.00  0.00    +0.000 P 
ATOM      4  O   UNL     1       6.459   6.909  17.631  0.00  0.00    +0.000 OA
BRANCH   3   5
ATOM      5  O   UNL     1       8.314   6.697  18.864  0.00  0.00    +0.000 OA
ATOM      6  H   UNL     1       7.731   7.213  19.459  0.00  0.00    +0.000 HD
ENDBRANCH   3   5
BRANCH   3   7
ATOM      7  O   UNL     1       6.640   5.171  19.428  0.00  0.00    +0.000 OA
ATOM      8  H   UNL     1       6.975   5.747  20.148  0.00  0.00    +0.000 HD
ENDBRANCH   3   7
ENDBRANCH   2   3
BRANCH   2   9
ATOM      9  P   UNL     1       6.418   5.105  15.320  0.00  0.00    +0.000 P 
ATOM     10  O   UNL     1       7.810   5.412  14.897  0.00  0.00    +0.000 OA
BRANCH   9  11
ATOM     11  O   UNL     1       5.471   6.378  15.017  0.00  0.00    +0.000 OA
ATOM     12  H   UNL     1       5.782   6.847  14.221  0.00  0.00    +0.000 HD
ENDBRANCH   9  11
BRANCH   9  13
ATOM     13  O   UNL     1       5.700   4.037  14.362  0.00  0.00    +0.000 OA
ATOM     14  H   UNL     1       5.815   4.147  13.400  0.00  0.00    +0.000 HD
ENDBRANCH   9  13
ENDBRANCH   2   9
ENDBRANCH   1   2
BRANCH   1  15
ATOM     15  S   UNL     1       3.713   3.170  17.373  0.00  0.00    +0.000 S 
BRANCH  15  16
ATOM     16  C   UNL     1       3.982   2.710  19.108  0.00  0.00    +0.000 C 
BRANCH  16  17
ATOM     17  C   UNL     1       2.967   1.625  19.449  0.00  0.00    +0.000 C 
BRANCH  17  18
ATOM     18  C   UNL     1       1.538   2.158  19.443  0.00  0.00    +0.000 C 
BRANCH  18  19
ATOM     19  C   UNL     1       1.287   2.986  20.703  0.00  0.00    +0.000 C 
BRANCH  19  20
ATOM     20  C   UNL     1       0.823   4.396  20.361  0.00  0.00    +0.000 C 
BRANCH  20  21
ATOM     21  C   UNL     1       1.925   5.416  20.642  0.00  0.00    +0.000 C 
BRANCH  21  22
ATOM     22  C   UNL     1       2.371   6.108  19.356  0.00  0.00    +0.000 C 
BRANCH  22  23
ATOM     23  C   UNL     1       2.223   7.623  19.469  0.00  0.00    +0.000 C 
BRANCH  23  24
ATOM     24  C   UNL     1       2.336   8.290  18.099  0.00  0.00    +0.000 C 
BRANCH  24  26
ATOM     25  C   UNL     1       0.578   9.714  19.202  0.00  0.00    +0.000 C 
ATOM     26  C   UNL     1       1.591   9.623  18.072  0.00  0.00    +0.000 C 
ENDBRANCH  24  26
ENDBRANCH  23  24
ENDBRANCH  22  23
ENDBRANCH  21  22
ENDBRANCH  20  21
ENDBRANCH  19  20
ENDBRANCH  18  19
ENDBRANCH  17  18
ENDBRANCH  16  17
ENDBRANCH  15  16
ENDBRANCH   1  15
TORSDOF 18
ENDMDL
MODEL 4
REMARK VINA RESULT:      -5.8      4.642      7.273
REMARK  Name = 
REMARK  19 active torsions:
REMARK  status: ('A' for Active; 'I' for Inactive)
REMARK    1  A    between atoms: C_1  and  C_2
REMARK    2  A    between atoms: C_2  and  C_3
REMARK    3  A    between atoms: C_3  and  C_4
REMARK    4  A    between atoms: C_4  and  C_5
REMARK    5  A    between atoms: C_5  and  C_6
REMARK    6  A    between atoms: C_6  and  C_7
REMARK    7  A    between atoms: C_7  and  C_8
REMARK    8  A    between atoms: C_8  and  C_9
REMARK    9  A    between atoms: C_9  and  C_10
REMARK   10  A    between atoms: C_10  and  C_11
REMARK   11  A    between atoms: C_11  and  S_12
REMARK   12  A    between atoms: S_12  and  C_13
REMARK   13  A    between atoms: C_13  and  C_14
REMARK   14  A    between atoms: C_14  and  P_15
REMARK   15  A    between atoms: C_14  and  P_19
REMARK   16  A    between atoms: P_15  and  O_17
REMARK   17  A    between atoms: P_15  and  O_18
REMARK   18  A    between atoms: P_19  and  O_21
REMARK   19  A    between atoms: P_19  and  O_22
REMARK                            x       y       z     vdW  Elec       q    Type
REMARK                         _______ _______ _______ _____ _____    ______ ____
ROOT
ATOM      1  C   UNL     1       4.259   5.432  17.727  0.00  0.00    +0.000 C 
ENDROOT
BRANCH   1   2
ATOM      2  C   UNL     1       5.605   6.035  17.296  0.00  0.00    +0.000 C 
BRANCH   2   3
ATOM      3  P   UNL     1       6.326   5.354  15.759  0.00  0.00    +0.000 P 
ATOM      4  O   UNL     1       5.406   6.174  14.856  0.00  0.00    +0.000 OA
BRANCH   3   5
ATOM      5  O   UNL     1       7.007   4.711  14.304  0.00  0.00    +0.000 OA
ATOM      6  H   UNL     1       7.947   4.538  14.521  0.00  0.00    +0.000 HD
ENDBRANCH   3   5
BRANCH   3   7
ATOM      7  O   UNL     1       7.675   6.261  15.918  0.00  0.00    +0.000 OA
ATOM      8  H   UNL     1       7.585   7.096  15.410  0.00  0.00    +0.000 HD
ENDBRANCH   3   7
ENDBRANCH   2   3
BRANCH   2   9
ATOM      9  P   UNL     1       6.855   5.487  18.556  0.00  0.00    +0.000 P 
ATOM     10  O   UNL     1       6.390   5.171  19.932  0.00  0.00    +0.000 OA
BRANCH   9  11
ATOM     11  O   UNL     1       8.032   6.590  18.625  0.00  0.00    +0.000 OA
ATOM     12  H   UNL     1       7.771   7.392  18.134  0.00  0.00    +0.000 HD
ENDBRANCH   9  11
BRANCH   9  13
ATOM     13  O   UNL     1       7.687   4.287  17.892  0.00  0.00    +0.000 OA
ATOM     14  H   UNL     1       7.181   3.552  17.500  0.00  0.00    +0.000 HD
ENDBRANCH   9  13
ENDBRANCH   2   9
ENDBRANCH   1   2
BRANCH   1  15
ATOM     15  S   UNL     1       4.007   3.760  17.055  0.00  0.00    +0.000 S 
BRANCH  15  16
ATOM     16  C   UNL     1       4.113   2.801  18.591  0.00  0.00    +0.000 C 
BRANCH  16  17
ATOM     17  C   UNL     1       2.925   1.847  18.610  0.00  0.00    +0.000 C 
BRANCH  17  18
ATOM     18  C   UNL     1       1.605   2.574  18.371  0.00  0.00    +0.000 C 
BRANCH  18  19
ATOM     19  C   UNL     1       0.896   2.813  19.704  0.00  0.00    +0.000 C 
BRANCH  19  20
ATOM     20  C   UNL     1       1.888   2.891  20.857  0.00  0.00    +0.000 C 
BRANCH  20  21
ATOM     21  C   UNL     1       2.094   4.338  21.301  0.00  0.00    +0.000 C 
BRANCH  21  22
ATOM     22  C   UNL     1       1.385   5.306  20.358  0.00  0.00    +0.000 C 
BRANCH  22  23
ATOM     23  C   UNL     1       1.506   6.744  20.855  0.00  0.00    +0.000 C 
BRANCH  23  24
ATOM     24  C   UNL     1       2.053   7.661  19.761  0.00  0.00    +0.000 C 
BRANCH  24  26
ATOM     25  C   UNL     1       0.413   9.147  20.957  0.00  0.00    +0.000 C 
ATOM     26  C   UNL     1       1.325   9.002  19.750  0.00  0.00    +0.000 C 
ENDBRANCH  24  26
ENDBRANCH  23  24
ENDBRANCH  22  23
ENDBRANCH  21  22
ENDBRANCH  20  21
ENDBRANCH  19  20
ENDBRANCH  18  19
ENDBRANCH  17  18
ENDBRANCH  16  17
ENDBRANCH  15  16
ENDBRANCH   1  15
TORSDOF 18
ENDMDL
MODEL 5
REMARK VINA RESULT:      -5.7      1.559      1.963
REMARK  Name = 
REMARK  19 active torsions:
REMARK  status: ('A' for Active; 'I' for Inactive)
REMARK    1  A    between atoms: C_1  and  C_2
REMARK    2  A    between atoms: C_2  and  C_3
REMARK    3  A    between atoms: C_3  and  C_4
REMARK    4  A    between atoms: C_4  and  C_5
REMARK    5  A    between atoms: C_5  and  C_6
REMARK    6  A    between atoms: C_6  and  C_7
REMARK    7  A    between atoms: C_7  and  C_8
REMARK    8  A    between atoms: C_8  and  C_9
REMARK    9  A    between atoms: C_9  and  C_10
REMARK   10  A    between atoms: C_10  and  C_11
REMARK   11  A    between atoms: C_11  and  S_12
REMARK   12  A    between atoms: S_12  and  C_13
REMARK   13  A    between atoms: C_13  and  C_14
REMARK   14  A    between atoms: C_14  and  P_15
REMARK   15  A    between atoms: C_14  and  P_19
REMARK   16  A    between atoms: P_15  and  O_17
REMARK   17  A    between atoms: P_15  and  O_18
REMARK   18  A    between atoms: P_19  and  O_21
REMARK   19  A    between atoms: P_19  and  O_22
REMARK                            x       y       z     vdW  Elec       q    Type
REMARK                         _______ _______ _______ _____ _____    ______ ____
ROOT
ATOM      1  C   UNL     1       3.570   4.743  17.674  0.00  0.00    +0.000 C 
ENDROOT
BRANCH   1   2
ATOM      2  C   UNL     1       3.209   4.089  19.016  0.00  0.00    +0.000 C 
BRANCH   2   3
ATOM      3  P   UNL     1       4.196   2.618  19.474  0.00  0.00    +0.000 P 
ATOM      4  O   UNL     1       5.438   3.442  19.805  0.00  0.00    +0.000 OA
BRANCH   3   5
ATOM      5  O   UNL     1       5.129   1.227  19.908  0.00  0.00    +0.000 OA
ATOM      6  H   UNL     1       5.279   1.315  20.872  0.00  0.00    +0.000 HD
ENDBRANCH   3   5
BRANCH   3   7
ATOM      7  O   UNL     1       3.408   2.457  20.896  0.00  0.00    +0.000 OA
ATOM      8  H   UNL     1       2.644   1.849  20.794  0.00  0.00    +0.000 HD
ENDBRANCH   3   7
ENDBRANCH   2   3
BRANCH   2   9
ATOM      9  P   UNL     1       1.523   3.341  18.800  0.00  0.00    +0.000 P 
ATOM     10  O   UNL     1       0.557   3.424  19.926  0.00  0.00    +0.000 OA
BRANCH   9  11
ATOM     11  O   UNL     1       1.698   1.799  18.353  0.00  0.00    +0.000 OA
ATOM     12  H   UNL     1       1.475   1.206  19.095  0.00  0.00    +0.000 HD
ENDBRANCH   9  11
BRANCH   9  13
ATOM     13  O   UNL     1       0.929   3.924  17.429  0.00  0.00    +0.000 OA
ATOM     14  H   UNL     1       1.431   4.634  16.987  0.00  0.00    +0.000 HD
ENDBRANCH   9  13
ENDBRANCH   2   9
ENDBRANCH   1   2
BRANCH   1  15
ATOM     15  S   UNL     1       3.530   6.560  17.760  0.00  0.00    +0.000 S 
BRANCH  15  16
ATOM     16  C   UNL     1       5.221   6.923  17.211  0.00  0.00    +0.000 C 
BRANCH  16  17
ATOM     17  C   UNL     1       6.154   5.994  17.977  0.00  0.00    +0.000 C 
BRANCH  17  18
ATOM     18  C   UNL     1       7.402   5.647  17.171  0.00  0.00    +0.000 C 
BRANCH  18  19
ATOM     19  C   UNL     1       7.087   5.705  15.676  0.00  0.00    +0.000 C 
BRANCH  19  20
ATOM     20  C   UNL     1       6.711   4.333  15.132  0.00  0.00    +0.000 C 
BRANCH  20  21
ATOM     21  C   UNL     1       5.374   4.387  14.395  0.00  0.00    +0.000 C 
BRANCH  21  22
ATOM     22  C   UNL     1       5.422   3.560  13.113  0.00  0.00    +0.000 C 
BRANCH  22  23
ATOM     23  C   UNL     1       6.756   3.741  12.393  0.00  0.00    +0.000 C 
BRANCH  23  24
ATOM     24  C   UNL     1       7.028   2.579  11.439  0.00  0.00    +0.000 C 
BRANCH  24  26
ATOM     25  C   UNL     1       6.220   0.202  11.269  0.00  0.00    +0.000 C 
ATOM     26  C   UNL     1       5.810   1.665  11.322  0.00  0.00    +0.000 C 
ENDBRANCH  24  26
ENDBRANCH  23  24
ENDBRANCH  22  23
ENDBRANCH  21  22
ENDBRANCH  20  21
ENDBRANCH  19  20
ENDBRANCH  18  19
ENDBRANCH  17  18
ENDBRANCH  16  17
ENDBRANCH  15  16
ENDBRANCH   1  15
TORSDOF 18
ENDMDL
MODEL 6
REMARK VINA RESULT:      -5.7      4.215      7.805
REMARK  Name = 
REMARK  19 active torsions:
REMARK  status: ('A' for Active; 'I' for Inactive)
REMARK    1  A    between atoms: C_1  and  C_2
REMARK    2  A    between atoms: C_2  and  C_3
REMARK    3  A    between atoms: C_3  and  C_4
REMARK    4  A    between atoms: C_4  and  C_5
REMARK    5  A    between atoms: C_5  and  C_6
REMARK    6  A    between atoms: C_6  and  C_7
REMARK    7  A    between atoms: C_7  and  C_8
REMARK    8  A    between atoms: C_8  and  C_9
REMARK    9  A    between atoms: C_9  and  C_10
REMARK   10  A    between atoms: C_10  and  C_11
REMARK   11  A    between atoms: C_11  and  S_12
REMARK   12  A    between atoms: S_12  and  C_13
REMARK   13  A    between atoms: C_13  and  C_14
REMARK   14  A    between atoms: C_14  and  P_15
REMARK   15  A    between atoms: C_14  and  P_19
REMARK   16  A    between atoms: P_15  and  O_17
REMARK   17  A    between atoms: P_15  and  O_18
REMARK   18  A    between atoms: P_19  and  O_21
REMARK   19  A    between atoms: P_19  and  O_22
REMARK                            x       y       z     vdW  Elec       q    Type
REMARK                         _______ _______ _______ _____ _____    ______ ____
ROOT
ATOM      1  C   UNL     1       4.311   4.129  16.953  0.00  0.00    +0.000 C 
ENDROOT
BRANCH   1   2
ATOM      2  C   UNL     1       5.830   4.061  16.740  0.00  0.00    +0.000 C 
BRANCH   2   3
ATOM      3  P   UNL     1       6.845   4.988  17.948  0.00  0.00    +0.000 P 
ATOM      4  O   UNL     1       6.221   4.282  19.151  0.00  0.00    +0.000 OA
BRANCH   3   5
ATOM      5  O   UNL     1       7.804   5.864  19.092  0.00  0.00    +0.000 OA
ATOM      6  H   UNL     1       7.721   6.803  18.823  0.00  0.00    +0.000 HD
ENDBRANCH   3   5
BRANCH   3   7
ATOM      7  O   UNL     1       8.178   4.113  17.593  0.00  0.00    +0.000 OA
ATOM      8  H   UNL     1       8.162   3.259  18.076  0.00  0.00    +0.000 HD
ENDBRANCH   3   7
ENDBRANCH   2   3
BRANCH   2   9
ATOM      9  P   UNL     1       6.186   4.997  15.176  0.00  0.00    +0.000 P 
ATOM     10  O   UNL     1       7.598   5.311  14.837  0.00  0.00    +0.000 OA
BRANCH   9  11
ATOM     11  O   UNL     1       5.319   6.361  15.185  0.00  0.00    +0.000 OA
ATOM     12  H   UNL     1       4.722   6.375  15.956  0.00  0.00    +0.000 HD
ENDBRANCH   9  11
BRANCH   9  13
ATOM     13  O   UNL     1       5.419   4.232  13.993  0.00  0.00    +0.000 OA
ATOM     14  H   UNL     1       4.473   4.036  14.124  0.00  0.00    +0.000 HD
ENDBRANCH   9  13
ENDBRANCH   2   9
ENDBRANCH   1   2
BRANCH   1  15
ATOM     15  S   UNL     1       3.669   2.660  17.812  0.00  0.00    +0.000 S 
BRANCH  15  16
ATOM     16  C   UNL     1       1.931   3.149  17.985  0.00  0.00    +0.000 C 
BRANCH  16  17
ATOM     17  C   UNL     1       1.307   2.235  19.033  0.00  0.00    +0.000 C 
BRANCH  17  18
ATOM     18  C   UNL     1       1.062   2.962  20.351  0.00  0.00    +0.000 C 
BRANCH  18  19
ATOM     19  C   UNL     1       0.969   4.468  20.104  0.00  0.00    +0.000 C 
BRANCH  19  20
ATOM     20  C   UNL     1       2.160   5.205  20.701  0.00  0.00    +0.000 C 
BRANCH  20  21
ATOM     21  C   UNL     1       2.084   6.700  20.394  0.00  0.00    +0.000 C 
BRANCH  21  22
ATOM     22  C   UNL     1       0.911   7.350  21.123  0.00  0.00    +0.000 C 
BRANCH  22  23
ATOM     23  C   UNL     1       1.285   8.737  21.638  0.00  0.00    +0.000 C 
BRANCH  23  24
ATOM     24  C   UNL     1       0.261   9.782  21.196  0.00  0.00    +0.000 C 
BRANCH  24  26
ATOM     25  C   UNL     1      -0.681  10.248  18.909  0.00  0.00    +0.000 C 
ATOM     26  C   UNL     1       0.561  10.285  19.786  0.00  0.00    +0.000 C 
ENDBRANCH  24  26
ENDBRANCH  23  24
ENDBRANCH  22  23
ENDBRANCH  21  22
ENDBRANCH  20  21
ENDBRANCH  19  20
ENDBRANCH  18  19
ENDBRANCH  17  18
ENDBRANCH  16  17
ENDBRANCH  15  16
ENDBRANCH   1  15
TORSDOF 18
ENDMDL
MODEL 7
REMARK VINA RESULT:      -5.6      4.201      6.231
REMARK  Name = 
REMARK  19 active torsions:
REMARK  status: ('A' for Active; 'I' for Inactive)
REMARK    1  A    between atoms: C_1  and  C_2
REMARK    2  A    between atoms: C_2  and  C_3
REMARK    3  A    between atoms: C_3  and  C_4
REMARK    4  A    between atoms: C_4  and  C_5
REMARK    5  A    between atoms: C_5  and  C_6
REMARK    6  A    between atoms: C_6  and  C_7
REMARK    7  A    between atoms: C_7  and  C_8
REMARK    8  A    between atoms: C_8  and  C_9
REMARK    9  A    between atoms: C_9  and  C_10
REMARK   10  A    between atoms: C_10  and  C_11
REMARK   11  A    between atoms: C_11  and  S_12
REMARK   12  A    between atoms: S_12  and  C_13
REMARK   13  A    between atoms: C_13  and  C_14
REMARK   14  A    between atoms: C_14  and  P_15
REMARK   15  A    between atoms: C_14  and  P_19
REMARK   16  A    between atoms: P_15  and  O_17
REMARK   17  A    between atoms: P_15  and  O_18
REMARK   18  A    between atoms: P_19  and  O_21
REMARK   19  A    between atoms: P_19  and  O_22
REMARK                            x       y       z     vdW  Elec       q    Type
REMARK                         _______ _______ _______ _____ _____    ______ ____
ROOT
ATOM      1  C   UNL     1       5.989   7.301  17.499  0.00  0.00    +0.000 C 
ENDROOT
BRANCH   1   2
ATOM      2  C   UNL     1       6.951   6.109  17.611  0.00  0.00    +0.000 C 
BRANCH   2   3
ATOM      3  P   UNL     1       6.812   4.847  16.293  0.00  0.00    +0.000 P 
ATOM      4  O   UNL     1       7.474   5.739  15.245  0.00  0.00    +0.000 OA
BRANCH   3   5
ATOM      5  O   UNL     1       6.681   3.655  15.046  0.00  0.00    +0.000 OA
ATOM      6  H   UNL     1       7.595   3.329  14.913  0.00  0.00    +0.000 HD
ENDBRANCH   3   5
BRANCH   3   7
ATOM      7  O   UNL     1       8.032   3.964  16.925  0.00  0.00    +0.000 OA
ATOM      8  H   UNL     1       8.215   3.184  16.359  0.00  0.00    +0.000 HD
ENDBRANCH   3   7
ENDBRANCH   2   3
BRANCH   2   9
ATOM      9  P   UNL     1       6.415   5.138  19.100  0.00  0.00    +0.000 P 
ATOM     10  O   UNL     1       6.011   3.719  18.919  0.00  0.00    +0.000 OA
BRANCH   9  11
ATOM     11  O   UNL     1       5.227   5.945  19.840  0.00  0.00    +0.000 OA
ATOM     12  H   UNL     1       4.719   6.466  19.190  0.00  0.00    +0.000 HD
ENDBRANCH   9  11
BRANCH   9  13
ATOM     13  O   UNL     1       7.558   5.320  20.210  0.00  0.00    +0.000 OA
ATOM     14  H   UNL     1       7.754   6.228  20.509  0.00  0.00    +0.000 HD
ENDBRANCH   9  13
ENDBRANCH   2   9
ENDBRANCH   1   2
BRANCH   1  15
ATOM     15  S   UNL     1       4.454   6.867  16.626  0.00  0.00    +0.000 S 
BRANCH  15  16
ATOM     16  C   UNL     1       3.286   7.920  17.531  0.00  0.00    +0.000 C 
BRANCH  16  17
ATOM     17  C   UNL     1       2.504   7.017  18.477  0.00  0.00    +0.000 C 
BRANCH  17  18
ATOM     18  C   UNL     1       2.005   7.772  19.705  0.00  0.00    +0.000 C 
BRANCH  18  19
ATOM     19  C   UNL     1       1.590   6.780  20.791  0.00  0.00    +0.000 C 
BRANCH  19  20
ATOM     20  C   UNL     1       1.586   5.349  20.268  0.00  0.00    +0.000 C 
BRANCH  20  21
ATOM     21  C   UNL     1       2.118   4.381  21.323  0.00  0.00    +0.000 C 
BRANCH  21  22
ATOM     22  C   UNL     1       1.544   2.982  21.120  0.00  0.00    +0.000 C 
BRANCH  22  23
ATOM     23  C   UNL     1       1.271   2.709  19.643  0.00  0.00    +0.000 C 
BRANCH  23  24
ATOM     24  C   UNL     1       2.343   1.799  19.045  0.00  0.00    +0.000 C 
BRANCH  24  26
ATOM     25  C   UNL     1       2.905   3.572  17.349  0.00  0.00    +0.000 C 
ATOM     26  C   UNL     1       2.565   2.106  17.566  0.00  0.00    +0.000 C 
ENDBRANCH  24  26
ENDBRANCH  23  24
ENDBRANCH  22  23
ENDBRANCH  21  22
ENDBRANCH  20  21
ENDBRANCH  19  20
ENDBRANCH  18  19
ENDBRANCH  17  18
ENDBRANCH  16  17
ENDBRANCH  15  16
ENDBRANCH   1  15
TORSDOF 18
ENDMDL
MODEL 8
REMARK VINA RESULT:      -5.6      1.114      2.601
REMARK  Name = 
REMARK  19 active torsions:
REMARK  status: ('A' for Active; 'I' for Inactive)
REMARK    1  A    between atoms: C_1  and  C_2
REMARK    2  A    between atoms: C_2  and  C_3
REMARK    3  A    between atoms: C_3  and  C_4
REMARK    4  A    between atoms: C_4  and  C_5
REMARK    5  A    between atoms: C_5  and  C_6
REMARK    6  A    between atoms: C_6  and  C_7
REMARK    7  A    between atoms: C_7  and  C_8
REMARK    8  A    between atoms: C_8  and  C_9
REMARK    9  A    between atoms: C_9  and  C_10
REMARK   10  A    between atoms: C_10  and  C_11
REMARK   11  A    between atoms: C_11  and  S_12
REMARK   12  A    between atoms: S_12  and  C_13
REMARK   13  A    between atoms: C_13  and  C_14
REMARK   14  A    between atoms: C_14  and  P_15
REMARK   15  A    between atoms: C_14  and  P_19
REMARK   16  A    between atoms: P_15  and  O_17
REMARK   17  A    between atoms: P_15  and  O_18
REMARK   18  A    between atoms: P_19  and  O_21
REMARK   19  A    between atoms: P_19  and  O_22
REMARK                            x       y       z     vdW  Elec       q    Type
REMARK                         _______ _______ _______ _____ _____    ______ ____
ROOT
ATOM      1  C   UNL     1       3.338   5.137  18.640  0.00  0.00    +0.000 C 
ENDROOT
BRANCH   1   2
ATOM      2  C   UNL     1       3.006   3.668  18.336  0.00  0.00    +0.000 C 
BRANCH   2   3
ATOM      3  P   UNL     1       1.350   3.100  18.866  0.00  0.00    +0.000 P 
ATOM      4  O   UNL     1       1.267   4.115  20.005  0.00  0.00    +0.000 OA
BRANCH   3   5
ATOM      5  O   UNL     1      -0.217   2.564  19.368  0.00  0.00    +0.000 OA
ATOM      6  H   UNL     1      -0.263   2.780  20.323  0.00  0.00    +0.000 HD
ENDBRANCH   3   5
BRANCH   3   7
ATOM      7  O   UNL     1       0.626   3.832  17.598  0.00  0.00    +0.000 OA
ATOM      8  H   UNL     1      -0.213   3.373  17.375  0.00  0.00    +0.000 HD
ENDBRANCH   3   7
ENDBRANCH   2   3
BRANCH   2   9
ATOM      9  P   UNL     1       4.106   2.644  19.427  0.00  0.00    +0.000 P 
ATOM     10  O   UNL     1       3.723   2.455  20.850  0.00  0.00    +0.000 OA
BRANCH   9  11
ATOM     11  O   UNL     1       5.606   3.238  19.348  0.00  0.00    +0.000 OA
ATOM     12  H   UNL     1       6.090   3.042  20.172  0.00  0.00    +0.000 HD
ENDBRANCH   9  11
BRANCH   9  13
ATOM     13  O   UNL     1       4.355   1.256  18.662  0.00  0.00    +0.000 OA
ATOM     14  H   UNL     1       5.102   0.705  18.963  0.00  0.00    +0.000 HD
ENDBRANCH   9  13
ENDBRANCH   2   9
ENDBRANCH   1   2
BRANCH   1  15
ATOM     15  S   UNL     1       4.009   6.005  17.189  0.00  0.00    +0.000 S 
BRANCH  15  16
ATOM     16  C   UNL     1       5.308   6.980  17.999  0.00  0.00    +0.000 C 
BRANCH  16  17
ATOM     17  C   UNL     1       6.558   6.872  17.133  0.00  0.00    +0.000 C 
BRANCH  17  18
ATOM     18  C   UNL     1       7.534   5.828  17.667  0.00  0.00    +0.000 C 
BRANCH  18  19
ATOM     19  C   UNL     1       7.418   4.542  16.847  0.00  0.00    +0.000 C 
BRANCH  19  20
ATOM     20  C   UNL     1       7.081   4.838  15.392  0.00  0.00    +0.000 C 
BRANCH  20  21
ATOM     21  C   UNL     1       6.098   3.807  14.840  0.00  0.00    +0.000 C 
BRANCH  21  22
ATOM     22  C   UNL     1       5.673   4.163  13.418  0.00  0.00    +0.000 C 
BRANCH  22  23
ATOM     23  C   UNL     1       6.293   3.205  12.404  0.00  0.00    +0.000 C 
BRANCH  23  24
ATOM     24  C   UNL     1       5.225   2.603  11.492  0.00  0.00    +0.000 C 
BRANCH  24  26
ATOM     25  C   UNL     1       3.365   3.644  10.154  0.00  0.00    +0.000 C 
ATOM     26  C   UNL     1       3.933   3.414  11.545  0.00  0.00    +0.000 C 
ENDBRANCH  24  26
ENDBRANCH  23  24
ENDBRANCH  22  23
ENDBRANCH  21  22
ENDBRANCH  20  21
ENDBRANCH  19  20
ENDBRANCH  18  19
ENDBRANCH  17  18
ENDBRANCH  16  17
ENDBRANCH  15  16
ENDBRANCH   1  15
TORSDOF 18
ENDMDL
MODEL 9
REMARK VINA RESULT:      -5.6      4.929      7.888
REMARK  Name = 
REMARK  19 active torsions:
REMARK  status: ('A' for Active; 'I' for Inactive)
REMARK    1  A    between atoms: C_1  and  C_2
REMARK    2  A    between atoms: C_2  and  C_3
REMARK    3  A    between atoms: C_3  and  C_4
REMARK    4  A    between atoms: C_4  and  C_5
REMARK    5  A    between atoms: C_5  and  C_6
REMARK    6  A    between atoms: C_6  and  C_7
REMARK    7  A    between atoms: C_7  and  C_8
REMARK    8  A    between atoms: C_8  and  C_9
REMARK    9  A    between atoms: C_9  and  C_10
REMARK   10  A    between atoms: C_10  and  C_11
REMARK   11  A    between atoms: C_11  and  S_12
REMARK   12  A    between atoms: S_12  and  C_13
REMARK   13  A    between atoms: C_13  and  C_14
REMARK   14  A    between atoms: C_14  and  P_15
REMARK   15  A    between atoms: C_14  and  P_19
REMARK   16  A    between atoms: P_15  and  O_17
REMARK   17  A    between atoms: P_15  and  O_18
REMARK   18  A    between atoms: P_19  and  O_21
REMARK   19  A    between atoms: P_19  and  O_22
REMARK                            x       y       z     vdW  Elec       q    Type
REMARK                         _______ _______ _______ _____ _____    ______ ____
ROOT
ATOM      1  C   UNL     1       4.116   5.066  17.345  0.00  0.00    +0.000 C 
ENDROOT
BRANCH   1   2
ATOM      2  C   UNL     1       5.620   4.791  17.195  0.00  0.00    +0.000 C 
BRANCH   2   3
ATOM      3  P   UNL     1       6.645   5.150  18.668  0.00  0.00    +0.000 P 
ATOM      4  O   UNL     1       5.902   4.142  19.543  0.00  0.00    +0.000 OA
BRANCH   3   5
ATOM      5  O   UNL     1       7.613   5.488  20.062  0.00  0.00    +0.000 OA
ATOM      6  H   UNL     1       8.035   4.633  20.289  0.00  0.00    +0.000 HD
ENDBRANCH   3   5
BRANCH   3   7
ATOM      7  O   UNL     1       7.916   4.323  18.061  0.00  0.00    +0.000 OA
ATOM      8  H   UNL     1       8.663   4.333  18.698  0.00  0.00    +0.000 HD
ENDBRANCH   3   7
ENDBRANCH   2   3
BRANCH   2   9
ATOM      9  P   UNL     1       6.267   6.048  15.990  0.00  0.00    +0.000 P 
ATOM     10  O   UNL     1       5.302   6.747  15.102  0.00  0.00    +0.000 OA
BRANCH   9  11
ATOM     11  O   UNL     1       7.419   5.355  15.094  0.00  0.00    +0.000 OA
ATOM     12  H   UNL     1       7.893   4.682  15.618  0.00  0.00    +0.000 HD
ENDBRANCH   9  11
BRANCH   9  13
ATOM     13  O   UNL     1       7.187   7.061  16.826  0.00  0.00    +0.000 OA
ATOM     14  H   UNL     1       8.091   6.769  17.048  0.00  0.00    +0.000 HD
ENDBRANCH   9  13
ENDBRANCH   2   9
ENDBRANCH   1   2
BRANCH   1  15
ATOM     15  S   UNL     1       3.151   3.534  17.520  0.00  0.00    +0.000 S 
BRANCH  15  16
ATOM     16  C   UNL     1       1.786   4.155  18.542  0.00  0.00    +0.000 C 
BRANCH  16  17
ATOM     17  C   UNL     1       1.959   5.664  18.657  0.00  0.00    +0.000 C 
BRANCH  17  18
ATOM     18  C   UNL     1       1.913   6.136  20.107  0.00  0.00    +0.000 C 
BRANCH  18  19
ATOM     19  C   UNL     1       2.047   7.658  20.162  0.00  0.00    +0.000 C 
BRANCH  19  20
ATOM     20  C   UNL     1       1.332   8.237  21.376  0.00  0.00    +0.000 C 
BRANCH  20  21
ATOM     21  C   UNL     1       0.057   8.969  20.960  0.00  0.00    +0.000 C 
BRANCH  21  22
ATOM     22  C   UNL     1       0.303   9.837  19.728  0.00  0.00    +0.000 C 
BRANCH  22  23
ATOM     23  C   UNL     1      -0.375  11.198  19.872  0.00  0.00    +0.000 C 
BRANCH  23  24
ATOM     24  C   UNL     1      -1.654  11.265  19.039  0.00  0.00    +0.000 C 
BRANCH  24  26
ATOM     25  C   UNL     1      -2.915   9.704  17.521  0.00  0.00    +0.000 C 
ATOM     26  C   UNL     1      -1.570  10.345  17.824  0.00  0.00    +0.000 C 
ENDBRANCH  24  26
ENDBRANCH  23  24
ENDBRANCH  22  23
ENDBRANCH  21  22
ENDBRANCH  20  21
ENDBRANCH  19  20
ENDBRANCH  18  19
ENDBRANCH  17  18
ENDBRANCH  16  17
ENDBRANCH  15  16
ENDBRANCH   1  15
TORSDOF 18
ENDMDL
