MODEL 1
REMARK VINA RESULT:      -5.9      0.000      0.000
REMARK  Name = 
REMARK  23 active torsions:
REMARK  status: ('A' for Active; 'I' for Inactive)
REMARK    1  A    between atoms: C_1  and  C_2
REMARK    2  A    between atoms: C_2  and  C_3
REMARK    3  A    between atoms: C_3  and  C_4
REMARK    4  A    between atoms: C_4  and  C_5
REMARK    5  A    between atoms: C_5  and  C_6
REMARK    6  A    between atoms: C_6  and  C_7
REMARK    7  A    between atoms: C_7  and  C_8
REMARK    8  A    between atoms: C_8  and  C_9
REMARK    9  A    between atoms: C_10  and  C_11
REMARK   10  A    between atoms: C_11  and  C_12
REMARK   11  A    between atoms: C_12  and  C_13
REMARK   12  A    between atoms: C_13  and  C_14
REMARK   13  A    between atoms: C_14  and  C_15
REMARK   14  A    between atoms: C_15  and  C_16
REMARK   15  A    between atoms: C_16  and  C_17
REMARK   16  A    between atoms: C_17  and  C_18
REMARK   17  A    between atoms: N_20  and  CA_21
REMARK   18  A    between atoms: CA_21  and  CB_22
REMARK   19  A    between atoms: CA_21  and  C_27
REMARK   20  A    between atoms: CB_22  and  CG_23
REMARK   21  A    between atoms: CG_23  and  CD_24
REMARK   22  A    between atoms: CD_24  and  OE2_26
REMARK   23  A    between atoms: C_27  and  OXT_29
REMARK                            x       y       z     vdW  Elec       q    Type
REMARK                         _______ _______ _______ _____ _____    ______ ____
ROOT
ATOM      1  C   UNK A   0       6.585   5.642  16.471  0.00  0.00    +0.000 C 
ENDROOT
BRANCH   1   2
ATOM      2  C   UNK A   0       6.991   4.452  17.327  0.00  0.00    +0.000 C 
BRANCH   2   3
ATOM      3  C   UNK A   0       6.324   4.531  18.683  0.00  0.00    +0.000 C 
ATOM      4  O   UNK A   0       6.697   5.268  19.590  0.00  0.00    +0.000 OA
ATOM      5  N   GLU A   1       5.229   3.707  18.803  0.00  0.00    +0.000 N 
ATOM      6  H   GLU A   1       5.070   2.979  18.108  0.00  0.00    +0.000 HD
BRANCH   5   7
ATOM      7  CA  GLU A   1       4.400   3.699  20.005  0.00  0.00    +0.000 C 
BRANCH   7   8
ATOM      8  C   GLU A   1       4.345   2.269  20.559  0.00  0.00    +0.000 C 
ATOM      9  O   GLU A   1       3.751   1.931  21.575  0.00  0.00    +0.000 OA
BRANCH   8  10
ATOM     10  OXT GLU A   1       5.098   1.398  19.844  0.00  0.00    +0.000 OA
ATOM     11  HXT GLU A   1       4.545   0.955  19.173  0.00  0.00    +0.000 HD
ENDBRANCH   8  10
ENDBRANCH   7   8
BRANCH   7  12
ATOM     12  CB  GLU A   1       2.986   4.260  19.740  0.00  0.00    +0.000 C 
BRANCH  12  13
ATOM     13  CG  GLU A   1       2.485   3.995  18.318  0.00  0.00    +0.000 C 
BRANCH  13  14
ATOM     14  CD  GLU A   1       1.825   2.636  18.161  0.00  0.00    +0.000 C 
ATOM     15  OE1 GLU A   1       0.657   2.378  18.381  0.00  0.00    +0.000 OA
BRANCH  14  16
ATOM     16  OE2 GLU A   1       2.713   1.700  17.734  0.00  0.00    +0.000 OA
ATOM     17  HE2 GLU A   1       2.581   0.837  18.165  0.00  0.00    +0.000 HD
ENDBRANCH  14  16
ENDBRANCH  13  14
ENDBRANCH  12  13
ENDBRANCH   7  12
ENDBRANCH   5   7
ENDBRANCH   2   3
ENDBRANCH   1   2
BRANCH   1  18
ATOM     18  C   UNK A   0       5.072   5.788  16.362  0.00  0.00    +0.000 C 
BRANCH  18  19
ATOM     19  C   UNK A   0       4.691   7.224  16.693  0.00  0.00    +0.000 C 
BRANCH  19  20
ATOM     20  C   UNK A   0       3.614   7.304  17.770  0.00  0.00    +0.000 C 
BRANCH  20  21
ATOM     21  C   UNK A   0       2.633   8.446  17.501  0.00  0.00    +0.000 C 
BRANCH  21  22
ATOM     22  C   UNK A   0       1.627   8.690  18.628  0.00  0.00    +0.000 C 
BRANCH  22  24
ATOM     23  C   UNK A   0       1.256   7.961  21.008  0.00  0.00    +0.000 C 
ATOM     24  C   UNK A   0       1.936   7.876  19.857  0.00  0.00    +0.000 C 
BRANCH  23  25
ATOM     25  C   UNK A   0       0.077   8.866  21.171  0.00  0.00    +0.000 C 
BRANCH  25  26
ATOM     26  C   UNK A   0       0.461  10.265  21.610  0.00  0.00    +0.000 C 
BRANCH  26  27
ATOM     27  C   UNK A   0      -0.498  11.262  20.970  0.00  0.00    +0.000 C 
BRANCH  27  28
ATOM     28  C   UNK A   0      -0.860  10.819  19.565  0.00  0.00    +0.000 C 
BRANCH  28  29
ATOM     29  C   UNK A   0      -2.119  11.530  19.088  0.00  0.00    +0.000 C 
BRANCH  29  30
ATOM     30  C   UNK A   0      -2.890  10.634  18.128  0.00  0.00    +0.000 C 
BRANCH  30  32
ATOM     31  C   UNK A   0      -2.646   9.963  15.730  0.00  0.00    +0.000 C 
ATOM     32  C   UNK A   0      -1.963  10.023  17.085  0.00  0.00    +0.000 C 
ENDBRANCH  30  32
ENDBRANCH  29  30
ENDBRANCH  28  29
ENDBRANCH  27  28
ENDBRANCH  26  27
ENDBRANCH  25  26
ENDBRANCH  23  25
ENDBRANCH  22  24
ENDBRANCH  21  22
ENDBRANCH  20  21
ENDBRANCH  19  20
ENDBRANCH  18  19
ENDBRANCH   1  18
TORSDOF 22
ENDMDL
MODEL 2
REMARK VINA RESULT:      -5.9      1.693      2.563
REMARK  Name = 
REMARK  23 active torsions:
REMARK  status: ('A' for Active; 'I' for Inactive)
REMARK    1  A    between atoms: C_1  and  C_2
REMARK    2  A    between atoms: C_2  and  C_3
REMARK    3  A    between atoms: C_3  and  C_4
REMARK    4  A    between atoms: C_4  and  C_5
REMARK    5  A    between atoms: C_5  and  C_6
REMARK    6  A    between atoms: C_6  and  C_7
REMARK    7  A    between atoms: C_7  and  C_8
REMARK    8  A    between atoms: C_8  and  C_9
REMARK    9  A    between atoms: C_10  and  C_11
REMARK   10  A    between atoms: C_11  and  C_12
REMARK   11  A    between atoms: C_12  and  C_13
REMARK   12  A    between atoms: C_13  and  C_14
REMARK   13  A    between atoms: C_14  and  C_15
REMARK   14  A    between atoms: C_15  and  C_16
REMARK   15  A    between atoms: C_16  and  C_17
REMARK   16  A    between atoms: C_17  and  C_18
REMARK   17  A    between atoms: N_20  and  CA_21
REMARK   18  A    between atoms: CA_21  and  CB_22
REMARK   19  A    between atoms: CA_21  and  C_27
REMARK   20  A    between atoms: CB_22  and  CG_23
REMARK   21  A    between atoms: CG_23  and  CD_24
REMARK   22  A    between atoms: CD_24  and  OE2_26
REMARK   23  A    between atoms: C_27  and  OXT_29
REMARK                            x       y       z     vdW  Elec       q    Type
REMARK                         _______ _______ _______ _____ _____    ______ ____
ROOT
ATOM      1  C   UNK A   0       3.163   6.689  18.223  0.00  0.00    +0.000 C 
ENDROOT
BRANCH   1   2
ATOM      2  C   UNK A   0       4.591   6.179  18.107  0.00  0.00    +0.000 C 
BRANCH   2   3
ATOM      3  C   UNK A   0       4.772   4.931  18.944  0.00  0.00    +0.000 C 
ATOM      4  O   UNK A   0       5.861   4.439  19.216  0.00  0.00    +0.000 OA
ATOM      5  N   GLU A   1       3.587   4.403  19.400  0.00  0.00    +0.000 N 
ATOM      6  H   GLU A   1       2.706   4.721  18.999  0.00  0.00    +0.000 HD
BRANCH   5   7
ATOM      7  CA  GLU A   1       3.553   3.247  20.293  0.00  0.00    +0.000 C 
BRANCH   7   8
ATOM      8  C   GLU A   1       4.134   2.034  19.554  0.00  0.00    +0.000 C 
ATOM      9  O   GLU A   1       3.619   1.488  18.585  0.00  0.00    +0.000 OA
BRANCH   8  10
ATOM     10  OXT GLU A   1       5.266   1.559  20.128  0.00  0.00    +0.000 OA
ATOM     11  HXT GLU A   1       5.061   1.191  21.009  0.00  0.00    +0.000 HD
ENDBRANCH   8  10
ENDBRANCH   7   8
BRANCH   7  12
ATOM     12  CB  GLU A   1       2.131   2.962  20.822  0.00  0.00    +0.000 C 
BRANCH  12  13
ATOM     13  CG  GLU A   1       1.031   3.636  19.999  0.00  0.00    +0.000 C 
BRANCH  13  14
ATOM     14  CD  GLU A   1       0.762   2.939  18.676  0.00  0.00    +0.000 C 
ATOM     15  OE1 GLU A   1       0.145   1.901  18.526  0.00  0.00    +0.000 OA
BRANCH  14  16
ATOM     16  OE2 GLU A   1       1.309   3.621  17.636  0.00  0.00    +0.000 OA
ATOM     17  HE2 GLU A   1       1.358   3.086  16.823  0.00  0.00    +0.000 HD
ENDBRANCH  14  16
ENDBRANCH  13  14
ENDBRANCH  12  13
ENDBRANCH   7  12
ENDBRANCH   5   7
ENDBRANCH   2   3
ENDBRANCH   1   2
BRANCH   1  18
ATOM     18  C   UNK A   0       3.021   8.131  17.750  0.00  0.00    +0.000 C 
BRANCH  18  19
ATOM     19  C   UNK A   0       1.655   8.654  18.168  0.00  0.00    +0.000 C 
BRANCH  19  20
ATOM     20  C   UNK A   0       1.667  10.156  18.434  0.00  0.00    +0.000 C 
BRANCH  20  21
ATOM     21  C   UNK A   0       0.747  10.528  19.599  0.00  0.00    +0.000 C 
BRANCH  21  22
ATOM     22  C   UNK A   0       0.206   9.330  20.381  0.00  0.00    +0.000 C 
BRANCH  22  24
ATOM     23  C   UNK A   0       0.335   9.667  22.871  0.00  0.00    +0.000 C 
ATOM     24  C   UNK A   0       0.854   9.189  21.734  0.00  0.00    +0.000 C 
BRANCH  23  25
ATOM     25  C   UNK A   0      -0.984  10.370  22.911  0.00  0.00    +0.000 C 
BRANCH  25  26
ATOM     26  C   UNK A   0      -0.867  11.863  22.673  0.00  0.00    +0.000 C 
BRANCH  26  27
ATOM     27  C   UNK A   0      -2.234  12.503  22.885  0.00  0.00    +0.000 C 
BRANCH  27  28
ATOM     28  C   UNK A   0      -3.027  12.497  21.592  0.00  0.00    +0.000 C 
BRANCH  28  29
ATOM     29  C   UNK A   0      -2.120  12.798  20.407  0.00  0.00    +0.000 C 
BRANCH  29  30
ATOM     30  C   UNK A   0      -2.587  12.020  19.184  0.00  0.00    +0.000 C 
BRANCH  30  32
ATOM     31  C   UNK A   0      -4.556  11.615  17.694  0.00  0.00    +0.000 C 
ATOM     32  C   UNK A   0      -4.108  12.006  19.091  0.00  0.00    +0.000 C 
ENDBRANCH  30  32
ENDBRANCH  29  30
ENDBRANCH  28  29
ENDBRANCH  27  28
ENDBRANCH  26  27
ENDBRANCH  25  26
ENDBRANCH  23  25
ENDBRANCH  22  24
ENDBRANCH  21  22
ENDBRANCH  20  21
ENDBRANCH  19  20
ENDBRANCH  18  19
ENDBRANCH   1  18
TORSDOF 22
ENDMDL
MODEL 3
REMARK VINA RESULT:      -5.8      3.648      5.872
REMARK  Name = 
REMARK  23 active torsions:
REMARK  status: ('A' for Active; 'I' for Inactive)
REMARK    1  A    between atoms: C_1  and  C_2
REMARK    2  A    between atoms: C_2  and  C_3
REMARK    3  A    between atoms: C_3  and  C_4
REMARK    4  A    between atoms: C_4  and  C_5
REMARK    5  A    between atoms: C_5  and  C_6
REMARK    6  A    between atoms: C_6  and  C_7
REMARK    7  A    between atoms: C_7  and  C_8
REMARK    8  A    between atoms: C_8  and  C_9
REMARK    9  A    between atoms: C_10  and  C_11
REMARK   10  A    between atoms: C_11  and  C_12
REMARK   11  A    between atoms: C_12  and  C_13
REMARK   12  A    between atoms: C_13  and  C_14
REMARK   13  A    between atoms: C_14  and  C_15
REMARK   14  A    between atoms: C_15  and  C_16
REMARK   15  A    between atoms: C_16  and  C_17
REMARK   16  A    between atoms: C_17  and  C_18
REMARK   17  A    between atoms: N_20  and  CA_21
REMARK   18  A    between atoms: CA_21  and  CB_22
REMARK   19  A    between atoms: CA_21  and  C_27
REMARK   20  A    between atoms: CB_22  and  CG_23
REMARK   21  A    between atoms: CG_23  and  CD_24
REMARK   22  A    between atoms: CD_24  and  OE2_26
REMARK   23  A    between atoms: C_27  and  OXT_29
REMARK                            x       y       z     vdW  Elec       q    Type
REMARK                         _______ _______ _______ _____ _____    ______ ____
ROOT
ATOM      1  C   UNK A   0       5.441   5.338  17.826  0.00  0.00    +0.000 C 
ENDROOT
BRANCH   1   2
ATOM      2  C   UNK A   0       5.318   5.560  16.327  0.00  0.00    +0.000 C 
BRANCH   2   3
ATOM      3  C   UNK A   0       6.521   4.984  15.612  0.00  0.00    +0.000 C 
ATOM      4  O   UNK A   0       7.427   4.377  16.172  0.00  0.00    +0.000 OA
ATOM      5  N   GLU A   1       6.495   5.182  14.251  0.00  0.00    +0.000 N 
ATOM      6  H   GLU A   1       5.835   5.848  13.852  0.00  0.00    +0.000 HD
BRANCH   5   7
ATOM      7  CA  GLU A   1       7.524   4.629  13.373  0.00  0.00    +0.000 C 
BRANCH   7   8
ATOM      8  C   GLU A   1       8.366   5.781  12.811  0.00  0.00    +0.000 C 
ATOM      9  O   GLU A   1       9.382   6.228  13.329  0.00  0.00    +0.000 OA
BRANCH   8  10
ATOM     10  OXT GLU A   1       7.830   6.329  11.693  0.00  0.00    +0.000 OA
ATOM     11  HXT GLU A   1       6.863   6.203  11.693  0.00  0.00    +0.000 HD
ENDBRANCH   8  10
ENDBRANCH   7   8
BRANCH   7  12
ATOM     12  CB  GLU A   1       6.921   3.762  12.246  0.00  0.00    +0.000 C 
BRANCH  12  13
ATOM     13  CG  GLU A   1       5.393   3.827  12.182  0.00  0.00    +0.000 C 
BRANCH  13  14
ATOM     14  CD  GLU A   1       4.777   2.663  11.425  0.00  0.00    +0.000 C 
ATOM     15  OE1 GLU A   1       3.680   2.650  10.900  0.00  0.00    +0.000 OA
BRANCH  14  16
ATOM     16  OE2 GLU A   1       5.612   1.591  11.398  0.00  0.00    +0.000 OA
ATOM     17  HE2 GLU A   1       5.582   1.073  12.222  0.00  0.00    +0.000 HD
ENDBRANCH  14  16
ENDBRANCH  13  14
ENDBRANCH  12  13
ENDBRANCH   7  12
ENDBRANCH   5   7
ENDBRANCH   2   3
ENDBRANCH   1   2
BRANCH   1  18
ATOM     18  C   UNK A   0       4.482   4.266  18.334  0.00  0.00    +0.000 C 
BRANCH  18  19
ATOM     19  C   UNK A   0       3.192   4.339  17.531  0.00  0.00    +0.000 C 
BRANCH  19  20
ATOM     20  C   UNK A   0       2.586   2.962  17.283  0.00  0.00    +0.000 C 
BRANCH  20  21
ATOM     21  C   UNK A   0       2.610   2.100  18.546  0.00  0.00    +0.000 C 
BRANCH  21  22
ATOM     22  C   UNK A   0       1.510   2.433  19.556  0.00  0.00    +0.000 C 
BRANCH  22  24
ATOM     23  C   UNK A   0       2.111   4.087  21.355  0.00  0.00    +0.000 C 
ATOM     24  C   UNK A   0       2.067   2.828  20.899  0.00  0.00    +0.000 C 
BRANCH  23  25
ATOM     25  C   UNK A   0       1.566   5.237  20.572  0.00  0.00    +0.000 C 
BRANCH  25  26
ATOM     26  C   UNK A   0       2.576   6.350  20.373  0.00  0.00    +0.000 C 
BRANCH  26  27
ATOM     27  C   UNK A   0       1.861   7.567  19.798  0.00  0.00    +0.000 C 
BRANCH  27  28
ATOM     28  C   UNK A   0       2.319   7.823  18.374  0.00  0.00    +0.000 C 
BRANCH  28  29
ATOM     29  C   UNK A   0       1.533   8.973  17.758  0.00  0.00    +0.000 C 
BRANCH  29  30
ATOM     30  C   UNK A   0       1.159   9.982  18.836  0.00  0.00    +0.000 C 
BRANCH  30  32
ATOM     31  C   UNK A   0      -0.673  11.642  18.456  0.00  0.00    +0.000 C 
ATOM     32  C   UNK A   0      -0.346  10.218  18.867  0.00  0.00    +0.000 C 
ENDBRANCH  30  32
ENDBRANCH  29  30
ENDBRANCH  28  29
ENDBRANCH  27  28
ENDBRANCH  26  27
ENDBRANCH  25  26
ENDBRANCH  23  25
ENDBRANCH  22  24
ENDBRANCH  21  22
ENDBRANCH  20  21
ENDBRANCH  19  20
ENDBRANCH  18  19
ENDBRANCH   1  18
TORSDOF 22
ENDMDL
MODEL 4
REMARK VINA RESULT:      -5.7      6.482      8.450
REMARK  Name = 
REMARK  23 active torsions:
REMARK  status: ('A' for Active; 'I' for Inactive)
REMARK    1  A    between atoms: C_1  and  C_2
REMARK    2  A    between atoms: C_2  and  C_3
REMARK    3  A    between atoms: C_3  and  C_4
REMARK    4  A    between atoms: C_4  and  C_5
REMARK    5  A    between atoms: C_5  and  C_6
REMARK    6  A    between atoms: C_6  and  C_7
REMARK    7  A    between atoms: C_7  and  C_8
REMARK    8  A    between atoms: C_8  and  C_9
REMARK    9  A    between atoms: C_10  and  C_11
REMARK   10  A    between atoms: C_11  and  C_12
REMARK   11  A    between atoms: C_12  and  C_13
REMARK   12  A    between atoms: C_13  and  C_14
REMARK   13  A    between atoms: C_14  and  C_15
REMARK   14  A    between atoms: C_15  and  C_16
REMARK   15  A    between atoms: C_16  and  C_17
REMARK   16  A    between atoms: C_17  and  C_18
REMARK   17  A    between atoms: N_20  and  CA_21
REMARK   18  A    between atoms: CA_21  and  CB_22
REMARK   19  A    between atoms: CA_21  and  C_27
REMARK   20  A    between atoms: CB_22  and  CG_23
REMARK   21  A    between atoms: CG_23  and  CD_24
REMARK   22  A    between atoms: CD_24  and  OE2_26
REMARK   23  A    between atoms: C_27  and  OXT_29
REMARK                            x       y       z     vdW  Elec       q    Type
REMARK                         _______ _______ _______ _____ _____    ______ ____
ROOT
ATOM      1  C   UNK A   0       7.627   8.332  17.611  0.00  0.00    +0.000 C 
ENDROOT
BRANCH   1   2
ATOM      2  C   UNK A   0       8.148   7.259  18.554  0.00  0.00    +0.000 C 
BRANCH   2   3
ATOM      3  C   UNK A   0       7.614   5.902  18.150  0.00  0.00    +0.000 C 
ATOM      4  O   UNK A   0       7.361   5.000  18.941  0.00  0.00    +0.000 OA
ATOM      5  N   GLU A   1       7.410   5.776  16.796  0.00  0.00    +0.000 N 
ATOM      6  H   GLU A   1       7.807   6.466  16.160  0.00  0.00    +0.000 HD
BRANCH   5   7
ATOM      7  CA  GLU A   1       6.820   4.572  16.215  0.00  0.00    +0.000 C 
BRANCH   7   8
ATOM      8  C   GLU A   1       7.060   4.584  14.700  0.00  0.00    +0.000 C 
ATOM      9  O   GLU A   1       7.719   5.425  14.099  0.00  0.00    +0.000 OA
BRANCH   8  10
ATOM     10  OXT GLU A   1       6.398   3.594  14.053  0.00  0.00    +0.000 OA
ATOM     11  HXT GLU A   1       6.879   3.350  13.240  0.00  0.00    +0.000 HD
ENDBRANCH   8  10
ENDBRANCH   7   8
BRANCH   7  12
ATOM     12  CB  GLU A   1       5.319   4.439  16.552  0.00  0.00    +0.000 C 
BRANCH  12  13
ATOM     13  CG  GLU A   1       4.556   5.762  16.454  0.00  0.00    +0.000 C 
BRANCH  13  14
ATOM     14  CD  GLU A   1       3.657   6.024  17.651  0.00  0.00    +0.000 C 
ATOM     15  OE1 GLU A   1       3.069   5.182  18.303  0.00  0.00    +0.000 OA
BRANCH  14  16
ATOM     16  OE2 GLU A   1       3.572   7.352  17.926  0.00  0.00    +0.000 OA
ATOM     17  HE2 GLU A   1       4.179   7.626  18.637  0.00  0.00    +0.000 HD
ENDBRANCH  14  16
ENDBRANCH  13  14
ENDBRANCH  12  13
ENDBRANCH   7  12
ENDBRANCH   5   7
ENDBRANCH   2   3
ENDBRANCH   1   2
BRANCH   1  18
ATOM     18  C   UNK A   0       8.414   9.633  17.722  0.00  0.00    +0.000 C 
BRANCH  18  19
ATOM     19  C   UNK A   0       8.880   9.806  19.160  0.00  0.00    +0.000 C 
BRANCH  19  20
ATOM     20  C   UNK A   0      10.016  10.817  19.283  0.00  0.00    +0.000 C 
BRANCH  20  21
ATOM     21  C   UNK A   0      10.446  11.349  17.915  0.00  0.00    +0.000 C 
BRANCH  21  22
ATOM     22  C   UNK A   0      11.742  12.163  17.937  0.00  0.00    +0.000 C 
BRANCH  22  24
ATOM     23  C   UNK A   0      11.035  14.340  16.892  0.00  0.00    +0.000 C 
ATOM     24  C   UNK A   0      11.771  13.222  16.866  0.00  0.00    +0.000 C 
BRANCH  23  25
ATOM     25  C   UNK A   0      10.121  14.666  18.030  0.00  0.00    +0.000 C 
BRANCH  25  26
ATOM     26  C   UNK A   0      10.846  15.271  19.216  0.00  0.00    +0.000 C 
BRANCH  26  27
ATOM     27  C   UNK A   0       9.935  15.201  20.437  0.00  0.00    +0.000 C 
BRANCH  27  28
ATOM     28  C   UNK A   0      10.282  13.993  21.286  0.00  0.00    +0.000 C 
BRANCH  28  29
ATOM     29  C   UNK A   0       9.208  13.752  22.338  0.00  0.00    +0.000 C 
BRANCH  29  30
ATOM     30  C   UNK A   0       8.248  12.670  21.863  0.00  0.00    +0.000 C 
BRANCH  30  32
ATOM     31  C   UNK A   0       8.521  12.160  24.296  0.00  0.00    +0.000 C 
ATOM     32  C   UNK A   0       7.751  11.827  23.030  0.00  0.00    +0.000 C 
ENDBRANCH  30  32
ENDBRANCH  29  30
ENDBRANCH  28  29
ENDBRANCH  27  28
ENDBRANCH  26  27
ENDBRANCH  25  26
ENDBRANCH  23  25
ENDBRANCH  22  24
ENDBRANCH  21  22
ENDBRANCH  20  21
ENDBRANCH  19  20
ENDBRANCH  18  19
ENDBRANCH   1  18
TORSDOF 22
ENDMDL
MODEL 5
REMARK VINA RESULT:      -5.6      5.313      6.965
REMARK  Name = 
REMARK  23 active torsions:
REMARK  status: ('A' for Active; 'I' for Inactive)
REMARK    1  A    between atoms: C_1  and  C_2
REMARK    2  A    between atoms: C_2  and  C_3
REMARK    3  A    between atoms: C_3  and  C_4
REMARK    4  A    between atoms: C_4  and  C_5
REMARK    5  A    between atoms: C_5  and  C_6
REMARK    6  A    between atoms: C_6  and  C_7
REMARK    7  A    between atoms: C_7  and  C_8
REMARK    8  A    between atoms: C_8  and  C_9
REMARK    9  A    between atoms: C_10  and  C_11
REMARK   10  A    between atoms: C_11  and  C_12
REMARK   11  A    between atoms: C_12  and  C_13
REMARK   12  A    between atoms: C_13  and  C_14
REMARK   13  A    between atoms: C_14  and  C_15
REMARK   14  A    between atoms: C_15  and  C_16
REMARK   15  A    between atoms: C_16  and  C_17
REMARK   16  A    between atoms: C_17  and  C_18
REMARK   17  A    between atoms: N_20  and  CA_21
REMARK   18  A    between atoms: CA_21  and  CB_22
REMARK   19  A    between atoms: CA_21  and  C_27
REMARK   20  A    between atoms: CB_22  and  CG_23
REMARK   21  A    between atoms: CG_23  and  CD_24
REMARK   22  A    between atoms: CD_24  and  OE2_26
REMARK   23  A    between atoms: C_27  and  OXT_29
REMARK                            x       y       z     vdW  Elec       q    Type
REMARK                         _______ _______ _______ _____ _____    ______ ____
ROOT
ATOM      1  C   UNK A   0       4.966   5.756  16.084  0.00  0.00    +0.000 C 
ENDROOT
BRANCH   1   2
ATOM      2  C   UNK A   0       4.083   6.571  17.017  0.00  0.00    +0.000 C 
BRANCH   2   3
ATOM      3  C   UNK A   0       3.700   5.747  18.228  0.00  0.00    +0.000 C 
ATOM      4  O   UNK A   0       3.335   6.226  19.296  0.00  0.00    +0.000 OA
ATOM      5  N   GLU A   1       3.773   4.391  18.011  0.00  0.00    +0.000 N 
ATOM      6  H   GLU A   1       4.257   4.038  17.188  0.00  0.00    +0.000 HD
BRANCH   5   7
ATOM      7  CA  GLU A   1       3.363   3.426  19.030  0.00  0.00    +0.000 C 
BRANCH   7   8
ATOM      8  C   GLU A   1       4.619   2.820  19.669  0.00  0.00    +0.000 C 
ATOM      9  O   GLU A   1       4.618   1.940  20.522  0.00  0.00    +0.000 OA
BRANCH   8  10
ATOM     10  OXT GLU A   1       5.763   3.412  19.250  0.00  0.00    +0.000 OA
ATOM     11  HXT GLU A   1       6.429   3.390  19.963  0.00  0.00    +0.000 HD
ENDBRANCH   8  10
ENDBRANCH   7   8
BRANCH   7  12
ATOM     12  CB  GLU A   1       2.433   2.335  18.455  0.00  0.00    +0.000 C 
BRANCH  12  13
ATOM     13  CG  GLU A   1       1.025   2.362  19.053  0.00  0.00    +0.000 C 
BRANCH  13  14
ATOM     14  CD  GLU A   1       0.976   2.978  20.441  0.00  0.00    +0.000 C 
ATOM     15  OE1 GLU A   1       1.332   2.444  21.474  0.00  0.00    +0.000 OA
BRANCH  14  16
ATOM     16  OE2 GLU A   1       0.468   4.239  20.407  0.00  0.00    +0.000 OA
ATOM     17  HE2 GLU A   1       0.668   4.743  21.215  0.00  0.00    +0.000 HD
ENDBRANCH  14  16
ENDBRANCH  13  14
ENDBRANCH  12  13
ENDBRANCH   7  12
ENDBRANCH   5   7
ENDBRANCH   2   3
ENDBRANCH   1   2
BRANCH   1  18
ATOM     18  C   UNK A   0       6.374   6.329  15.970  0.00  0.00    +0.000 C 
BRANCH  18  19
ATOM     19  C   UNK A   0       7.265   5.655  17.003  0.00  0.00    +0.000 C 
BRANCH  19  20
ATOM     20  C   UNK A   0       7.580   6.569  18.182  0.00  0.00    +0.000 C 
BRANCH  20  21
ATOM     21  C   UNK A   0       7.746   8.023  17.738  0.00  0.00    +0.000 C 
BRANCH  21  22
ATOM     22  C   UNK A   0       8.755   8.822  18.566  0.00  0.00    +0.000 C 
BRANCH  22  24
ATOM     23  C   UNK A   0       9.309  11.261  18.844  0.00  0.00    +0.000 C 
ATOM     24  C   UNK A   0       8.899  10.241  18.080  0.00  0.00    +0.000 C 
BRANCH  23  25
ATOM     25  C   UNK A   0       9.705  11.076  20.274  0.00  0.00    +0.000 C 
BRANCH  25  26
ATOM     26  C   UNK A   0      10.891  11.931  20.676  0.00  0.00    +0.000 C 
BRANCH  26  27
ATOM     27  C   UNK A   0      10.689  13.341  20.133  0.00  0.00    +0.000 C 
BRANCH  27  28
ATOM     28  C   UNK A   0      10.295  14.286  21.252  0.00  0.00    +0.000 C 
BRANCH  28  29
ATOM     29  C   UNK A   0       8.781  14.416  21.335  0.00  0.00    +0.000 C 
BRANCH  29  30
ATOM     30  C   UNK A   0       8.200  14.623  19.943  0.00  0.00    +0.000 C 
BRANCH  30  32
ATOM     31  C   UNK A   0       8.365  16.150  17.969  0.00  0.00    +0.000 C 
ATOM     32  C   UNK A   0       8.377  16.065  19.485  0.00  0.00    +0.000 C 
ENDBRANCH  30  32
ENDBRANCH  29  30
ENDBRANCH  28  29
ENDBRANCH  27  28
ENDBRANCH  26  27
ENDBRANCH  25  26
ENDBRANCH  23  25
ENDBRANCH  22  24
ENDBRANCH  21  22
ENDBRANCH  20  21
ENDBRANCH  19  20
ENDBRANCH  18  19
ENDBRANCH   1  18
TORSDOF 22
ENDMDL
MODEL 6
REMARK VINA RESULT:      -5.6      4.861      9.166
REMARK  Name = 
REMARK  23 active torsions:
REMARK  status: ('A' for Active; 'I' for Inactive)
REMARK    1  A    between atoms: C_1  and  C_2
REMARK    2  A    between atoms: C_2  and  C_3
REMARK    3  A    between atoms: C_3  and  C_4
REMARK    4  A    between atoms: C_4  and  C_5
REMARK    5  A    between atoms: C_5  and  C_6
REMARK    6  A    between atoms: C_6  and  C_7
REMARK    7  A    between atoms: C_7  and  C_8
REMARK    8  A    between atoms: C_8  and  C_9
REMARK    9  A    between atoms: C_10  and  C_11
REMARK   10  A    between atoms: C_11  and  C_12
REMARK   11  A    between atoms: C_12  and  C_13
REMARK   12  A    between atoms: C_13  and  C_14
REMARK   13  A    between atoms: C_14  and  C_15
REMARK   14  A    between atoms: C_15  and  C_16
REMARK   15  A    between atoms: C_16  and  C_17
REMARK   16  A    between atoms: C_17  and  C_18
REMARK   17  A    between atoms: N_20  and  CA_21
REMARK   18  A    between atoms: CA_21  and  CB_22
REMARK   19  A    between atoms: CA_21  and  C_27
REMARK   20  A    between atoms: CB_22  and  CG_23
REMARK   21  A    between atoms: CG_23  and  CD_24
REMARK   22  A    between atoms: CD_24  and  OE2_26
REMARK   23  A    between atoms: C_27  and  OXT_29
REMARK                            x       y       z     vdW  Elec       q    Type
REMARK                         _______ _______ _______ _____ _____    ______ ____
ROOT
ATOM      1  C   UNK A   0       1.960   7.836  18.200  0.00  0.00    +0.000 C 
ENDROOT
BRANCH   1   2
ATOM      2  C   UNK A   0       1.924   9.354  18.117  0.00  0.00    +0.000 C 
BRANCH   2   3
ATOM      3  C   UNK A   0       0.674   9.886  18.785  0.00  0.00    +0.000 C 
ATOM      4  O   UNK A   0       0.494   9.893  19.998  0.00  0.00    +0.000 OA
ATOM      5  N   GLU A   1      -0.246  10.392  17.897  0.00  0.00    +0.000 N 
ATOM      6  H   GLU A   1      -0.148  10.196  16.903  0.00  0.00    +0.000 HD
BRANCH   5   7
ATOM      7  CA  GLU A   1      -1.482  11.027  18.349  0.00  0.00    +0.000 C 
BRANCH   7   8
ATOM      8  C   GLU A   1      -2.453  11.120  17.165  0.00  0.00    +0.000 C 
ATOM      9  O   GLU A   1      -2.313  10.541  16.094  0.00  0.00    +0.000 OA
BRANCH   8  10
ATOM     10  OXT GLU A   1      -3.474  11.983  17.387  0.00  0.00    +0.000 OA
ATOM     11  HXT GLU A   1      -4.070  11.624  18.072  0.00  0.00    +0.000 HD
ENDBRANCH   8  10
ENDBRANCH   7   8
BRANCH   7  12
ATOM     12  CB  GLU A   1      -1.225  12.412  18.984  0.00  0.00    +0.000 C 
BRANCH  12  13
ATOM     13  CG  GLU A   1      -0.318  13.308  18.138  0.00  0.00    +0.000 C 
BRANCH  13  14
ATOM     14  CD  GLU A   1       0.126  14.566  18.865  0.00  0.00    +0.000 C 
ATOM     15  OE1 GLU A   1       1.021  14.640  19.686  0.00  0.00    +0.000 OA
BRANCH  14  16
ATOM     16  OE2 GLU A   1      -0.613  15.643  18.490  0.00  0.00    +0.000 OA
ATOM     17  HE2 GLU A   1      -0.088  16.306  18.007  0.00  0.00    +0.000 HD
ENDBRANCH  14  16
ENDBRANCH  13  14
ENDBRANCH  12  13
ENDBRANCH   7  12
ENDBRANCH   5   7
ENDBRANCH   2   3
ENDBRANCH   1   2
BRANCH   1  18
ATOM     18  C   UNK A   0       1.973   7.335  19.640  0.00  0.00    +0.000 C 
BRANCH  18  19
ATOM     19  C   UNK A   0       3.013   6.233  19.769  0.00  0.00    +0.000 C 
BRANCH  19  20
ATOM     20  C   UNK A   0       2.547   5.099  20.677  0.00  0.00    +0.000 C 
BRANCH  20  21
ATOM     21  C   UNK A   0       1.123   4.656  20.338  0.00  0.00    +0.000 C 
BRANCH  21  22
ATOM     22  C   UNK A   0       0.944   3.140  20.235  0.00  0.00    +0.000 C 
BRANCH  22  24
ATOM     23  C   UNK A   0       2.003   2.148  18.179  0.00  0.00    +0.000 C 
ATOM     24  C   UNK A   0       0.937   2.659  18.808  0.00  0.00    +0.000 C 
BRANCH  23  25
ATOM     25  C   UNK A   0       3.321   1.969  18.863  0.00  0.00    +0.000 C 
BRANCH  25  26
ATOM     26  C   UNK A   0       4.350   3.001  18.446  0.00  0.00    +0.000 C 
BRANCH  26  27
ATOM     27  C   UNK A   0       4.044   3.454  17.023  0.00  0.00    +0.000 C 
BRANCH  27  28
ATOM     28  C   UNK A   0       4.015   4.969  16.947  0.00  0.00    +0.000 C 
BRANCH  28  29
ATOM     29  C   UNK A   0       5.412   5.519  16.695  0.00  0.00    +0.000 C 
BRANCH  29  30
ATOM     30  C   UNK A   0       5.653   5.660  15.198  0.00  0.00    +0.000 C 
BRANCH  30  32
ATOM     31  C   UNK A   0       6.130   3.810  13.583  0.00  0.00    +0.000 C 
ATOM     32  C   UNK A   0       6.691   4.656  14.713  0.00  0.00    +0.000 C 
ENDBRANCH  30  32
ENDBRANCH  29  30
ENDBRANCH  28  29
ENDBRANCH  27  28
ENDBRANCH  26  27
ENDBRANCH  25  26
ENDBRANCH  23  25
ENDBRANCH  22  24
ENDBRANCH  21  22
ENDBRANCH  20  21
ENDBRANCH  19  20
ENDBRANCH  18  19
ENDBRANCH   1  18
TORSDOF 22
ENDMDL
MODEL 7
REMARK VINA RESULT:      -5.6      2.073      4.465
REMARK  Name = 
REMARK  23 active torsions:
REMARK  status: ('A' for Active; 'I' for Inactive)
REMARK    1  A    between atoms: C_1  and  C_2
REMARK    2  A    between atoms: C_2  and  C_3
REMARK    3  A    between atoms: C_3  and  C_4
REMARK    4  A    between atoms: C_4  and  C_5
REMARK    5  A    between atoms: C_5  and  C_6
REMARK    6  A    between atoms: C_6  and  C_7
REMARK    7  A    between atoms: C_7  and  C_8
REMARK    8  A    between atoms: C_8  and  C_9
REMARK    9  A    between atoms: C_10  and  C_11
REMARK   10  A    between atoms: C_11  and  C_12
REMARK   11  A    between atoms: C_12  and  C_13
REMARK   12  A    between atoms: C_13  and  C_14
REMARK   13  A    between atoms: C_14  and  C_15
REMARK   14  A    between atoms: C_15  and  C_16
REMARK   15  A    between atoms: C_16  and  C_17
REMARK   16  A    between atoms: C_17  and  C_18
REMARK   17  A    between atoms: N_20  and  CA_21
REMARK   18  A    between atoms: CA_21  and  CB_22
REMARK   19  A    between atoms: CA_21  and  C_27
REMARK   20  A    between atoms: CB_22  and  CG_23
REMARK   21  A    between atoms: CG_23  and  CD_24
REMARK   22  A    between atoms: CD_24  and  OE2_26
REMARK   23  A    between atoms: C_27  and  OXT_29
REMARK                            x       y       z     vdW  Elec       q    Type
REMARK                         _______ _______ _______ _____ _____    ______ ____
ROOT
ATOM      1  C   UNK A   0       1.987   2.671  18.949  0.00  0.00    +0.000 C 
ENDROOT
BRANCH   1   2
ATOM      2  C   UNK A   0       3.481   2.921  18.815  0.00  0.00    +0.000 C 
BRANCH   2   3
ATOM      3  C   UNK A   0       3.775   3.653  17.523  0.00  0.00    +0.000 C 
ATOM      4  O   UNK A   0       3.056   3.611  16.531  0.00  0.00    +0.000 OA
ATOM      5  N   GLU A   1       4.927   4.403  17.570  0.00  0.00    +0.000 N 
ATOM      6  H   GLU A   1       5.589   4.262  18.332  0.00  0.00    +0.000 HD
BRANCH   5   7
ATOM      7  CA  GLU A   1       5.341   5.249  16.453  0.00  0.00    +0.000 C 
BRANCH   7   8
ATOM      8  C   GLU A   1       5.821   4.352  15.305  0.00  0.00    +0.000 C 
ATOM      9  O   GLU A   1       6.853   3.691  15.313  0.00  0.00    +0.000 OA
BRANCH   8  10
ATOM     10  OXT GLU A   1       5.016   4.412  14.216  0.00  0.00    +0.000 OA
ATOM     11  HXT GLU A   1       4.466   3.608  14.166  0.00  0.00    +0.000 HD
ENDBRANCH   8  10
ENDBRANCH   7   8
BRANCH   7  12
ATOM     12  CB  GLU A   1       6.422   6.271  16.867  0.00  0.00    +0.000 C 
BRANCH  12  13
ATOM     13  CG  GLU A   1       6.606   6.379  18.382  0.00  0.00    +0.000 C 
BRANCH  13  14
ATOM     14  CD  GLU A   1       7.543   5.325  18.947  0.00  0.00    +0.000 C 
ATOM     15  OE1 GLU A   1       8.039   4.402  18.329  0.00  0.00    +0.000 OA
BRANCH  14  16
ATOM     16  OE2 GLU A   1       7.775   5.526  20.271  0.00  0.00    +0.000 OA
ATOM     17  HE2 GLU A   1       7.279   4.906  20.836  0.00  0.00    +0.000 HD
ENDBRANCH  14  16
ENDBRANCH  13  14
ENDBRANCH  12  13
ENDBRANCH   7  12
ENDBRANCH   5   7
ENDBRANCH   2   3
ENDBRANCH   1   2
BRANCH   1  18
ATOM     18  C   UNK A   0       1.450   3.089  20.314  0.00  0.00    +0.000 C 
BRANCH  18  19
ATOM     19  C   UNK A   0       1.162   4.582  20.293  0.00  0.00    +0.000 C 
BRANCH  19  20
ATOM     20  C   UNK A   0       2.390   5.414  20.648  0.00  0.00    +0.000 C 
BRANCH  20  21
ATOM     21  C   UNK A   0       2.389   6.759  19.918  0.00  0.00    +0.000 C 
BRANCH  21  22
ATOM     22  C   UNK A   0       2.265   6.649  18.397  0.00  0.00    +0.000 C 
BRANCH  22  24
ATOM     23  C   UNK A   0       2.166   9.098  17.830  0.00  0.00    +0.000 C 
ATOM     24  C   UNK A   0       2.735   7.894  17.693  0.00  0.00    +0.000 C 
BRANCH  23  25
ATOM     25  C   UNK A   0       1.006   9.331  18.744  0.00  0.00    +0.000 C 
BRANCH  25  26
ATOM     26  C   UNK A   0      -0.213   9.879  18.027  0.00  0.00    +0.000 C 
BRANCH  26  27
ATOM     27  C   UNK A   0      -0.959  10.816  18.970  0.00  0.00    +0.000 C 
BRANCH  27  28
ATOM     28  C   UNK A   0      -2.018  11.594  18.213  0.00  0.00    +0.000 C 
BRANCH  28  29
ATOM     29  C   UNK A   0      -3.222  10.710  17.917  0.00  0.00    +0.000 C 
BRANCH  29  30
ATOM     30  C   UNK A   0      -3.977  11.247  16.708  0.00  0.00    +0.000 C 
BRANCH  30  32
ATOM     31  C   UNK A   0      -2.829   9.628  15.184  0.00  0.00    +0.000 C 
ATOM     32  C   UNK A   0      -3.155  11.090  15.435  0.00  0.00    +0.000 C 
ENDBRANCH  30  32
ENDBRANCH  29  30
ENDBRANCH  28  29
ENDBRANCH  27  28
ENDBRANCH  26  27
ENDBRANCH  25  26
ENDBRANCH  23  25
ENDBRANCH  22  24
ENDBRANCH  21  22
ENDBRANCH  20  21
ENDBRANCH  19  20
ENDBRANCH  18  19
ENDBRANCH   1  18
TORSDOF 22
ENDMDL
MODEL 8
REMARK VINA RESULT:      -5.6      5.744      7.806
REMARK  Name = 
REMARK  23 active torsions:
REMARK  status: ('A' for Active; 'I' for Inactive)
REMARK    1  A    between atoms: C_1  and  C_2
REMARK    2  A    between atoms: C_2  and  C_3
REMARK    3  A    between atoms: C_3  and  C_4
REMARK    4  A    between atoms: C_4  and  C_5
REMARK    5  A    between atoms: C_5  and  C_6
REMARK    6  A    between atoms: C_6  and  C_7
REMARK    7  A    between atoms: C_7  and  C_8
REMARK    8  A    between atoms: C_8  and  C_9
REMARK    9  A    between atoms: C_10  and  C_11
REMARK   10  A    between atoms: C_11  and  C_12
REMARK   11  A    between atoms: C_12  and  C_13
REMARK   12  A    between atoms: C_13  and  C_14
REMARK   13  A    between atoms: C_14  and  C_15
REMARK   14  A    between atoms: C_15  and  C_16
REMARK   15  A    between atoms: C_16  and  C_17
REMARK   16  A    between atoms: C_17  and  C_18
REMARK   17  A    between atoms: N_20  and  CA_21
REMARK   18  A    between atoms: CA_21  and  CB_22
REMARK   19  A    between atoms: CA_21  and  C_27
REMARK   20  A    between atoms: CB_22  and  CG_23
REMARK   21  A    between atoms: CG_23  and  CD_24
REMARK   22  A    between atoms: CD_24  and  OE2_26
REMARK   23  A    between atoms: C_27  and  OXT_29
REMARK                            x       y       z     vdW  Elec       q    Type
REMARK                         _______ _______ _______ _____ _____    ______ ____
ROOT
ATOM      1  C   UNK A   0       5.872   4.300  17.095  0.00  0.00    +0.000 C 
ENDROOT
BRANCH   1   2
ATOM      2  C   UNK A   0       4.498   3.680  17.298  0.00  0.00    +0.000 C 
BRANCH   2   3
ATOM      3  C   UNK A   0       4.171   3.602  18.773  0.00  0.00    +0.000 C 
ATOM      4  O   UNK A   0       4.897   3.076  19.610  0.00  0.00    +0.000 OA
ATOM      5  N   GLU A   1       2.980   4.206  19.102  0.00  0.00    +0.000 N 
ATOM      6  H   GLU A   1       2.322   4.457  18.366  0.00  0.00    +0.000 HD
BRANCH   5   7
ATOM      7  CA  GLU A   1       2.527   4.310  20.488  0.00  0.00    +0.000 C 
BRANCH   7   8
ATOM      8  C   GLU A   1       1.597   3.129  20.794  0.00  0.00    +0.000 C 
ATOM      9  O   GLU A   1       0.679   2.751  20.075  0.00  0.00    +0.000 OA
BRANCH   8  10
ATOM     10  OXT GLU A   1       1.838   2.567  22.003  0.00  0.00    +0.000 OA
ATOM     11  HXT GLU A   1       2.360   3.180  22.556  0.00  0.00    +0.000 HD
ENDBRANCH   8  10
ENDBRANCH   7   8
BRANCH   7  12
ATOM     12  CB  GLU A   1       1.841   5.663  20.775  0.00  0.00    +0.000 C 
BRANCH  12  13
ATOM     13  CG  GLU A   1       2.258   6.772  19.806  0.00  0.00    +0.000 C 
BRANCH  13  14
ATOM     14  CD  GLU A   1       1.687   8.132  20.172  0.00  0.00    +0.000 C 
ATOM     15  OE1 GLU A   1       1.374   8.501  21.288  0.00  0.00    +0.000 OA
BRANCH  14  16
ATOM     16  OE2 GLU A   1       1.552   8.924  19.075  0.00  0.00    +0.000 OA
ATOM     17  HE2 GLU A   1       0.843   8.621  18.481  0.00  0.00    +0.000 HD
ENDBRANCH  14  16
ENDBRANCH  13  14
ENDBRANCH  12  13
ENDBRANCH   7  12
ENDBRANCH   5   7
ENDBRANCH   2   3
ENDBRANCH   1   2
BRANCH   1  18
ATOM     18  C   UNK A   0       5.952   5.722  17.638  0.00  0.00    +0.000 C 
BRANCH  18  19
ATOM     19  C   UNK A   0       7.296   6.321  17.250  0.00  0.00    +0.000 C 
BRANCH  19  20
ATOM     20  C   UNK A   0       7.298   7.844  17.338  0.00  0.00    +0.000 C 
BRANCH  20  21
ATOM     21  C   UNK A   0       8.324   8.348  18.355  0.00  0.00    +0.000 C 
BRANCH  21  22
ATOM     22  C   UNK A   0       8.654   9.836  18.231  0.00  0.00    +0.000 C 
BRANCH  22  24
ATOM     23  C   UNK A   0      10.471  11.272  19.215  0.00  0.00    +0.000 C 
ATOM     24  C   UNK A   0       9.537  10.322  19.351  0.00  0.00    +0.000 C 
BRANCH  23  25
ATOM     25  C   UNK A   0      10.706  11.979  17.919  0.00  0.00    +0.000 C 
BRANCH  25  26
ATOM     26  C   UNK A   0       9.751  13.135  17.694  0.00  0.00    +0.000 C 
BRANCH  26  27
ATOM     27  C   UNK A   0      10.543  14.437  17.705  0.00  0.00    +0.000 C 
BRANCH  27  28
ATOM     28  C   UNK A   0      11.445  14.496  18.924  0.00  0.00    +0.000 C 
BRANCH  28  29
ATOM     29  C   UNK A   0      10.840  15.396  19.993  0.00  0.00    +0.000 C 
BRANCH  29  30
ATOM     30  C   UNK A   0      10.497  14.575  21.229  0.00  0.00    +0.000 C 
BRANCH  30  32
ATOM     31  C   UNK A   0       8.871  12.879  22.086  0.00  0.00    +0.000 C 
ATOM     32  C   UNK A   0       9.058  14.079  21.175  0.00  0.00    +0.000 C 
ENDBRANCH  30  32
ENDBRANCH  29  30
ENDBRANCH  28  29
ENDBRANCH  27  28
ENDBRANCH  26  27
ENDBRANCH  25  26
ENDBRANCH  23  25
ENDBRANCH  22  24
ENDBRANCH  21  22
ENDBRANCH  20  21
ENDBRANCH  19  20
ENDBRANCH  18  19
ENDBRANCH   1  18
TORSDOF 22
ENDMDL
MODEL 9
REMARK VINA RESULT:      -5.5      4.323      8.566
REMARK  Name = 
REMARK  23 active torsions:
REMARK  status: ('A' for Active; 'I' for Inactive)
REMARK    1  A    between atoms: C_1  and  C_2
REMARK    2  A    between atoms: C_2  and  C_3
REMARK    3  A    between atoms: C_3  and  C_4
REMARK    4  A    between atoms: C_4  and  C_5
REMARK    5  A    between atoms: C_5  and  C_6
REMARK    6  A    between atoms: C_6  and  C_7
REMARK    7  A    between atoms: C_7  and  C_8
REMARK    8  A    between atoms: C_8  and  C_9
REMARK    9  A    between atoms: C_10  and  C_11
REMARK   10  A    between atoms: C_11  and  C_12
REMARK   11  A    between atoms: C_12  and  C_13
REMARK   12  A    between atoms: C_13  and  C_14
REMARK   13  A    between atoms: C_14  and  C_15
REMARK   14  A    between atoms: C_15  and  C_16
REMARK   15  A    between atoms: C_16  and  C_17
REMARK   16  A    between atoms: C_17  and  C_18
REMARK   17  A    between atoms: N_20  and  CA_21
REMARK   18  A    between atoms: CA_21  and  CB_22
REMARK   19  A    between atoms: CA_21  and  C_27
REMARK   20  A    between atoms: CB_22  and  CG_23
REMARK   21  A    between atoms: CG_23  and  CD_24
REMARK   22  A    between atoms: CD_24  and  OE2_26
REMARK   23  A    between atoms: C_27  and  OXT_29
REMARK                            x       y       z     vdW  Elec       q    Type
REMARK                         _______ _______ _______ _____ _____    ______ ____
ROOT
ATOM      1  C   UNK A   0       2.820   7.796  18.338  0.00  0.00    +0.000 C 
ENDROOT
BRANCH   1   2
ATOM      2  C   UNK A   0       1.752   8.460  17.483  0.00  0.00    +0.000 C 
BRANCH   2   3
ATOM      3  C   UNK A   0       1.418   9.830  18.033  0.00  0.00    +0.000 C 
ATOM      4  O   UNK A   0       2.217  10.758  18.096  0.00  0.00    +0.000 OA
ATOM      5  N   GLU A   1       0.110   9.952  18.439  0.00  0.00    +0.000 N 
ATOM      6  H   GLU A   1      -0.463   9.117  18.550  0.00  0.00    +0.000 HD
BRANCH   5   7
ATOM      7  CA  GLU A   1      -0.430  11.221  18.922  0.00  0.00    +0.000 C 
BRANCH   7   8
ATOM      8  C   GLU A   1      -0.748  11.087  20.417  0.00  0.00    +0.000 C 
ATOM      9  O   GLU A   1      -1.176  11.987  21.129  0.00  0.00    +0.000 OA
BRANCH   8  10
ATOM     10  OXT GLU A   1      -0.436   9.865  20.915  0.00  0.00    +0.000 OA
ATOM     11  HXT GLU A   1       0.431   9.901  21.361  0.00  0.00    +0.000 HD
ENDBRANCH   8  10
ENDBRANCH   7   8
BRANCH   7  12
ATOM     12  CB  GLU A   1      -1.669  11.670  18.115  0.00  0.00    +0.000 C 
BRANCH  12  13
ATOM     13  CG  GLU A   1      -2.656  10.534  17.838  0.00  0.00    +0.000 C 
BRANCH  13  14
ATOM     14  CD  GLU A   1      -4.083  11.018  17.641  0.00  0.00    +0.000 C 
ATOM     15  OE1 GLU A   1      -5.073  10.573  18.191  0.00  0.00    +0.000 OA
BRANCH  14  16
ATOM     16  OE2 GLU A   1      -4.141  12.040  16.746  0.00  0.00    +0.000 OA
ATOM     17  HE2 GLU A   1      -5.012  12.474  16.732  0.00  0.00    +0.000 HD
ENDBRANCH  14  16
ENDBRANCH  13  14
ENDBRANCH  12  13
ENDBRANCH   7  12
ENDBRANCH   5   7
ENDBRANCH   2   3
ENDBRANCH   1   2
BRANCH   1  18
ATOM     18  C   UNK A   0       2.271   7.302  19.672  0.00  0.00    +0.000 C 
BRANCH  18  19
ATOM     19  C   UNK A   0       2.456   5.794  19.752  0.00  0.00    +0.000 C 
BRANCH  19  20
ATOM     20  C   UNK A   0       1.452   5.136  20.693  0.00  0.00    +0.000 C 
BRANCH  20  21
ATOM     21  C   UNK A   0       1.945   3.772  21.178  0.00  0.00    +0.000 C 
BRANCH  21  22
ATOM     22  C   UNK A   0       2.923   3.081  20.226  0.00  0.00    +0.000 C 
BRANCH  22  24
ATOM     23  C   UNK A   0       2.151   2.237  17.985  0.00  0.00    +0.000 C 
ATOM     24  C   UNK A   0       2.237   2.098  19.314  0.00  0.00    +0.000 C 
BRANCH  23  25
ATOM     25  C   UNK A   0       2.774   3.388  17.262  0.00  0.00    +0.000 C 
BRANCH  25  26
ATOM     26  C   UNK A   0       4.282   3.273  17.154  0.00  0.00    +0.000 C 
BRANCH  26  27
ATOM     27  C   UNK A   0       4.764   4.170  16.020  0.00  0.00    +0.000 C 
BRANCH  27  28
ATOM     28  C   UNK A   0       4.824   5.615  16.477  0.00  0.00    +0.000 C 
BRANCH  28  29
ATOM     29  C   UNK A   0       6.221   6.184  16.272  0.00  0.00    +0.000 C 
BRANCH  29  30
ATOM     30  C   UNK A   0       6.719   6.819  17.563  0.00  0.00    +0.000 C 
BRANCH  30  32
ATOM     31  C   UNK A   0       7.863   4.647  18.040  0.00  0.00    +0.000 C 
ATOM     32  C   UNK A   0       7.009   5.760  18.619  0.00  0.00    +0.000 C 
ENDBRANCH  30  32
ENDBRANCH  29  30
ENDBRANCH  28  29
ENDBRANCH  27  28
ENDBRANCH  26  27
ENDBRANCH  25  26
ENDBRANCH  23  25
ENDBRANCH  22  24
ENDBRANCH  21  22
ENDBRANCH  20  21
ENDBRANCH  19  20
ENDBRANCH  18  19
ENDBRANCH   1  18
TORSDOF 22
ENDMDL
