MODEL 1
REMARK VINA RESULT:      -8.3      0.000      0.000
REMARK  Name = 
REMARK  6 active torsions:
REMARK  status: ('A' for Active; 'I' for Inactive)
REMARK    1  A    between atoms: C_1  and  S_2
REMARK    2  A    between atoms: S_2  and  N_5
REMARK    3  A    between atoms: N_5  and  C_6
REMARK    4  A    between atoms: N_17  and  C_18
REMARK    5  A    between atoms: C_21  and  C_22
REMARK    6  A    between atoms: C_24  and  C_25
REMARK                            x       y       z     vdW  Elec       q    Type
REMARK                         _______ _______ _______ _____ _____    ______ ____
ROOT
ATOM      1  C   UNL     1       3.088   5.743  18.129  0.00  0.00    +0.000 A 
ATOM      2  C   UNL     1       2.771   7.102  17.979  0.00  0.00    +0.000 A 
ATOM      3  C   UNL     1       2.099   7.797  19.009  0.00  0.00    +0.000 A 
ATOM      4  C   UNL     1       1.807   7.105  20.211  0.00  0.00    +0.000 A 
ATOM      5  C   UNL     1       2.142   5.752  20.354  0.00  0.00    +0.000 A 
ATOM      6  C   UNL     1       2.783   5.087  19.322  0.00  0.00    +0.000 A 
ATOM      7  F   UNL     1       3.082   3.787  19.467  0.00  0.00    +0.000 F 
ATOM      8  C   UNL     1       1.098   7.800  21.345  0.00  0.00    +0.000 C 
ATOM      9  C   UNL     1       1.402   9.284  21.299  0.00  0.00    +0.000 C 
ATOM     10  C   UNL     1       0.532  10.072  22.244  0.00  0.00    +0.000 C 
ATOM     11  O   UNL     1       0.481   9.817  23.442  0.00  0.00    +0.000 OA
ATOM     12  N   UNL     1      -0.087  11.095  21.542  0.00  0.00    +0.000 N 
ATOM     13  C   UNL     1       0.154  10.914  20.168  0.00  0.00    +0.000 C 
ATOM     14  S   UNL     1      -0.525  11.704  18.864  0.00  0.00    +0.000 S 
ATOM     15  N   UNL     1       1.042   9.834  20.025  0.00  0.00    +0.000 N 
ATOM     16  C   UNL     1       1.699   9.264  18.831  0.00  0.00    +0.000 C 
ENDROOT
BRANCH  12  17
ATOM     17  C   UNL     1      -0.780  12.160  22.229  0.00  0.00    +0.000 A 
ATOM     18  C   UNL     1      -0.402  13.500  22.099  0.00  0.00    +0.000 A 
ATOM     19  N   UNL     1      -1.068  14.570  22.620  0.00  0.00    +0.000 NA
ATOM     20  C   UNL     1      -2.206  14.343  23.319  0.00  0.00    +0.000 A 
ATOM     21  C   UNL     1      -2.682  13.059  23.530  0.00  0.00    +0.000 A 
ATOM     22  C   UNL     1      -1.945  11.971  22.983  0.00  0.00    +0.000 A 
BRANCH  21  23
ATOM     23  C   UNL     1      -3.953  12.774  24.276  0.00  0.00    +0.000 C 
ATOM     24  F   UNL     1      -4.213  11.464  24.508  0.00  0.00    +0.000 F 
ATOM     25  F   UNL     1      -3.957  13.371  25.501  0.00  0.00    +0.000 F 
ATOM     26  F   UNL     1      -5.043  13.259  23.623  0.00  0.00    +0.000 F 
ENDBRANCH  21  23
BRANCH  20  27
ATOM     27  C   UNL     1      -2.861  15.544  23.780  0.00  0.00    +0.000 C 
ATOM     28  N   UNL     1      -3.383  16.515  24.139  0.00  0.00    +0.000 NA
ENDBRANCH  20  27
ENDBRANCH  12  17
BRANCH   1  29
ATOM     29  N   UNL     1       3.763   5.016  17.084  0.00  0.00    +0.000 N 
ATOM     30  H   UNL     1       3.891   4.032  17.353  0.00  0.00    +0.000 HD
BRANCH  29  32
ATOM     31  C   UNL     1       6.015   4.091  15.993  0.00  0.00    +0.000 C 
ATOM     32  S   UNL     1       5.331   5.573  16.703  0.00  0.00    +0.000 S 
ATOM     33  O   UNL     1       5.990   5.811  17.969  0.00  0.00    +0.000 OA
ATOM     34  O   UNL     1       5.261   6.577  15.668  0.00  0.00    +0.000 OA
ENDBRANCH  29  32
ENDBRANCH   1  29
TORSDOF 5
ENDMDL
MODEL 2
REMARK VINA RESULT:      -8.2      0.899      1.215
REMARK  Name = 
REMARK  6 active torsions:
REMARK  status: ('A' for Active; 'I' for Inactive)
REMARK    1  A    between atoms: C_1  and  S_2
REMARK    2  A    between atoms: S_2  and  N_5
REMARK    3  A    between atoms: N_5  and  C_6
REMARK    4  A    between atoms: N_17  and  C_18
REMARK    5  A    between atoms: C_21  and  C_22
REMARK    6  A    between atoms: C_24  and  C_25
REMARK                            x       y       z     vdW  Elec       q    Type
REMARK                         _______ _______ _______ _____ _____    ______ ____
ROOT
ATOM      1  C   UNL     1       2.979   6.159  18.402  0.00  0.00    +0.000 A 
ATOM      2  C   UNL     1       2.591   7.501  18.268  0.00  0.00    +0.000 A 
ATOM      3  C   UNL     1       1.835   8.130  19.284  0.00  0.00    +0.000 A 
ATOM      4  C   UNL     1       1.534   7.393  20.455  0.00  0.00    +0.000 A 
ATOM      5  C   UNL     1       1.940   6.058  20.583  0.00  0.00    +0.000 A 
ATOM      6  C   UNL     1       2.663   5.457  19.565  0.00  0.00    +0.000 A 
ATOM      7  F   UNL     1       3.031   4.174  19.694  0.00  0.00    +0.000 F 
ATOM      8  C   UNL     1       0.737   8.018  21.572  0.00  0.00    +0.000 C 
ATOM      9  C   UNL     1       0.956   9.517  21.573  0.00  0.00    +0.000 C 
ATOM     10  C   UNL     1       0.001  10.231  22.497  0.00  0.00    +0.000 C 
ATOM     11  O   UNL     1      -0.086   9.944  23.684  0.00  0.00    +0.000 OA
ATOM     12  N   UNL     1      -0.646  11.234  21.791  0.00  0.00    +0.000 N 
ATOM     13  C   UNL     1      -0.336  11.101  20.425  0.00  0.00    +0.000 C 
ATOM     14  S   UNL     1      -1.003  11.883  19.110  0.00  0.00    +0.000 S 
ATOM     15  N   UNL     1       0.619  10.078  20.297  0.00  0.00    +0.000 N 
ATOM     16  C   UNL     1       1.358   9.576  19.121  0.00  0.00    +0.000 C 
ENDROOT
BRANCH  12  17
ATOM     17  C   UNL     1      -1.429  12.240  22.470  0.00  0.00    +0.000 A 
ATOM     18  C   UNL     1      -0.843  13.357  23.074  0.00  0.00    +0.000 A 
ATOM     19  N   UNL     1      -1.514  14.404  23.634  0.00  0.00    +0.000 NA
ATOM     20  C   UNL     1      -2.868  14.390  23.605  0.00  0.00    +0.000 A 
ATOM     21  C   UNL     1      -3.571  13.335  23.046  0.00  0.00    +0.000 A 
ATOM     22  C   UNL     1      -2.829  12.255  22.488  0.00  0.00    +0.000 A 
BRANCH  21  23
ATOM     23  C   UNL     1      -5.069  13.301  22.973  0.00  0.00    +0.000 C 
ATOM     24  F   UNL     1      -5.658  14.429  22.506  0.00  0.00    +0.000 F 
ATOM     25  F   UNL     1      -5.507  12.297  22.162  0.00  0.00    +0.000 F 
ATOM     26  F   UNL     1      -5.630  13.065  24.189  0.00  0.00    +0.000 F 
ENDBRANCH  21  23
BRANCH  20  27
ATOM     27  C   UNL     1      -3.479  15.568  24.175  0.00  0.00    +0.000 C 
ATOM     28  N   UNL     1      -3.963  16.511  24.644  0.00  0.00    +0.000 NA
ENDBRANCH  20  27
ENDBRANCH  12  17
BRANCH   1  29
ATOM     29  N   UNL     1       3.739   5.499  17.372  0.00  0.00    +0.000 N 
ATOM     30  H   UNL     1       3.616   4.480  17.428  0.00  0.00    +0.000 HD
BRANCH  29  32
ATOM     31  C   UNL     1       5.965   4.440  16.350  0.00  0.00    +0.000 C 
ATOM     32  S   UNL     1       5.428   5.738  17.444  0.00  0.00    +0.000 S 
ATOM     33  O   UNL     1       5.826   5.384  18.790  0.00  0.00    +0.000 OA
ATOM     34  O   UNL     1       5.774   7.004  16.843  0.00  0.00    +0.000 OA
ENDBRANCH  29  32
ENDBRANCH   1  29
TORSDOF 5
ENDMDL
MODEL 3
REMARK VINA RESULT:      -8.0      1.752      2.106
REMARK  Name = 
REMARK  6 active torsions:
REMARK  status: ('A' for Active; 'I' for Inactive)
REMARK    1  A    between atoms: C_1  and  S_2
REMARK    2  A    between atoms: S_2  and  N_5
REMARK    3  A    between atoms: N_5  and  C_6
REMARK    4  A    between atoms: N_17  and  C_18
REMARK    5  A    between atoms: C_21  and  C_22
REMARK    6  A    between atoms: C_24  and  C_25
REMARK                            x       y       z     vdW  Elec       q    Type
REMARK                         _______ _______ _______ _____ _____    ______ ____
ROOT
ATOM      1  C   UNL     1       3.202   5.838  18.144  0.00  0.00    +0.000 A 
ATOM      2  C   UNL     1       2.835   7.180  17.960  0.00  0.00    +0.000 A 
ATOM      3  C   UNL     1       2.121   7.869  18.967  0.00  0.00    +0.000 A 
ATOM      4  C   UNL     1       1.842   7.192  20.180  0.00  0.00    +0.000 A 
ATOM      5  C   UNL     1       2.229   5.857  20.357  0.00  0.00    +0.000 A 
ATOM      6  C   UNL     1       2.909   5.196  19.347  0.00  0.00    +0.000 A 
ATOM      7  F   UNL     1       3.258   3.913  19.524  0.00  0.00    +0.000 F 
ATOM      8  C   UNL     1       1.091   7.883  21.290  0.00  0.00    +0.000 C 
ATOM      9  C   UNL     1       1.337   9.376  21.215  0.00  0.00    +0.000 C 
ATOM     10  C   UNL     1       0.424  10.149  22.132  0.00  0.00    +0.000 C 
ATOM     11  O   UNL     1       0.367   9.918  23.334  0.00  0.00    +0.000 OA
ATOM     12  N   UNL     1      -0.226  11.131  21.400  0.00  0.00    +0.000 N 
ATOM     13  C   UNL     1       0.039  10.930  20.034  0.00  0.00    +0.000 C 
ATOM     14  S   UNL     1      -0.653  11.664  18.704  0.00  0.00    +0.000 S 
ATOM     15  N   UNL     1       0.972   9.884  19.925  0.00  0.00    +0.000 N 
ATOM     16  C   UNL     1       1.666   9.315  18.752  0.00  0.00    +0.000 C 
ENDROOT
BRANCH  12  17
ATOM     17  C   UNL     1      -0.970  12.182  22.055  0.00  0.00    +0.000 A 
ATOM     18  C   UNL     1      -2.245  11.971  22.589  0.00  0.00    +0.000 A 
ATOM     19  N   UNL     1      -2.963  12.872  23.318  0.00  0.00    +0.000 NA
ATOM     20  C   UNL     1      -2.410  14.082  23.571  0.00  0.00    +0.000 A 
ATOM     21  C   UNL     1      -1.156  14.422  23.089  0.00  0.00    +0.000 A 
ATOM     22  C   UNL     1      -0.450  13.455  22.317  0.00  0.00    +0.000 A 
BRANCH  21  23
ATOM     23  C   UNL     1      -0.503  15.742  23.374  0.00  0.00    +0.000 C 
ATOM     24  F   UNL     1      -0.369  16.057  24.684  0.00  0.00    +0.000 F 
ATOM     25  F   UNL     1       0.754  15.800  22.852  0.00  0.00    +0.000 F 
ATOM     26  F   UNL     1      -1.186  16.775  22.811  0.00  0.00    +0.000 F 
ENDBRANCH  21  23
BRANCH  20  27
ATOM     27  C   UNL     1      -3.228  14.940  24.395  0.00  0.00    +0.000 C 
ATOM     28  N   UNL     1      -3.896  15.621  25.054  0.00  0.00    +0.000 NA
ENDBRANCH  20  27
ENDBRANCH  12  17
BRANCH   1  29
ATOM     29  N   UNL     1       3.919   5.117  17.123  0.00  0.00    +0.000 N 
ATOM     30  H   UNL     1       4.104   4.152  17.425  0.00  0.00    +0.000 HD
BRANCH  29  32
ATOM     31  C   UNL     1       6.246   4.272  16.127  0.00  0.00    +0.000 C 
ATOM     32  S   UNL     1       5.453   5.751  16.721  0.00  0.00    +0.000 S 
ATOM     33  O   UNL     1       6.074   6.120  17.975  0.00  0.00    +0.000 OA
ATOM     34  O   UNL     1       5.333   6.672  15.617  0.00  0.00    +0.000 OA
ENDBRANCH  29  32
ENDBRANCH   1  29
TORSDOF 5
ENDMDL
MODEL 4
REMARK VINA RESULT:      -8.0      0.860      1.028
REMARK  Name = 
REMARK  6 active torsions:
REMARK  status: ('A' for Active; 'I' for Inactive)
REMARK    1  A    between atoms: C_1  and  S_2
REMARK    2  A    between atoms: S_2  and  N_5
REMARK    3  A    between atoms: N_5  and  C_6
REMARK    4  A    between atoms: N_17  and  C_18
REMARK    5  A    between atoms: C_21  and  C_22
REMARK    6  A    between atoms: C_24  and  C_25
REMARK                            x       y       z     vdW  Elec       q    Type
REMARK                         _______ _______ _______ _____ _____    ______ ____
ROOT
ATOM      1  C   UNL     1       2.982   5.198  18.424  0.00  0.00    +0.000 A 
ATOM      2  C   UNL     1       2.714   6.558  18.202  0.00  0.00    +0.000 A 
ATOM      3  C   UNL     1       2.065   7.329  19.193  0.00  0.00    +0.000 A 
ATOM      4  C   UNL     1       1.749   6.711  20.428  0.00  0.00    +0.000 A 
ATOM      5  C   UNL     1       2.035   5.357  20.643  0.00  0.00    +0.000 A 
ATOM      6  C   UNL     1       2.654   4.616  19.649  0.00  0.00    +0.000 A 
ATOM      7  F   UNL     1       2.907   3.317  19.862  0.00  0.00    +0.000 F 
ATOM      8  C   UNL     1       1.063   7.490  21.522  0.00  0.00    +0.000 C 
ATOM      9  C   UNL     1       1.419   8.957  21.399  0.00  0.00    +0.000 C 
ATOM     10  C   UNL     1       0.576   9.824  22.300  0.00  0.00    +0.000 C 
ATOM     11  O   UNL     1       0.514   9.634  23.508  0.00  0.00    +0.000 OA
ATOM     12  N   UNL     1      -0.006  10.830  21.543  0.00  0.00    +0.000 N 
ATOM     13  C   UNL     1       0.230  10.569  20.181  0.00  0.00    +0.000 C 
ATOM     14  S   UNL     1      -0.419  11.312  18.835  0.00  0.00    +0.000 S 
ATOM     15  N   UNL     1       1.080   9.452  20.097  0.00  0.00    +0.000 N 
ATOM     16  C   UNL     1       1.717   8.798  18.937  0.00  0.00    +0.000 C 
ENDROOT
BRANCH  12  17
ATOM     17  C   UNL     1      -0.662  11.953  22.171  0.00  0.00    +0.000 A 
ATOM     18  C   UNL     1      -0.250  13.272  21.957  0.00  0.00    +0.000 A 
ATOM     19  N   UNL     1      -0.881  14.389  22.418  0.00  0.00    +0.000 NA
ATOM     20  C   UNL     1      -2.015  14.236  23.142  0.00  0.00    +0.000 A 
ATOM     21  C   UNL     1      -2.524  12.981  23.435  0.00  0.00    +0.000 A 
ATOM     22  C   UNL     1      -1.822  11.842  22.947  0.00  0.00    +0.000 A 
BRANCH  21  23
ATOM     23  C   UNL     1      -3.792  12.776  24.210  0.00  0.00    +0.000 C 
ATOM     24  F   UNL     1      -4.056  11.497  24.572  0.00  0.00    +0.000 F 
ATOM     25  F   UNL     1      -3.789  13.492  25.370  0.00  0.00    +0.000 F 
ATOM     26  F   UNL     1      -4.883  13.199  23.516  0.00  0.00    +0.000 F 
ENDBRANCH  21  23
BRANCH  20  27
ATOM     27  C   UNL     1      -2.632  15.480  23.536  0.00  0.00    +0.000 C 
ATOM     28  N   UNL     1      -3.121  16.479  23.863  0.00  0.00    +0.000 NA
ENDBRANCH  20  27
ENDBRANCH  12  17
BRANCH   1  29
ATOM     29  N   UNL     1       3.632   4.394  17.420  0.00  0.00    +0.000 N 
ATOM     30  H   UNL     1       3.400   3.401  17.547  0.00  0.00    +0.000 HD
BRANCH  29  32
ATOM     31  C   UNL     1       5.589   6.159  17.004  0.00  0.00    +0.000 C 
ATOM     32  S   UNL     1       5.339   4.450  17.433  0.00  0.00    +0.000 S 
ATOM     33  O   UNL     1       5.774   3.638  16.316  0.00  0.00    +0.000 OA
ATOM     34  O   UNL     1       5.830   4.246  18.775  0.00  0.00    +0.000 OA
ENDBRANCH  29  32
ENDBRANCH   1  29
TORSDOF 5
ENDMDL
MODEL 5
REMARK VINA RESULT:      -8.0      1.161      1.417
REMARK  Name = 
REMARK  6 active torsions:
REMARK  status: ('A' for Active; 'I' for Inactive)
REMARK    1  A    between atoms: C_1  and  S_2
REMARK    2  A    between atoms: S_2  and  N_5
REMARK    3  A    between atoms: N_5  and  C_6
REMARK    4  A    between atoms: N_17  and  C_18
REMARK    5  A    between atoms: C_21  and  C_22
REMARK    6  A    between atoms: C_24  and  C_25
REMARK                            x       y       z     vdW  Elec       q    Type
REMARK                         _______ _______ _______ _____ _____    ______ ____
ROOT
ATOM      1  C   UNL     1       2.964   6.119  18.458  0.00  0.00    +0.000 A 
ATOM      2  C   UNL     1       2.612   7.472  18.334  0.00  0.00    +0.000 A 
ATOM      3  C   UNL     1       1.833   8.102  19.331  0.00  0.00    +0.000 A 
ATOM      4  C   UNL     1       1.470   7.352  20.477  0.00  0.00    +0.000 A 
ATOM      5  C   UNL     1       1.841   6.006  20.596  0.00  0.00    +0.000 A 
ATOM      6  C   UNL     1       2.588   5.405  19.596  0.00  0.00    +0.000 A 
ATOM      7  F   UNL     1       2.921   4.112  19.715  0.00  0.00    +0.000 F 
ATOM      8  C   UNL     1       0.646   7.977  21.575  0.00  0.00    +0.000 C 
ATOM      9  C   UNL     1       0.899   9.470  21.611  0.00  0.00    +0.000 C 
ATOM     10  C   UNL     1      -0.073  10.189  22.510  0.00  0.00    +0.000 C 
ATOM     11  O   UNL     1      -0.212   9.884  23.689  0.00  0.00    +0.000 OA
ATOM     12  N   UNL     1      -0.669  11.220  21.799  0.00  0.00    +0.000 N 
ATOM     13  C   UNL     1      -0.311  11.103  20.444  0.00  0.00    +0.000 C 
ATOM     14  S   UNL     1      -0.909  11.923  19.119  0.00  0.00    +0.000 S 
ATOM     15  N   UNL     1       0.625  10.060  20.333  0.00  0.00    +0.000 N 
ATOM     16  C   UNL     1       1.396   9.561  19.177  0.00  0.00    +0.000 C 
ENDROOT
BRANCH  12  17
ATOM     17  C   UNL     1      -1.454  12.232  22.466  0.00  0.00    +0.000 A 
ATOM     18  C   UNL     1      -0.869  13.347  23.074  0.00  0.00    +0.000 A 
ATOM     19  N   UNL     1      -1.540  14.400  23.623  0.00  0.00    +0.000 NA
ATOM     20  C   UNL     1      -2.894  14.394  23.579  0.00  0.00    +0.000 A 
ATOM     21  C   UNL     1      -3.596  13.341  23.015  0.00  0.00    +0.000 A 
ATOM     22  C   UNL     1      -2.854  12.255  22.469  0.00  0.00    +0.000 A 
BRANCH  21  23
ATOM     23  C   UNL     1      -5.094  13.316  22.925  0.00  0.00    +0.000 C 
ATOM     24  F   UNL     1      -5.749  13.247  24.109  0.00  0.00    +0.000 F 
ATOM     25  F   UNL     1      -5.575  14.428  22.303  0.00  0.00    +0.000 F 
ATOM     26  F   UNL     1      -5.538  12.260  22.192  0.00  0.00    +0.000 F 
ENDBRANCH  21  23
BRANCH  20  27
ATOM     27  C   UNL     1      -3.504  15.577  24.138  0.00  0.00    +0.000 C 
ATOM     28  N   UNL     1      -3.987  16.534  24.579  0.00  0.00    +0.000 NA
ENDBRANCH  20  27
ENDBRANCH  12  17
BRANCH   1  29
ATOM     29  N   UNL     1       3.747   5.459  17.445  0.00  0.00    +0.000 N 
ATOM     30  H   UNL     1       3.460   4.477  17.349  0.00  0.00    +0.000 HD
BRANCH  29  32
ATOM     31  C   UNL     1       5.915   6.970  17.074  0.00  0.00    +0.000 C 
ATOM     32  S   UNL     1       5.427   5.396  17.747  0.00  0.00    +0.000 S 
ATOM     33  O   UNL     1       5.950   4.357  16.884  0.00  0.00    +0.000 OA
ATOM     34  O   UNL     1       5.675   5.417  19.169  0.00  0.00    +0.000 OA
ENDBRANCH  29  32
ENDBRANCH   1  29
TORSDOF 5
ENDMDL
MODEL 6
REMARK VINA RESULT:      -7.8      0.998      1.202
REMARK  Name = 
REMARK  6 active torsions:
REMARK  status: ('A' for Active; 'I' for Inactive)
REMARK    1  A    between atoms: C_1  and  S_2
REMARK    2  A    between atoms: S_2  and  N_5
REMARK    3  A    between atoms: N_5  and  C_6
REMARK    4  A    between atoms: N_17  and  C_18
REMARK    5  A    between atoms: C_21  and  C_22
REMARK    6  A    between atoms: C_24  and  C_25
REMARK                            x       y       z     vdW  Elec       q    Type
REMARK                         _______ _______ _______ _____ _____    ______ ____
ROOT
ATOM      1  C   UNL     1       3.358   6.133  18.000  0.00  0.00    +0.000 A 
ATOM      2  C   UNL     1       2.755   7.360  17.683  0.00  0.00    +0.000 A 
ATOM      3  C   UNL     1       2.025   8.070  18.663  0.00  0.00    +0.000 A 
ATOM      4  C   UNL     1       1.969   7.543  19.977  0.00  0.00    +0.000 A 
ATOM      5  C   UNL     1       2.589   6.324  20.284  0.00  0.00    +0.000 A 
ATOM      6  C   UNL     1       3.282   5.636  19.301  0.00  0.00    +0.000 A 
ATOM      7  F   UNL     1       3.856   4.463  19.605  0.00  0.00    +0.000 F 
ATOM      8  C   UNL     1       1.211   8.264  21.063  0.00  0.00    +0.000 C 
ATOM      9  C   UNL     1       1.193   9.749  20.768  0.00  0.00    +0.000 C 
ATOM     10  C   UNL     1       0.246  10.497  21.670  0.00  0.00    +0.000 C 
ATOM     11  O   UNL     1       0.332  10.439  22.891  0.00  0.00    +0.000 OA
ATOM     12  N   UNL     1      -0.622  11.249  20.891  0.00  0.00    +0.000 N 
ATOM     13  C   UNL     1      -0.444  10.894  19.542  0.00  0.00    +0.000 C 
ATOM     14  S   UNL     1      -1.362  11.309  18.212  0.00  0.00    +0.000 S 
ATOM     15  N   UNL     1       0.638  10.000  19.470  0.00  0.00    +0.000 N 
ATOM     16  C   UNL     1       1.315   9.381  18.313  0.00  0.00    +0.000 C 
ENDROOT
BRANCH  12  17
ATOM     17  C   UNL     1      -1.472  12.256  21.481  0.00  0.00    +0.000 A 
ATOM     18  C   UNL     1      -1.645  13.517  20.902  0.00  0.00    +0.000 A 
ATOM     19  N   UNL     1      -2.513  14.479  21.330  0.00  0.00    +0.000 NA
ATOM     20  C   UNL     1      -3.295  14.209  22.402  0.00  0.00    +0.000 A 
ATOM     21  C   UNL     1      -3.213  13.000  23.074  0.00  0.00    +0.000 A 
ATOM     22  C   UNL     1      -2.281  12.032  22.602  0.00  0.00    +0.000 A 
BRANCH  21  23
ATOM     23  C   UNL     1      -4.084  12.659  24.247  0.00  0.00    +0.000 C 
ATOM     24  F   UNL     1      -3.898  13.418  25.354  0.00  0.00    +0.000 F 
ATOM     25  F   UNL     1      -5.406  12.778  23.939  0.00  0.00    +0.000 F 
ATOM     26  F   UNL     1      -3.911  11.370  24.646  0.00  0.00    +0.000 F 
ENDBRANCH  21  23
BRANCH  20  27
ATOM     27  C   UNL     1      -4.214  15.271  22.739  0.00  0.00    +0.000 C 
ATOM     28  N   UNL     1      -4.945  16.124  23.022  0.00  0.00    +0.000 NA
ENDBRANCH  20  27
ENDBRANCH  12  17
BRANCH   1  29
ATOM     29  N   UNL     1       4.096   5.390  17.010  0.00  0.00    +0.000 N 
ATOM     30  H   UNL     1       4.246   4.422  17.322  0.00  0.00    +0.000 HD
BRANCH  29  32
ATOM     31  C   UNL     1       6.642   4.662  17.335  0.00  0.00    +0.000 C 
ATOM     32  S   UNL     1       5.658   5.985  16.665  0.00  0.00    +0.000 S 
ATOM     33  O   UNL     1       5.838   7.149  17.506  0.00  0.00    +0.000 OA
ATOM     34  O   UNL     1       5.868   6.024  15.237  0.00  0.00    +0.000 OA
ENDBRANCH  29  32
ENDBRANCH   1  29
TORSDOF 5
ENDMDL
MODEL 7
REMARK VINA RESULT:      -7.7      1.046      1.172
REMARK  Name = 
REMARK  6 active torsions:
REMARK  status: ('A' for Active; 'I' for Inactive)
REMARK    1  A    between atoms: C_1  and  S_2
REMARK    2  A    between atoms: S_2  and  N_5
REMARK    3  A    between atoms: N_5  and  C_6
REMARK    4  A    between atoms: N_17  and  C_18
REMARK    5  A    between atoms: C_21  and  C_22
REMARK    6  A    between atoms: C_24  and  C_25
REMARK                            x       y       z     vdW  Elec       q    Type
REMARK                         _______ _______ _______ _____ _____    ______ ____
ROOT
ATOM      1  C   UNL     1       3.024   5.928  18.433  0.00  0.00    +0.000 A 
ATOM      2  C   UNL     1       2.694   7.278  18.237  0.00  0.00    +0.000 A 
ATOM      3  C   UNL     1       1.943   7.978  19.208  0.00  0.00    +0.000 A 
ATOM      4  C   UNL     1       1.586   7.302  20.401  0.00  0.00    +0.000 A 
ATOM      5  C   UNL     1       1.935   5.958  20.592  0.00  0.00    +0.000 A 
ATOM      6  C   UNL     1       2.654   5.287  19.616  0.00  0.00    +0.000 A 
ATOM      7  F   UNL     1       2.966   3.997  19.805  0.00  0.00    +0.000 F 
ATOM      8  C   UNL     1       0.791   8.004  21.473  0.00  0.00    +0.000 C 
ATOM      9  C   UNL     1       1.071   9.492  21.419  0.00  0.00    +0.000 C 
ATOM     10  C   UNL     1       0.127  10.280  22.290  0.00  0.00    +0.000 C 
ATOM     11  O   UNL     1       0.002  10.046  23.486  0.00  0.00    +0.000 OA
ATOM     12  N   UNL     1      -0.463  11.279  21.529  0.00  0.00    +0.000 N 
ATOM     13  C   UNL     1      -0.130  11.077  20.178  0.00  0.00    +0.000 C 
ATOM     14  S   UNL     1      -0.736  11.831  18.818  0.00  0.00    +0.000 S 
ATOM     15  N   UNL     1       0.785  10.012  20.114  0.00  0.00    +0.000 N 
ATOM     16  C   UNL     1       1.529   9.434  18.976  0.00  0.00    +0.000 C 
ENDROOT
BRANCH  12  17
ATOM     17  C   UNL     1      -1.219  12.342  22.149  0.00  0.00    +0.000 A 
ATOM     18  C   UNL     1      -0.611  13.508  22.624  0.00  0.00    +0.000 A 
ATOM     19  N   UNL     1      -1.261  14.602  23.116  0.00  0.00    +0.000 NA
ATOM     20  C   UNL     1      -2.615  14.586  23.149  0.00  0.00    +0.000 A 
ATOM     21  C   UNL     1      -3.337  13.485  22.718  0.00  0.00    +0.000 A 
ATOM     22  C   UNL     1      -2.617  12.359  22.228  0.00  0.00    +0.000 A 
BRANCH  21  23
ATOM     23  C   UNL     1      -4.837  13.446  22.715  0.00  0.00    +0.000 C 
ATOM     24  F   UNL     1      -5.392  12.339  22.164  0.00  0.00    +0.000 F 
ATOM     25  F   UNL     1      -5.341  13.517  23.979  0.00  0.00    +0.000 F 
ATOM     26  F   UNL     1      -5.370  14.502  22.044  0.00  0.00    +0.000 F 
ENDBRANCH  21  23
BRANCH  20  27
ATOM     27  C   UNL     1      -3.204  15.811  23.637  0.00  0.00    +0.000 C 
ATOM     28  N   UNL     1      -3.672  16.791  24.041  0.00  0.00    +0.000 NA
ENDBRANCH  20  27
ENDBRANCH  12  17
BRANCH   1  29
ATOM     29  N   UNL     1       3.779   5.196  17.449  0.00  0.00    +0.000 N 
ATOM     30  H   UNL     1       3.732   4.186  17.635  0.00  0.00    +0.000 HD
BRANCH  29  32
ATOM     31  C   UNL     1       5.879   5.248  19.093  0.00  0.00    +0.000 C 
ATOM     32  S   UNL     1       5.447   5.553  17.393  0.00  0.00    +0.000 S 
ATOM     33  O   UNL     1       5.544   6.978  17.155  0.00  0.00    +0.000 OA
ATOM     34  O   UNL     1       6.134   4.584  16.574  0.00  0.00    +0.000 OA
ENDBRANCH  29  32
ENDBRANCH   1  29
TORSDOF 5
ENDMDL
MODEL 8
REMARK VINA RESULT:      -7.4      1.552      1.816
REMARK  Name = 
REMARK  6 active torsions:
REMARK  status: ('A' for Active; 'I' for Inactive)
REMARK    1  A    between atoms: C_1  and  S_2
REMARK    2  A    between atoms: S_2  and  N_5
REMARK    3  A    between atoms: N_5  and  C_6
REMARK    4  A    between atoms: N_17  and  C_18
REMARK    5  A    between atoms: C_21  and  C_22
REMARK    6  A    between atoms: C_24  and  C_25
REMARK                            x       y       z     vdW  Elec       q    Type
REMARK                         _______ _______ _______ _____ _____    ______ ____
ROOT
ATOM      1  C   UNL     1       3.326   6.276  18.265  0.00  0.00    +0.000 A 
ATOM      2  C   UNL     1       2.717   7.491  17.915  0.00  0.00    +0.000 A 
ATOM      3  C   UNL     1       1.922   8.187  18.853  0.00  0.00    +0.000 A 
ATOM      4  C   UNL     1       1.806   7.660  20.163  0.00  0.00    +0.000 A 
ATOM      5  C   UNL     1       2.432   6.453  20.504  0.00  0.00    +0.000 A 
ATOM      6  C   UNL     1       3.190   5.779  19.560  0.00  0.00    +0.000 A 
ATOM      7  F   UNL     1       3.769   4.617  19.896  0.00  0.00    +0.000 F 
ATOM      8  C   UNL     1       0.976   8.366  21.205  0.00  0.00    +0.000 C 
ATOM      9  C   UNL     1       0.946   9.851  20.907  0.00  0.00    +0.000 C 
ATOM     10  C   UNL     1      -0.064  10.580  21.756  0.00  0.00    +0.000 C 
ATOM     11  O   UNL     1      -0.042  10.524  22.980  0.00  0.00    +0.000 OA
ATOM     12  N   UNL     1      -0.902  11.315  20.931  0.00  0.00    +0.000 N 
ATOM     13  C   UNL     1      -0.646  10.963  19.594  0.00  0.00    +0.000 C 
ATOM     14  S   UNL     1      -1.498  11.360  18.215  0.00  0.00    +0.000 S 
ATOM     15  N   UNL     1       0.457  10.091  19.581  0.00  0.00    +0.000 N 
ATOM     16  C   UNL     1       1.207   9.484  18.463  0.00  0.00    +0.000 C 
ENDROOT
BRANCH  12  17
ATOM     17  C   UNL     1      -1.803  12.305  21.472  0.00  0.00    +0.000 A 
ATOM     18  C   UNL     1      -3.124  12.432  21.031  0.00  0.00    +0.000 A 
ATOM     19  N   UNL     1      -4.067  13.259  21.565  0.00  0.00    +0.000 NA
ATOM     20  C   UNL     1      -3.723  14.029  22.624  0.00  0.00    +0.000 A 
ATOM     21  C   UNL     1      -2.441  14.007  23.151  0.00  0.00    +0.000 A 
ATOM     22  C   UNL     1      -1.484  13.140  22.550  0.00  0.00    +0.000 A 
BRANCH  21  23
ATOM     23  C   UNL     1      -2.035  14.825  24.341  0.00  0.00    +0.000 C 
ATOM     24  F   UNL     1      -0.738  14.708  24.715  0.00  0.00    +0.000 F 
ATOM     25  F   UNL     1      -2.234  16.156  24.123  0.00  0.00    +0.000 F 
ATOM     26  F   UNL     1      -2.769  14.516  25.443  0.00  0.00    +0.000 F 
ENDBRANCH  21  23
BRANCH  20  27
ATOM     27  C   UNL     1      -4.807  14.827  23.147  0.00  0.00    +0.000 C 
ATOM     28  N   UNL     1      -5.686  15.462  23.557  0.00  0.00    +0.000 NA
ENDBRANCH  20  27
ENDBRANCH  12  17
BRANCH   1  29
ATOM     29  N   UNL     1       4.131   5.548  17.317  0.00  0.00    +0.000 N 
ATOM     30  H   UNL     1       4.512   4.695  17.747  0.00  0.00    +0.000 HD
BRANCH  29  32
ATOM     31  C   UNL     1       6.510   5.004  16.238  0.00  0.00    +0.000 C 
ATOM     32  S   UNL     1       5.494   6.384  16.721  0.00  0.00    +0.000 S 
ATOM     33  O   UNL     1       6.110   7.016  17.868  0.00  0.00    +0.000 OA
ATOM     34  O   UNL     1       5.141   7.120  15.530  0.00  0.00    +0.000 OA
ENDBRANCH  29  32
ENDBRANCH   1  29
TORSDOF 5
ENDMDL
MODEL 9
REMARK VINA RESULT:      -7.4      2.818      3.406
REMARK  Name = 
REMARK  6 active torsions:
REMARK  status: ('A' for Active; 'I' for Inactive)
REMARK    1  A    between atoms: C_1  and  S_2
REMARK    2  A    between atoms: S_2  and  N_5
REMARK    3  A    between atoms: N_5  and  C_6
REMARK    4  A    between atoms: N_17  and  C_18
REMARK    5  A    between atoms: C_21  and  C_22
REMARK    6  A    between atoms: C_24  and  C_25
REMARK                            x       y       z     vdW  Elec       q    Type
REMARK                         _______ _______ _______ _____ _____    ______ ____
ROOT
ATOM      1  C   UNL     1       3.133   6.567  19.109  0.00  0.00    +0.000 A 
ATOM      2  C   UNL     1       2.174   6.975  20.048  0.00  0.00    +0.000 A 
ATOM      3  C   UNL     1       1.443   8.169  19.851  0.00  0.00    +0.000 A 
ATOM      4  C   UNL     1       1.663   8.905  18.660  0.00  0.00    +0.000 A 
ATOM      5  C   UNL     1       2.614   8.479  17.723  0.00  0.00    +0.000 A 
ATOM      6  C   UNL     1       3.332   7.315  17.949  0.00  0.00    +0.000 A 
ATOM      7  F   UNL     1       4.250   6.929  17.051  0.00  0.00    +0.000 F 
ATOM      8  C   UNL     1       0.906  10.182  18.396  0.00  0.00    +0.000 C 
ATOM      9  C   UNL     1      -0.434  10.130  19.099  0.00  0.00    +0.000 C 
ATOM     10  C   UNL     1      -1.134  11.465  19.087  0.00  0.00    +0.000 C 
ATOM     11  O   UNL     1      -1.370  12.063  18.043  0.00  0.00    +0.000 OA
ATOM     12  N   UNL     1      -1.482  11.806  20.386  0.00  0.00    +0.000 N 
ATOM     13  C   UNL     1      -0.883  10.891  21.271  0.00  0.00    +0.000 C 
ATOM     14  S   UNL     1      -0.777  10.948  22.935  0.00  0.00    +0.000 S 
ATOM     15  N   UNL     1      -0.260   9.893  20.502  0.00  0.00    +0.000 N 
ATOM     16  C   UNL     1       0.435   8.651  20.898  0.00  0.00    +0.000 C 
ENDROOT
BRANCH  12  17
ATOM     17  C   UNL     1      -2.379  12.905  20.655  0.00  0.00    +0.000 A 
ATOM     18  C   UNL     1      -1.947  14.234  20.667  0.00  0.00    +0.000 A 
ATOM     19  N   UNL     1      -2.746  15.332  20.800  0.00  0.00    +0.000 NA
ATOM     20  C   UNL     1      -4.082  15.144  20.921  0.00  0.00    +0.000 A 
ATOM     21  C   UNL     1      -4.638  13.875  20.935  0.00  0.00    +0.000 A 
ATOM     22  C   UNL     1      -3.763  12.758  20.812  0.00  0.00    +0.000 A 
BRANCH  21  23
ATOM     23  C   UNL     1      -6.115  13.633  21.040  0.00  0.00    +0.000 C 
ATOM     24  F   UNL     1      -6.868  14.177  20.054  0.00  0.00    +0.000 F 
ATOM     25  F   UNL     1      -6.405  12.301  21.030  0.00  0.00    +0.000 F 
ATOM     26  F   UNL     1      -6.625  14.114  22.206  0.00  0.00    +0.000 F 
ENDBRANCH  21  23
BRANCH  20  27
ATOM     27  C   UNL     1      -4.842  16.369  21.001  0.00  0.00    +0.000 C 
ATOM     28  N   UNL     1      -5.448  17.354  21.078  0.00  0.00    +0.000 NA
ENDBRANCH  20  27
ENDBRANCH  12  17
BRANCH   1  29
ATOM     29  N   UNL     1       3.895   5.359  19.300  0.00  0.00    +0.000 N 
ATOM     30  H   UNL     1       4.861   5.486  18.974  0.00  0.00    +0.000 HD
BRANCH  29  32
ATOM     31  C   UNL     1       3.416   2.772  19.743  0.00  0.00    +0.000 C 
ATOM     32  S   UNL     1       3.323   3.993  18.451  0.00  0.00    +0.000 S 
ATOM     33  O   UNL     1       4.336   3.681  17.465  0.00  0.00    +0.000 OA
ATOM     34  O   UNL     1       1.934   4.174  18.102  0.00  0.00    +0.000 OA
ENDBRANCH  29  32
ENDBRANCH   1  29
TORSDOF 5
ENDMDL
