MODEL 1
REMARK VINA RESULT:      -6.8      0.000      0.000
REMARK  Name = 
REMARK  5 active torsions:
REMARK  status: ('A' for Active; 'I' for Inactive)
REMARK    1  A    between atoms: C_1  and  C_2
REMARK    2  A    between atoms: C_2  and  C_3
REMARK    3  A    between atoms: C_3  and  N_4
REMARK    4  A    between atoms: C_15  and  S_16
REMARK    5  A    between atoms: S_16  and  C_17
REMARK                            x       y       z     vdW  Elec       q    Type
REMARK                         _______ _______ _______ _____ _____    ______ ____
ROOT
ATOM      1  N   UNL     1       5.465   5.027  17.290  0.00  0.00    +0.000 N 
ATOM      2  C   UNL     1       5.000   6.280  16.962  0.00  0.00    +0.000 A 
ATOM      3  O   UNL     1       5.467   6.941  16.035  0.00  0.00    +0.000 OA
ATOM      4  C   UNL     1       3.877   6.840  17.763  0.00  0.00    +0.000 A 
ATOM      5  C   UNL     1       3.425   8.106  17.331  0.00  0.00    +0.000 A 
ATOM      6  C   UNL     1       2.391   8.746  17.979  0.00  0.00    +0.000 A 
ATOM      7  C   UNL     1       1.814   8.118  19.065  0.00  0.00    +0.000 A 
ATOM      8  C   UNL     1       2.245   6.849  19.521  0.00  0.00    +0.000 A 
ATOM      9 CL   UNL     1       1.319   6.386  20.889  0.00  0.00    +0.000 Cl
ATOM     10  C   UNL     1       3.292   6.164  18.871  0.00  0.00    +0.000 A 
ATOM     11  N   UNL     1       3.862   4.871  19.159  0.00  0.00    +0.000 N 
ATOM     12  C   UNL     1       3.681   3.833  20.082  0.00  0.00    +0.000 A 
ATOM     13  N   UNL     1       4.524   2.851  19.845  0.00  0.00    +0.000 NA
ATOM     14  N   UNL     1       5.277   3.179  18.774  0.00  0.00    +0.000 NA
ATOM     15  C   UNL     1       4.904   4.365  18.365  0.00  0.00    +0.000 A 
ENDROOT
BRANCH  12  16
ATOM     16  S   UNL     1       2.563   3.692  21.387  0.00  0.00    +0.000 S 
ATOM     17  C   UNL     1       1.174   2.799  20.668  0.00  0.00    +0.000 C 
ENDBRANCH  12  16
BRANCH   1  18
ATOM     18  C   UNL     1       6.535   4.432  16.483  0.00  0.00    +0.000 C 
BRANCH  18  20
ATOM     19  C   UNL     1       6.416   4.247  13.939  0.00  0.00    +0.000 C 
ATOM     20  C   UNL     1       6.038   3.629  15.275  0.00  0.00    +0.000 C 
ENDBRANCH  18  20
ENDBRANCH   1  18
TORSDOF 3
ENDMDL
MODEL 2
REMARK VINA RESULT:      -6.5      2.800      5.546
REMARK  Name = 
REMARK  5 active torsions:
REMARK  status: ('A' for Active; 'I' for Inactive)
REMARK    1  A    between atoms: C_1  and  C_2
REMARK    2  A    between atoms: C_2  and  C_3
REMARK    3  A    between atoms: C_3  and  N_4
REMARK    4  A    between atoms: C_15  and  S_16
REMARK    5  A    between atoms: S_16  and  C_17
REMARK                            x       y       z     vdW  Elec       q    Type
REMARK                         _______ _______ _______ _____ _____    ______ ____
ROOT
ATOM      1  N   UNL     1       2.451   7.297  19.037  0.00  0.00    +0.000 N 
ATOM      2  C   UNL     1       1.785   6.482  19.923  0.00  0.00    +0.000 A 
ATOM      3  O   UNL     1       1.026   6.918  20.787  0.00  0.00    +0.000 OA
ATOM      4  C   UNL     1       1.990   5.011  19.810  0.00  0.00    +0.000 A 
ATOM      5  C   UNL     1       1.232   4.243  20.720  0.00  0.00    +0.000 A 
ATOM      6  C   UNL     1       1.321   2.868  20.730  0.00  0.00    +0.000 A 
ATOM      7  C   UNL     1       2.177   2.264  19.830  0.00  0.00    +0.000 A 
ATOM      8  C   UNL     1       2.949   3.007  18.905  0.00  0.00    +0.000 A 
ATOM      9 CL   UNL     1       3.900   1.937  17.960  0.00  0.00    +0.000 Cl
ATOM     10  C   UNL     1       2.870   4.415  18.863  0.00  0.00    +0.000 A 
ATOM     11  N   UNL     1       3.547   5.347  17.996  0.00  0.00    +0.000 N 
ATOM     12  C   UNL     1       4.470   5.312  16.943  0.00  0.00    +0.000 A 
ATOM     13  N   UNL     1       4.730   6.529  16.516  0.00  0.00    +0.000 NA
ATOM     14  N   UNL     1       4.002   7.404  17.239  0.00  0.00    +0.000 NA
ATOM     15  C   UNL     1       3.307   6.726  18.117  0.00  0.00    +0.000 A 
ENDROOT
BRANCH  12  16
ATOM     16  S   UNL     1       5.240   3.967  16.188  0.00  0.00    +0.000 S 
ATOM     17  C   UNL     1       6.987   4.398  16.218  0.00  0.00    +0.000 C 
ENDBRANCH  12  16
BRANCH   1  18
ATOM     18  C   UNL     1       2.224   8.745  19.095  0.00  0.00    +0.000 C 
BRANCH  18  20
ATOM     19  C   UNL     1       0.139  10.141  18.623  0.00  0.00    +0.000 C 
ATOM     20  C   UNL     1       1.240   9.268  18.042  0.00  0.00    +0.000 C 
ENDBRANCH  18  20
ENDBRANCH   1  18
TORSDOF 3
ENDMDL
MODEL 3
REMARK VINA RESULT:      -6.5      0.691      1.079
REMARK  Name = 
REMARK  5 active torsions:
REMARK  status: ('A' for Active; 'I' for Inactive)
REMARK    1  A    between atoms: C_1  and  C_2
REMARK    2  A    between atoms: C_2  and  C_3
REMARK    3  A    between atoms: C_3  and  N_4
REMARK    4  A    between atoms: C_15  and  S_16
REMARK    5  A    between atoms: S_16  and  C_17
REMARK                            x       y       z     vdW  Elec       q    Type
REMARK                         _______ _______ _______ _____ _____    ______ ____
ROOT
ATOM      1  N   UNL     1       4.927   4.882  17.020  0.00  0.00    +0.000 N 
ATOM      2  C   UNL     1       4.580   6.186  16.750  0.00  0.00    +0.000 A 
ATOM      3  O   UNL     1       5.021   6.806  15.784  0.00  0.00    +0.000 OA
ATOM      4  C   UNL     1       3.617   6.857  17.667  0.00  0.00    +0.000 A 
ATOM      5  C   UNL     1       3.272   8.173  17.294  0.00  0.00    +0.000 A 
ATOM      6  C   UNL     1       2.391   8.916  18.049  0.00  0.00    +0.000 A 
ATOM      7  C   UNL     1       1.861   8.338  19.186  0.00  0.00    +0.000 A 
ATOM      8  C   UNL     1       2.187   7.019  19.586  0.00  0.00    +0.000 A 
ATOM      9 CL   UNL     1       1.360   6.641  21.041  0.00  0.00    +0.000 Cl
ATOM     10  C   UNL     1       3.076   6.231  18.826  0.00  0.00    +0.000 A 
ATOM     11  N   UNL     1       3.519   4.877  19.045  0.00  0.00    +0.000 N 
ATOM     12  C   UNL     1       3.316   3.849  19.975  0.00  0.00    +0.000 A 
ATOM     13  N   UNL     1       4.010   2.782  19.645  0.00  0.00    +0.000 NA
ATOM     14  N   UNL     1       4.681   3.042  18.504  0.00  0.00    +0.000 NA
ATOM     15  C   UNL     1       4.408   4.270  18.143  0.00  0.00    +0.000 A 
ENDROOT
BRANCH  12  16
ATOM     16  S   UNL     1       2.329   3.813  21.389  0.00  0.00    +0.000 S 
ATOM     17  C   UNL     1       0.870   2.895  20.872  0.00  0.00    +0.000 C 
ENDBRANCH  12  16
BRANCH   1  18
ATOM     18  C   UNL     1       5.833   4.184  16.102  0.00  0.00    +0.000 C 
BRANCH  18  20
ATOM     19  C   UNL     1       7.743   4.671  17.726  0.00  0.00    +0.000 C 
ATOM     20  C   UNL     1       7.310   4.559  16.272  0.00  0.00    +0.000 C 
ENDBRANCH  18  20
ENDBRANCH   1  18
TORSDOF 3
ENDMDL
MODEL 4
REMARK VINA RESULT:      -6.4      1.260      1.308
REMARK  Name = 
REMARK  5 active torsions:
REMARK  status: ('A' for Active; 'I' for Inactive)
REMARK    1  A    between atoms: C_1  and  C_2
REMARK    2  A    between atoms: C_2  and  C_3
REMARK    3  A    between atoms: C_3  and  N_4
REMARK    4  A    between atoms: C_15  and  S_16
REMARK    5  A    between atoms: S_16  and  C_17
REMARK                            x       y       z     vdW  Elec       q    Type
REMARK                         _______ _______ _______ _____ _____    ______ ____
ROOT
ATOM      1  N   UNL     1       4.984   4.466  16.381  0.00  0.00    +0.000 N 
ATOM      2  C   UNL     1       4.807   5.828  16.477  0.00  0.00    +0.000 A 
ATOM      3  O   UNL     1       5.420   6.629  15.771  0.00  0.00    +0.000 OA
ATOM      4  C   UNL     1       3.820   6.337  17.469  0.00  0.00    +0.000 A 
ATOM      5  C   UNL     1       3.661   7.740  17.468  0.00  0.00    +0.000 A 
ATOM      6  C   UNL     1       2.780   8.351  18.334  0.00  0.00    +0.000 A 
ATOM      7  C   UNL     1       2.065   7.555  19.206  0.00  0.00    +0.000 A 
ATOM      8  C   UNL     1       2.203   6.146  19.230  0.00  0.00    +0.000 A 
ATOM      9 CL   UNL     1       1.179   5.489  20.439  0.00  0.00    +0.000 Cl
ATOM     10  C   UNL     1       3.087   5.491  18.347  0.00  0.00    +0.000 A 
ATOM     11  N   UNL     1       3.358   4.082  18.197  0.00  0.00    +0.000 N 
ATOM     12  C   UNL     1       2.943   2.873  18.768  0.00  0.00    +0.000 A 
ATOM     13  N   UNL     1       3.556   1.858  18.198  0.00  0.00    +0.000 NA
ATOM     14  N   UNL     1       4.377   2.334  17.240  0.00  0.00    +0.000 NA
ATOM     15  C   UNL     1       4.277   3.639  17.232  0.00  0.00    +0.000 A 
ENDROOT
BRANCH  12  16
ATOM     16  S   UNL     1       1.801   2.575  20.025  0.00  0.00    +0.000 S 
ATOM     17  C   UNL     1       2.800   2.570  21.522  0.00  0.00    +0.000 C 
ENDBRANCH  12  16
BRANCH   1  18
ATOM     18  C   UNL     1       5.912   3.938  15.376  0.00  0.00    +0.000 C 
BRANCH  18  20
ATOM     19  C   UNL     1       6.429   3.711  12.885  0.00  0.00    +0.000 C 
ATOM     20  C   UNL     1       5.367   3.970  13.943  0.00  0.00    +0.000 C 
ENDBRANCH  18  20
ENDBRANCH   1  18
TORSDOF 3
ENDMDL
MODEL 5
REMARK VINA RESULT:      -6.1      1.209      1.434
REMARK  Name = 
REMARK  5 active torsions:
REMARK  status: ('A' for Active; 'I' for Inactive)
REMARK    1  A    between atoms: C_1  and  C_2
REMARK    2  A    between atoms: C_2  and  C_3
REMARK    3  A    between atoms: C_3  and  N_4
REMARK    4  A    between atoms: C_15  and  S_16
REMARK    5  A    between atoms: S_16  and  C_17
REMARK                            x       y       z     vdW  Elec       q    Type
REMARK                         _______ _______ _______ _____ _____    ______ ____
ROOT
ATOM      1  N   UNL     1       4.796   4.684  16.466  0.00  0.00    +0.000 N 
ATOM      2  C   UNL     1       4.599   6.041  16.572  0.00  0.00    +0.000 A 
ATOM      3  O   UNL     1       5.186   6.856  15.861  0.00  0.00    +0.000 OA
ATOM      4  C   UNL     1       3.622   6.529  17.584  0.00  0.00    +0.000 A 
ATOM      5  C   UNL     1       3.439   7.929  17.595  0.00  0.00    +0.000 A 
ATOM      6  C   UNL     1       2.565   8.521  18.480  0.00  0.00    +0.000 A 
ATOM      7  C   UNL     1       1.878   7.708  19.360  0.00  0.00    +0.000 A 
ATOM      8  C   UNL     1       2.039   6.301  19.372  0.00  0.00    +0.000 A 
ATOM      9 CL   UNL     1       1.047   5.622  20.595  0.00  0.00    +0.000 Cl
ATOM     10  C   UNL     1       2.918   5.666  18.471  0.00  0.00    +0.000 A 
ATOM     11  N   UNL     1       3.209   4.263  18.307  0.00  0.00    +0.000 N 
ATOM     12  C   UNL     1       2.823   3.043  18.878  0.00  0.00    +0.000 A 
ATOM     13  N   UNL     1       3.442   2.042  18.292  0.00  0.00    +0.000 NA
ATOM     14  N   UNL     1       4.239   2.537  17.322  0.00  0.00    +0.000 NA
ATOM     15  C   UNL     1       4.118   3.840  17.324  0.00  0.00    +0.000 A 
ENDROOT
BRANCH  12  16
ATOM     16  S   UNL     1       1.708   2.720  20.153  0.00  0.00    +0.000 S 
ATOM     17  C   UNL     1       2.748   2.622  21.619  0.00  0.00    +0.000 C 
ENDBRANCH  12  16
BRANCH   1  18
ATOM     18  C   UNL     1       5.715   4.177  15.441  0.00  0.00    +0.000 C 
BRANCH  18  20
ATOM     19  C   UNL     1       7.523   4.491  17.217  0.00  0.00    +0.000 C 
ATOM     20  C   UNL     1       7.194   4.455  15.732  0.00  0.00    +0.000 C 
ENDBRANCH  18  20
ENDBRANCH   1  18
TORSDOF 3
ENDMDL
MODEL 6
REMARK VINA RESULT:      -6.0      2.208      4.105
REMARK  Name = 
REMARK  5 active torsions:
REMARK  status: ('A' for Active; 'I' for Inactive)
REMARK    1  A    between atoms: C_1  and  C_2
REMARK    2  A    between atoms: C_2  and  C_3
REMARK    3  A    between atoms: C_3  and  N_4
REMARK    4  A    between atoms: C_15  and  S_16
REMARK    5  A    between atoms: S_16  and  C_17
REMARK                            x       y       z     vdW  Elec       q    Type
REMARK                         _______ _______ _______ _____ _____    ______ ____
ROOT
ATOM      1  N   UNL     1       4.530   4.276  17.006  0.00  0.00    +0.000 N 
ATOM      2  C   UNL     1       4.032   3.209  17.717  0.00  0.00    +0.000 A 
ATOM      3  O   UNL     1       4.365   2.046  17.492  0.00  0.00    +0.000 OA
ATOM      4  C   UNL     1       3.061   3.489  18.811  0.00  0.00    +0.000 A 
ATOM      5  C   UNL     1       2.637   2.347  19.524  0.00  0.00    +0.000 A 
ATOM      6  C   UNL     1       1.739   2.456  20.563  0.00  0.00    +0.000 A 
ATOM      7  C   UNL     1       1.259   3.711  20.882  0.00  0.00    +0.000 A 
ATOM      8  C   UNL     1       1.666   4.875  20.185  0.00  0.00    +0.000 A 
ATOM      9 CL   UNL     1       0.864   6.243  20.837  0.00  0.00    +0.000 Cl
ATOM     10  C   UNL     1       2.593   4.796  19.125  0.00  0.00    +0.000 A 
ATOM     11  N   UNL     1       3.147   5.849  18.309  0.00  0.00    +0.000 N 
ATOM     12  C   UNL     1       3.044   7.241  18.191  0.00  0.00    +0.000 A 
ATOM     13  N   UNL     1       3.825   7.682  17.229  0.00  0.00    +0.000 NA
ATOM     14  N   UNL     1       4.473   6.631  16.685  0.00  0.00    +0.000 NA
ATOM     15  C   UNL     1       4.080   5.547  17.305  0.00  0.00    +0.000 A 
ENDROOT
BRANCH  12  16
ATOM     16  S   UNL     1       2.098   8.364  19.095  0.00  0.00    +0.000 S 
ATOM     17  C   UNL     1       1.665   9.629  17.891  0.00  0.00    +0.000 C 
ENDBRANCH  12  16
BRANCH   1  18
ATOM     18  C   UNL     1       5.528   4.030  15.959  0.00  0.00    +0.000 C 
BRANCH  18  20
ATOM     19  C   UNL     1       7.504   4.488  17.511  0.00  0.00    +0.000 C 
ATOM     20  C   UNL     1       6.852   4.774  16.168  0.00  0.00    +0.000 C 
ENDBRANCH  18  20
ENDBRANCH   1  18
TORSDOF 3
ENDMDL
MODEL 7
REMARK VINA RESULT:      -6.0      2.734      4.633
REMARK  Name = 
REMARK  5 active torsions:
REMARK  status: ('A' for Active; 'I' for Inactive)
REMARK    1  A    between atoms: C_1  and  C_2
REMARK    2  A    between atoms: C_2  and  C_3
REMARK    3  A    between atoms: C_3  and  N_4
REMARK    4  A    between atoms: C_15  and  S_16
REMARK    5  A    between atoms: S_16  and  C_17
REMARK                            x       y       z     vdW  Elec       q    Type
REMARK                         _______ _______ _______ _____ _____    ______ ____
ROOT
ATOM      1  N   UNL     1       2.666   4.574  20.594  0.00  0.00    +0.000 N 
ATOM      2  C   UNL     1       2.072   5.800  20.399  0.00  0.00    +0.000 A 
ATOM      3  O   UNL     1       1.180   6.231  21.130  0.00  0.00    +0.000 OA
ATOM      4  C   UNL     1       2.549   6.635  19.262  0.00  0.00    +0.000 A 
ATOM      5  C   UNL     1       1.926   7.897  19.162  0.00  0.00    +0.000 A 
ATOM      6  C   UNL     1       2.268   8.776  18.157  0.00  0.00    +0.000 A 
ATOM      7  C   UNL     1       3.230   8.384  17.248  0.00  0.00    +0.000 A 
ATOM      8  C   UNL     1       3.873   7.125  17.323  0.00  0.00    +0.000 A 
ATOM      9 CL   UNL     1       4.993   6.975  16.032  0.00  0.00    +0.000 Cl
ATOM     10  C   UNL     1       3.553   6.209  18.347  0.00  0.00    +0.000 A 
ATOM     11  N   UNL     1       4.096   4.900  18.611  0.00  0.00    +0.000 N 
ATOM     12  C   UNL     1       5.054   4.037  18.062  0.00  0.00    +0.000 A 
ATOM     13  N   UNL     1       5.131   2.927  18.763  0.00  0.00    +0.000 NA
ATOM     14  N   UNL     1       4.259   3.003  19.789  0.00  0.00    +0.000 NA
ATOM     15  C   UNL     1       3.639   4.154  19.709  0.00  0.00    +0.000 A 
ENDROOT
BRANCH  12  16
ATOM     16  S   UNL     1       6.076   4.245  16.689  0.00  0.00    +0.000 S 
ATOM     17  C   UNL     1       7.684   4.624  17.403  0.00  0.00    +0.000 C 
ENDBRANCH  12  16
BRANCH   1  18
ATOM     18  C   UNL     1       2.250   3.756  21.739  0.00  0.00    +0.000 C 
BRANCH  18  20
ATOM     19  C   UNL     1       0.638   2.794  20.006  0.00  0.00    +0.000 C 
ATOM     20  C   UNL     1       1.262   2.638  21.384  0.00  0.00    +0.000 C 
ENDBRANCH  18  20
ENDBRANCH   1  18
TORSDOF 3
ENDMDL
MODEL 8
REMARK VINA RESULT:      -5.9      2.170      4.014
REMARK  Name = 
REMARK  5 active torsions:
REMARK  status: ('A' for Active; 'I' for Inactive)
REMARK    1  A    between atoms: C_1  and  C_2
REMARK    2  A    between atoms: C_2  and  C_3
REMARK    3  A    between atoms: C_3  and  N_4
REMARK    4  A    between atoms: C_15  and  S_16
REMARK    5  A    between atoms: S_16  and  C_17
REMARK                            x       y       z     vdW  Elec       q    Type
REMARK                         _______ _______ _______ _____ _____    ______ ____
ROOT
ATOM      1  N   UNL     1       4.606   4.202  17.019  0.00  0.00    +0.000 N 
ATOM      2  C   UNL     1       4.054   3.128  17.678  0.00  0.00    +0.000 A 
ATOM      3  O   UNL     1       4.380   1.965  17.445  0.00  0.00    +0.000 OA
ATOM      4  C   UNL     1       3.030   3.402  18.725  0.00  0.00    +0.000 A 
ATOM      5  C   UNL     1       2.551   2.253  19.389  0.00  0.00    +0.000 A 
ATOM      6  C   UNL     1       1.600   2.354  20.381  0.00  0.00    +0.000 A 
ATOM      7  C   UNL     1       1.124   3.610  20.702  0.00  0.00    +0.000 A 
ATOM      8  C   UNL     1       1.586   4.782  20.053  0.00  0.00    +0.000 A 
ATOM      9 CL   UNL     1       0.772   6.150  20.693  0.00  0.00    +0.000 Cl
ATOM     10  C   UNL     1       2.568   4.710  19.043  0.00  0.00    +0.000 A 
ATOM     11  N   UNL     1       3.180   5.770  18.281  0.00  0.00    +0.000 N 
ATOM     12  C   UNL     1       3.107   7.166  18.189  0.00  0.00    +0.000 A 
ATOM     13  N   UNL     1       3.945   7.614  17.279  0.00  0.00    +0.000 NA
ATOM     14  N   UNL     1       4.604   6.564  16.747  0.00  0.00    +0.000 NA
ATOM     15  C   UNL     1       4.161   5.474  17.321  0.00  0.00    +0.000 A 
ENDROOT
BRANCH  12  16
ATOM     16  S   UNL     1       2.132   8.285  19.066  0.00  0.00    +0.000 S 
ATOM     17  C   UNL     1       1.857   9.625  17.897  0.00  0.00    +0.000 C 
ENDBRANCH  12  16
BRANCH   1  18
ATOM     18  C   UNL     1       5.654   3.961  16.021  0.00  0.00    +0.000 C 
BRANCH  18  20
ATOM     19  C   UNL     1       6.289   3.891  13.548  0.00  0.00    +0.000 C 
ATOM     20  C   UNL     1       5.183   4.106  14.569  0.00  0.00    +0.000 C 
ENDBRANCH  18  20
ENDBRANCH   1  18
TORSDOF 3
ENDMDL
MODEL 9
REMARK VINA RESULT:      -5.9      2.203      4.069
REMARK  Name = 
REMARK  5 active torsions:
REMARK  status: ('A' for Active; 'I' for Inactive)
REMARK    1  A    between atoms: C_1  and  C_2
REMARK    2  A    between atoms: C_2  and  C_3
REMARK    3  A    between atoms: C_3  and  N_4
REMARK    4  A    between atoms: C_15  and  S_16
REMARK    5  A    between atoms: S_16  and  C_17
REMARK                            x       y       z     vdW  Elec       q    Type
REMARK                         _______ _______ _______ _____ _____    ______ ____
ROOT
ATOM      1  N   UNL     1       4.678   5.578  16.858  0.00  0.00    +0.000 N 
ATOM      2  C   UNL     1       4.618   4.204  16.863  0.00  0.00    +0.000 A 
ATOM      3  O   UNL     1       5.288   3.506  16.103  0.00  0.00    +0.000 OA
ATOM      4  C   UNL     1       3.710   3.547  17.844  0.00  0.00    +0.000 A 
ATOM      5  C   UNL     1       3.744   2.136  17.820  0.00  0.00    +0.000 A 
ATOM      6  C   UNL     1       2.956   1.395  18.673  0.00  0.00    +0.000 A 
ATOM      7  C   UNL     1       2.126   2.071  19.546  0.00  0.00    +0.000 A 
ATOM      8  C   UNL     1       2.070   3.485  19.593  0.00  0.00    +0.000 A 
ATOM      9 CL   UNL     1       0.929   3.974  20.777  0.00  0.00    +0.000 Cl
ATOM     10  C   UNL     1       2.874   4.270  18.741  0.00  0.00    +0.000 A 
ATOM     11  N   UNL     1       2.981   5.705  18.644  0.00  0.00    +0.000 N 
ATOM     12  C   UNL     1       2.424   6.837  19.253  0.00  0.00    +0.000 A 
ATOM     13  N   UNL     1       2.930   7.936  18.738  0.00  0.00    +0.000 NA
ATOM     14  N   UNL     1       3.832   7.593  17.795  0.00  0.00    +0.000 NA
ATOM     15  C   UNL     1       3.869   6.286  17.725  0.00  0.00    +0.000 A 
ENDROOT
BRANCH  12  16
ATOM     16  S   UNL     1       1.250   6.954  20.510  0.00  0.00    +0.000 S 
ATOM     17  C   UNL     1       1.064   8.726  20.762  0.00  0.00    +0.000 C 
ENDBRANCH  12  16
BRANCH   1  18
ATOM     18  C   UNL     1       5.603   6.246  15.937  0.00  0.00    +0.000 C 
BRANCH  18  20
ATOM     19  C   UNL     1       7.420   7.215  17.448  0.00  0.00    +0.000 C 
ATOM     20  C   UNL     1       7.071   6.195  16.376  0.00  0.00    +0.000 C 
ENDBRANCH  18  20
ENDBRANCH   1  18
TORSDOF 3
ENDMDL
