MODEL 1
REMARK VINA RESULT:      -7.5      0.000      0.000
REMARK  Name = 
REMARK  6 active torsions:
REMARK  status: ('A' for Active; 'I' for Inactive)
REMARK    1  A    between atoms: C_1  and  C_2
REMARK    2  A    between atoms: C_4  and  C_5
REMARK    3  A    between atoms: C_5  and  O_6
REMARK    4  A    between atoms: O_6  and  C_7
REMARK    5  A    between atoms: C_14  and  C_15
REMARK    6  A    between atoms: C_19  and  N_20
REMARK                            x       y       z     vdW  Elec       q    Type
REMARK                         _______ _______ _______ _____ _____    ______ ____
ROOT
ATOM      1  C   UNL     1      -0.349   9.162  22.316  0.00  0.00    +0.000 C 
ATOM      2  C   UNL     1       0.548   8.902  21.162  0.00  0.00    +0.000 A 
ATOM      3  C   UNL     1       1.348   7.743  20.966  0.00  0.00    +0.000 A 
ATOM      4  C   UNL     1       1.966   7.885  19.743  0.00  0.00    +0.000 A 
ATOM      5  O   UNL     1       1.632   9.088  19.193  0.00  0.00    +0.000 OA
ATOM      6  C   UNL     1       0.774   9.723  20.061  0.00  0.00    +0.000 A 
ENDROOT
BRANCH   6   7
ATOM      7  C   UNL     1       0.275  11.061  19.761  0.00  0.00    +0.000 C 
ATOM      8  O   UNL     1       0.602  12.053  20.415  0.00  0.00    +0.000 OA
ATOM      9  N   UNL     1      -0.575  11.190  18.674  0.00  0.00    +0.000 N 
ATOM     10  C   UNL     1      -1.183  12.429  18.205  0.00  0.00    +0.000 C 
ATOM     11  C   UNL     1      -2.493  11.667  17.988  0.00  0.00    +0.000 C 
ATOM     12  C   UNL     1      -1.756  10.379  18.398  0.00  0.00    +0.000 C 
BRANCH  11  13
ATOM     13  N   UNL     1      -3.555  11.992  18.911  0.00  0.00    +0.000 N 
ATOM     14  C   UNL     1      -3.432  12.581  20.143  0.00  0.00    +0.000 A 
ATOM     15  C   UNL     1      -4.705  12.672  20.653  0.00  0.00    +0.000 A 
ATOM     16  C   UNL     1      -5.527  12.108  19.667  0.00  0.00    +0.000 A 
ATOM     17  N   UNL     1      -4.835  11.700  18.601  0.00  0.00    +0.000 NA
ENDBRANCH  11  13
ENDBRANCH   6   7
BRANCH   4  18
ATOM     18  C   UNL     1       2.773   6.943  18.923  0.00  0.00    +0.000 C 
BRANCH  18  19
ATOM     19  O   UNL     1       3.241   5.878  19.756  0.00  0.00    +0.000 OA
BRANCH  19  20
ATOM     20  C   UNL     1       2.436   4.763  19.745  0.00  0.00    +0.000 A 
ATOM     21  C   UNL     1       2.053   4.288  18.490  0.00  0.00    +0.000 A 
ATOM     22  C   UNL     1       1.229   3.162  18.378  0.00  0.00    +0.000 A 
ATOM     23  C   UNL     1       0.798   2.493  19.522  0.00  0.00    +0.000 A 
ATOM     24  C   UNL     1       1.205   2.940  20.776  0.00  0.00    +0.000 A 
ATOM     25  C   UNL     1       2.025   4.065  20.888  0.00  0.00    +0.000 A 
ENDBRANCH  19  20
ENDBRANCH  18  19
ENDBRANCH   4  18
TORSDOF 5
ENDMDL
MODEL 2
REMARK VINA RESULT:      -7.5      0.636      1.292
REMARK  Name = 
REMARK  6 active torsions:
REMARK  status: ('A' for Active; 'I' for Inactive)
REMARK    1  A    between atoms: C_1  and  C_2
REMARK    2  A    between atoms: C_4  and  C_5
REMARK    3  A    between atoms: C_5  and  O_6
REMARK    4  A    between atoms: O_6  and  C_7
REMARK    5  A    between atoms: C_14  and  C_15
REMARK    6  A    between atoms: C_19  and  N_20
REMARK                            x       y       z     vdW  Elec       q    Type
REMARK                         _______ _______ _______ _____ _____    ______ ____
ROOT
ATOM      1  C   UNL     1      -0.255   9.344  22.634  0.00  0.00    +0.000 C 
ATOM      2  C   UNL     1       0.536   9.052  21.412  0.00  0.00    +0.000 A 
ATOM      3  C   UNL     1       1.360   7.913  21.199  0.00  0.00    +0.000 A 
ATOM      4  C   UNL     1       1.850   8.009  19.915  0.00  0.00    +0.000 A 
ATOM      5  O   UNL     1       1.416   9.167  19.339  0.00  0.00    +0.000 OA
ATOM      6  C   UNL     1       0.621   9.818  20.253  0.00  0.00    +0.000 A 
ENDROOT
BRANCH   6   7
ATOM      7  C   UNL     1       0.042  11.119  19.935  0.00  0.00    +0.000 C 
ATOM      8  O   UNL     1       0.118  12.084  20.698  0.00  0.00    +0.000 OA
ATOM      9  N   UNL     1      -0.587  11.248  18.707  0.00  0.00    +0.000 N 
ATOM     10  C   UNL     1      -1.229  12.453  18.196  0.00  0.00    +0.000 C 
ATOM     11  C   UNL     1      -2.376  11.583  17.673  0.00  0.00    +0.000 C 
ATOM     12  C   UNL     1      -1.591  10.347  18.150  0.00  0.00    +0.000 C 
BRANCH  11  13
ATOM     13  N   UNL     1      -3.627  11.726  18.377  0.00  0.00    +0.000 N 
ATOM     14  C   UNL     1      -4.863  11.293  17.969  0.00  0.00    +0.000 A 
ATOM     15  C   UNL     1      -5.745  11.670  18.955  0.00  0.00    +0.000 A 
ATOM     16  C   UNL     1      -4.956  12.328  19.909  0.00  0.00    +0.000 A 
ATOM     17  N   UNL     1      -3.666  12.359  19.568  0.00  0.00    +0.000 NA
ENDBRANCH  11  13
ENDBRANCH   6   7
BRANCH   4  18
ATOM     18  C   UNL     1       2.612   7.052  19.069  0.00  0.00    +0.000 C 
BRANCH  18  19
ATOM     19  O   UNL     1       2.964   5.909  19.855  0.00  0.00    +0.000 OA
BRANCH  19  20
ATOM     20  C   UNL     1       2.338   4.748  19.467  0.00  0.00    +0.000 A 
ATOM     21  C   UNL     1       1.428   4.202  20.373  0.00  0.00    +0.000 A 
ATOM     22  C   UNL     1       0.745   3.019  20.069  0.00  0.00    +0.000 A 
ATOM     23  C   UNL     1       0.956   2.384  18.846  0.00  0.00    +0.000 A 
ATOM     24  C   UNL     1       1.834   2.941  17.922  0.00  0.00    +0.000 A 
ATOM     25  C   UNL     1       2.517   4.122  18.227  0.00  0.00    +0.000 A 
ENDBRANCH  19  20
ENDBRANCH  18  19
ENDBRANCH   4  18
TORSDOF 5
ENDMDL
MODEL 3
REMARK VINA RESULT:      -7.4      4.327      8.737
REMARK  Name = 
REMARK  6 active torsions:
REMARK  status: ('A' for Active; 'I' for Inactive)
REMARK    1  A    between atoms: C_1  and  C_2
REMARK    2  A    between atoms: C_4  and  C_5
REMARK    3  A    between atoms: C_5  and  O_6
REMARK    4  A    between atoms: O_6  and  C_7
REMARK    5  A    between atoms: C_14  and  C_15
REMARK    6  A    between atoms: C_19  and  N_20
REMARK                            x       y       z     vdW  Elec       q    Type
REMARK                         _______ _______ _______ _____ _____    ______ ____
ROOT
ATOM      1  C   UNL     1       1.785   2.066  19.090  0.00  0.00    +0.000 C 
ATOM      2  C   UNL     1       1.943   3.467  19.556  0.00  0.00    +0.000 A 
ATOM      3  C   UNL     1       0.928   4.277  20.134  0.00  0.00    +0.000 A 
ATOM      4  C   UNL     1       1.519   5.473  20.479  0.00  0.00    +0.000 A 
ATOM      5  O   UNL     1       2.831   5.466  20.103  0.00  0.00    +0.000 OA
ATOM      6  C   UNL     1       3.096   4.247  19.526  0.00  0.00    +0.000 A 
ENDROOT
BRANCH   6   7
ATOM      7  C   UNL     1       4.419   3.958  18.982  0.00  0.00    +0.000 C 
ATOM      8  O   UNL     1       5.225   3.221  19.553  0.00  0.00    +0.000 OA
ATOM      9  N   UNL     1       4.737   4.526  17.759  0.00  0.00    +0.000 N 
ATOM     10  C   UNL     1       5.998   4.367  17.043  0.00  0.00    +0.000 C 
ATOM     11  C   UNL     1       5.956   5.860  16.703  0.00  0.00    +0.000 C 
ATOM     12  C   UNL     1       4.579   5.928  17.389  0.00  0.00    +0.000 C 
BRANCH  11  13
ATOM     13  N   UNL     1       6.934   6.674  17.384  0.00  0.00    +0.000 N 
ATOM     14  C   UNL     1       7.680   6.330  18.482  0.00  0.00    +0.000 A 
ATOM     15  C   UNL     1       8.453   7.428  18.778  0.00  0.00    +0.000 A 
ATOM     16  C   UNL     1       8.102   8.384  17.814  0.00  0.00    +0.000 A 
ATOM     17  N   UNL     1       7.184   7.930  16.959  0.00  0.00    +0.000 NA
ENDBRANCH  11  13
ENDBRANCH   6   7
BRANCH   4  18
ATOM     18  C   UNL     1       1.024   6.635  21.265  0.00  0.00    +0.000 C 
BRANCH  18  19
ATOM     19  O   UNL     1       1.587   7.836  20.730  0.00  0.00    +0.000 OA
BRANCH  19  20
ATOM     20  C   UNL     1       0.811   8.954  20.930  0.00  0.00    +0.000 A 
ATOM     21  C   UNL     1       0.471   9.245  22.252  0.00  0.00    +0.000 A 
ATOM     22  C   UNL     1      -0.321  10.360  22.553  0.00  0.00    +0.000 A 
ATOM     23  C   UNL     1      -0.762  11.201  21.533  0.00  0.00    +0.000 A 
ATOM     24  C   UNL     1      -0.398  10.938  20.216  0.00  0.00    +0.000 A 
ATOM     25  C   UNL     1       0.391   9.824  19.915  0.00  0.00    +0.000 A 
ENDBRANCH  19  20
ENDBRANCH  18  19
ENDBRANCH   4  18
TORSDOF 5
ENDMDL
MODEL 4
REMARK VINA RESULT:      -7.4      1.378      2.027
REMARK  Name = 
REMARK  6 active torsions:
REMARK  status: ('A' for Active; 'I' for Inactive)
REMARK    1  A    between atoms: C_1  and  C_2
REMARK    2  A    between atoms: C_4  and  C_5
REMARK    3  A    between atoms: C_5  and  O_6
REMARK    4  A    between atoms: O_6  and  C_7
REMARK    5  A    between atoms: C_14  and  C_15
REMARK    6  A    between atoms: C_19  and  N_20
REMARK                            x       y       z     vdW  Elec       q    Type
REMARK                         _______ _______ _______ _____ _____    ______ ____
ROOT
ATOM      1  C   UNL     1      -0.590  10.662  21.286  0.00  0.00    +0.000 C 
ATOM      2  C   UNL     1       0.123  10.087  20.117  0.00  0.00    +0.000 A 
ATOM      3  C   UNL     1       1.195   9.156  20.165  0.00  0.00    +0.000 A 
ATOM      4  C   UNL     1       1.510   8.842  18.861  0.00  0.00    +0.000 A 
ATOM      5  O   UNL     1       0.726   9.563  18.008  0.00  0.00    +0.000 OA
ATOM      6  C   UNL     1      -0.118  10.338  18.769  0.00  0.00    +0.000 A 
ENDROOT
BRANCH   6   7
ATOM      7  C   UNL     1      -1.053  11.258  18.131  0.00  0.00    +0.000 C 
ATOM      8  O   UNL     1      -0.912  12.482  18.170  0.00  0.00    +0.000 OA
ATOM      9  N   UNL     1      -2.115  10.699  17.437  0.00  0.00    +0.000 N 
ATOM     10  C   UNL     1      -3.158  11.435  16.731  0.00  0.00    +0.000 C 
ATOM     11  C   UNL     1      -4.188  10.451  17.294  0.00  0.00    +0.000 C 
ATOM     12  C   UNL     1      -3.022   9.668  17.927  0.00  0.00    +0.000 C 
BRANCH  11  13
ATOM     13  N   UNL     1      -5.073  10.994  18.297  0.00  0.00    +0.000 N 
ATOM     14  C   UNL     1      -6.324  10.542  18.632  0.00  0.00    +0.000 A 
ATOM     15  C   UNL     1      -6.782  11.381  19.620  0.00  0.00    +0.000 A 
ATOM     16  C   UNL     1      -5.749  12.310  19.809  0.00  0.00    +0.000 A 
ATOM     17  N   UNL     1      -4.703  12.076  19.013  0.00  0.00    +0.000 NA
ENDBRANCH  11  13
ENDBRANCH   6   7
BRANCH   4  18
ATOM     18  C   UNL     1       2.411   7.811  18.277  0.00  0.00    +0.000 C 
BRANCH  18  19
ATOM     19  O   UNL     1       2.824   6.911  19.310  0.00  0.00    +0.000 OA
BRANCH  19  20
ATOM     20  C   UNL     1       2.232   5.671  19.241  0.00  0.00    +0.000 A 
ATOM     21  C   UNL     1       1.705   5.170  20.431  0.00  0.00    +0.000 A 
ATOM     22  C   UNL     1       1.088   3.913  20.461  0.00  0.00    +0.000 A 
ATOM     23  C   UNL     1       0.979   3.159  19.295  0.00  0.00    +0.000 A 
ATOM     24  C   UNL     1       1.471   3.668  18.096  0.00  0.00    +0.000 A 
ATOM     25  C   UNL     1       2.089   4.921  18.067  0.00  0.00    +0.000 A 
ENDBRANCH  19  20
ENDBRANCH  18  19
ENDBRANCH   4  18
TORSDOF 5
ENDMDL
MODEL 5
REMARK VINA RESULT:      -7.2      6.623      9.457
REMARK  Name = 
REMARK  6 active torsions:
REMARK  status: ('A' for Active; 'I' for Inactive)
REMARK    1  A    between atoms: C_1  and  C_2
REMARK    2  A    between atoms: C_4  and  C_5
REMARK    3  A    between atoms: C_5  and  O_6
REMARK    4  A    between atoms: O_6  and  C_7
REMARK    5  A    between atoms: C_14  and  C_15
REMARK    6  A    between atoms: C_19  and  N_20
REMARK                            x       y       z     vdW  Elec       q    Type
REMARK                         _______ _______ _______ _____ _____    ______ ____
ROOT
ATOM      1  C   UNL     1       5.597   4.499  15.086  0.00  0.00    +0.000 C 
ATOM      2  C   UNL     1       5.985   5.436  16.170  0.00  0.00    +0.000 A 
ATOM      3  C   UNL     1       7.292   5.939  16.415  0.00  0.00    +0.000 A 
ATOM      4  C   UNL     1       7.189   6.821  17.468  0.00  0.00    +0.000 A 
ATOM      5  O   UNL     1       5.903   6.855  17.921  0.00  0.00    +0.000 OA
ATOM      6  C   UNL     1       5.161   6.000  17.140  0.00  0.00    +0.000 A 
ENDROOT
BRANCH   6   7
ATOM      7  C   UNL     1       3.743   5.791  17.414  0.00  0.00    +0.000 C 
ATOM      8  O   UNL     1       2.985   6.710  17.729  0.00  0.00    +0.000 OA
ATOM      9  N   UNL     1       3.257   4.500  17.278  0.00  0.00    +0.000 N 
ATOM     10  C   UNL     1       1.880   4.076  17.504  0.00  0.00    +0.000 C 
ATOM     11  C   UNL     1       2.415   2.829  18.215  0.00  0.00    +0.000 C 
ATOM     12  C   UNL     1       3.838   3.292  17.852  0.00  0.00    +0.000 C 
BRANCH  11  13
ATOM     13  N   UNL     1       2.210   2.801  19.644  0.00  0.00    +0.000 N 
ATOM     14  C   UNL     1       1.033   3.004  20.318  0.00  0.00    +0.000 A 
ATOM     15  C   UNL     1       1.334   2.898  21.655  0.00  0.00    +0.000 A 
ATOM     16  C   UNL     1       2.711   2.638  21.693  0.00  0.00    +0.000 A 
ATOM     17  N   UNL     1       3.249   2.571  20.473  0.00  0.00    +0.000 NA
ENDBRANCH  11  13
ENDBRANCH   6   7
BRANCH   4  18
ATOM     18  C   UNL     1       8.163   7.779  18.060  0.00  0.00    +0.000 C 
BRANCH  18  19
ATOM     19  O   UNL     1       7.685   9.113  17.865  0.00  0.00    +0.000 OA
BRANCH  19  20
ATOM     20  C   UNL     1       8.559  10.087  18.290  0.00  0.00    +0.000 A 
ATOM     21  C   UNL     1       9.137   9.896  19.545  0.00  0.00    +0.000 A 
ATOM     22  C   UNL     1      10.035  10.836  20.064  0.00  0.00    +0.000 A 
ATOM     23  C   UNL     1      10.372  11.966  19.321  0.00  0.00    +0.000 A 
ATOM     24  C   UNL     1       9.827  12.146  18.054  0.00  0.00    +0.000 A 
ATOM     25  C   UNL     1       8.930  11.208  17.536  0.00  0.00    +0.000 A 
ENDBRANCH  19  20
ENDBRANCH  18  19
ENDBRANCH   4  18
TORSDOF 5
ENDMDL
MODEL 6
REMARK VINA RESULT:      -7.2      6.856      9.492
REMARK  Name = 
REMARK  6 active torsions:
REMARK  status: ('A' for Active; 'I' for Inactive)
REMARK    1  A    between atoms: C_1  and  C_2
REMARK    2  A    between atoms: C_4  and  C_5
REMARK    3  A    between atoms: C_5  and  O_6
REMARK    4  A    between atoms: O_6  and  C_7
REMARK    5  A    between atoms: C_14  and  C_15
REMARK    6  A    between atoms: C_19  and  N_20
REMARK                            x       y       z     vdW  Elec       q    Type
REMARK                         _______ _______ _______ _____ _____    ______ ____
ROOT
ATOM      1  C   UNL     1       6.027   4.083  15.277  0.00  0.00    +0.000 C 
ATOM      2  C   UNL     1       6.281   5.139  16.290  0.00  0.00    +0.000 A 
ATOM      3  C   UNL     1       7.539   5.726  16.592  0.00  0.00    +0.000 A 
ATOM      4  C   UNL     1       7.309   6.700  17.538  0.00  0.00    +0.000 A 
ATOM      5  O   UNL     1       5.987   6.717  17.874  0.00  0.00    +0.000 OA
ATOM      6  C   UNL     1       5.352   5.756  17.124  0.00  0.00    +0.000 A 
ENDROOT
BRANCH   6   7
ATOM      7  C   UNL     1       3.925   5.506  17.297  0.00  0.00    +0.000 C 
ATOM      8  O   UNL     1       3.107   6.414  17.463  0.00  0.00    +0.000 OA
ATOM      9  N   UNL     1       3.501   4.188  17.236  0.00  0.00    +0.000 N 
ATOM     10  C   UNL     1       2.127   3.722  17.383  0.00  0.00    +0.000 C 
ATOM     11  C   UNL     1       2.644   2.567  18.245  0.00  0.00    +0.000 C 
ATOM     12  C   UNL     1       4.075   3.061  17.963  0.00  0.00    +0.000 C 
BRANCH  11  13
ATOM     13  N   UNL     1       2.317   2.653  19.649  0.00  0.00    +0.000 N 
ATOM     14  C   UNL     1       3.188   2.620  20.708  0.00  0.00    +0.000 A 
ATOM     15  C   UNL     1       2.416   2.715  21.842  0.00  0.00    +0.000 A 
ATOM     16  C   UNL     1       1.097   2.793  21.372  0.00  0.00    +0.000 A 
ATOM     17  N   UNL     1       1.030   2.763  20.039  0.00  0.00    +0.000 NA
ENDBRANCH  11  13
ENDBRANCH   6   7
BRANCH   4  18
ATOM     18  C   UNL     1       8.188   7.756  18.110  0.00  0.00    +0.000 C 
BRANCH  18  19
ATOM     19  O   UNL     1       7.727   9.038  17.673  0.00  0.00    +0.000 OA
BRANCH  19  20
ATOM     20  C   UNL     1       8.440  10.095  18.187  0.00  0.00    +0.000 A 
ATOM     21  C   UNL     1       8.235  11.335  17.580  0.00  0.00    +0.000 A 
ATOM     22  C   UNL     1       8.922  12.468  18.032  0.00  0.00    +0.000 A 
ATOM     23  C   UNL     1       9.805  12.371  19.105  0.00  0.00    +0.000 A 
ATOM     24  C   UNL     1       9.987  11.145  19.738  0.00  0.00    +0.000 A 
ATOM     25  C   UNL     1       9.304  10.013  19.287  0.00  0.00    +0.000 A 
ENDBRANCH  19  20
ENDBRANCH  18  19
ENDBRANCH   4  18
TORSDOF 5
ENDMDL
MODEL 7
REMARK VINA RESULT:      -7.1      1.015      1.060
REMARK  Name = 
REMARK  6 active torsions:
REMARK  status: ('A' for Active; 'I' for Inactive)
REMARK    1  A    between atoms: C_1  and  C_2
REMARK    2  A    between atoms: C_4  and  C_5
REMARK    3  A    between atoms: C_5  and  O_6
REMARK    4  A    between atoms: O_6  and  C_7
REMARK    5  A    between atoms: C_14  and  C_15
REMARK    6  A    between atoms: C_19  and  N_20
REMARK                            x       y       z     vdW  Elec       q    Type
REMARK                         _______ _______ _______ _____ _____    ______ ____
ROOT
ATOM      1  C   UNL     1      -0.285   9.050  22.435  0.00  0.00    +0.000 C 
ATOM      2  C   UNL     1       0.570   8.810  21.245  0.00  0.00    +0.000 A 
ATOM      3  C   UNL     1       1.375   7.663  21.009  0.00  0.00    +0.000 A 
ATOM      4  C   UNL     1       1.943   7.822  19.765  0.00  0.00    +0.000 A 
ATOM      5  O   UNL     1       1.574   9.026  19.238  0.00  0.00    +0.000 OA
ATOM      6  C   UNL     1       0.744   9.643  20.143  0.00  0.00    +0.000 A 
ENDROOT
BRANCH   6   7
ATOM      7  C   UNL     1       0.218  10.977  19.874  0.00  0.00    +0.000 C 
ATOM      8  O   UNL     1       0.401  11.929  20.636  0.00  0.00    +0.000 OA
ATOM      9  N   UNL     1      -0.485  11.154  18.693  0.00  0.00    +0.000 N 
ATOM     10  C   UNL     1      -1.091  12.399  18.235  0.00  0.00    +0.000 C 
ATOM     11  C   UNL     1      -2.317  11.599  17.785  0.00  0.00    +0.000 C 
ATOM     12  C   UNL     1      -1.573  10.317  18.200  0.00  0.00    +0.000 C 
BRANCH  11  13
ATOM     13  N   UNL     1      -3.508  11.805  18.574  0.00  0.00    +0.000 N 
ATOM     14  C   UNL     1      -3.620  12.523  19.737  0.00  0.00    +0.000 A 
ATOM     15  C   UNL     1      -4.935  12.419  20.126  0.00  0.00    +0.000 A 
ATOM     16  C   UNL     1      -5.536  11.616  19.147  0.00  0.00    +0.000 A 
ATOM     17  N   UNL     1      -4.676  11.245  18.196  0.00  0.00    +0.000 NA
ENDBRANCH  11  13
ENDBRANCH   6   7
BRANCH   4  18
ATOM     18  C   UNL     1       2.729   6.896  18.906  0.00  0.00    +0.000 C 
BRANCH  18  19
ATOM     19  O   UNL     1       3.267   5.847  19.716  0.00  0.00    +0.000 OA
BRANCH  19  20
ATOM     20  C   UNL     1       3.174   4.598  19.149  0.00  0.00    +0.000 A 
ATOM     21  C   UNL     1       2.350   4.486  18.029  0.00  0.00    +0.000 A 
ATOM     22  C   UNL     1       2.189   3.253  17.386  0.00  0.00    +0.000 A 
ATOM     23  C   UNL     1       2.867   2.127  17.850  0.00  0.00    +0.000 A 
ATOM     24  C   UNL     1       3.719   2.239  18.945  0.00  0.00    +0.000 A 
ATOM     25  C   UNL     1       3.879   3.469  19.588  0.00  0.00    +0.000 A 
ENDBRANCH  19  20
ENDBRANCH  18  19
ENDBRANCH   4  18
TORSDOF 5
ENDMDL
MODEL 8
REMARK VINA RESULT:      -7.1      1.113      1.626
REMARK  Name = 
REMARK  6 active torsions:
REMARK  status: ('A' for Active; 'I' for Inactive)
REMARK    1  A    between atoms: C_1  and  C_2
REMARK    2  A    between atoms: C_4  and  C_5
REMARK    3  A    between atoms: C_5  and  O_6
REMARK    4  A    between atoms: O_6  and  C_7
REMARK    5  A    between atoms: C_14  and  C_15
REMARK    6  A    between atoms: C_19  and  N_20
REMARK                            x       y       z     vdW  Elec       q    Type
REMARK                         _______ _______ _______ _____ _____    ______ ____
ROOT
ATOM      1  C   UNL     1      -0.372   9.162  22.430  0.00  0.00    +0.000 C 
ATOM      2  C   UNL     1       0.493   8.938  21.243  0.00  0.00    +0.000 A 
ATOM      3  C   UNL     1       1.347   7.822  21.028  0.00  0.00    +0.000 A 
ATOM      4  C   UNL     1       1.908   7.983  19.781  0.00  0.00    +0.000 A 
ATOM      5  O   UNL     1       1.488   9.160  19.232  0.00  0.00    +0.000 OA
ATOM      6  C   UNL     1       0.631   9.757  20.126  0.00  0.00    +0.000 A 
ENDROOT
BRANCH   6   7
ATOM      7  C   UNL     1       0.049  11.063  19.834  0.00  0.00    +0.000 C 
ATOM      8  O   UNL     1       0.156  12.024  20.598  0.00  0.00    +0.000 OA
ATOM      9  N   UNL     1      -0.619  11.200  18.627  0.00  0.00    +0.000 N 
ATOM     10  C   UNL     1      -1.270  12.412  18.143  0.00  0.00    +0.000 C 
ATOM     11  C   UNL     1      -2.438  11.551  17.653  0.00  0.00    +0.000 C 
ATOM     12  C   UNL     1      -1.645  10.308  18.099  0.00  0.00    +0.000 C 
BRANCH  11  13
ATOM     13  N   UNL     1      -3.665  11.697  18.398  0.00  0.00    +0.000 N 
ATOM     14  C   UNL     1      -4.914  11.262  18.035  0.00  0.00    +0.000 A 
ATOM     15  C   UNL     1      -5.762  11.643  19.048  0.00  0.00    +0.000 A 
ATOM     16  C   UNL     1      -4.942  12.307  19.971  0.00  0.00    +0.000 A 
ATOM     17  N   UNL     1      -3.664  12.337  19.587  0.00  0.00    +0.000 NA
ENDBRANCH  11  13
ENDBRANCH   6   7
BRANCH   4  18
ATOM     18  C   UNL     1       2.733   7.076  18.938  0.00  0.00    +0.000 C 
BRANCH  18  19
ATOM     19  O   UNL     1       1.869   6.210  18.197  0.00  0.00    +0.000 OA
BRANCH  19  20
ATOM     20  C   UNL     1       2.342   4.925  18.067  0.00  0.00    +0.000 A 
ATOM     21  C   UNL     1       1.432   3.900  18.330  0.00  0.00    +0.000 A 
ATOM     22  C   UNL     1       1.824   2.560  18.230  0.00  0.00    +0.000 A 
ATOM     23  C   UNL     1       3.124   2.237  17.847  0.00  0.00    +0.000 A 
ATOM     24  C   UNL     1       4.027   3.253  17.548  0.00  0.00    +0.000 A 
ATOM     25  C   UNL     1       3.637   4.591  17.650  0.00  0.00    +0.000 A 
ENDBRANCH  19  20
ENDBRANCH  18  19
ENDBRANCH   4  18
TORSDOF 5
ENDMDL
MODEL 9
REMARK VINA RESULT:      -7.1      1.074      1.423
REMARK  Name = 
REMARK  6 active torsions:
REMARK  status: ('A' for Active; 'I' for Inactive)
REMARK    1  A    between atoms: C_1  and  C_2
REMARK    2  A    between atoms: C_4  and  C_5
REMARK    3  A    between atoms: C_5  and  O_6
REMARK    4  A    between atoms: O_6  and  C_7
REMARK    5  A    between atoms: C_14  and  C_15
REMARK    6  A    between atoms: C_19  and  N_20
REMARK                            x       y       z     vdW  Elec       q    Type
REMARK                         _______ _______ _______ _____ _____    ______ ____
ROOT
ATOM      1  C   UNL     1      -0.352   8.939  22.108  0.00  0.00    +0.000 C 
ATOM      2  C   UNL     1       0.604   8.710  20.995  0.00  0.00    +0.000 A 
ATOM      3  C   UNL     1       1.400   7.548  20.799  0.00  0.00    +0.000 A 
ATOM      4  C   UNL     1       2.085   7.727  19.618  0.00  0.00    +0.000 A 
ATOM      5  O   UNL     1       1.796   8.954  19.096  0.00  0.00    +0.000 OA
ATOM      6  C   UNL     1       0.900   9.568  19.939  0.00  0.00    +0.000 A 
ENDROOT
BRANCH   6   7
ATOM      7  C   UNL     1       0.434  10.923  19.664  0.00  0.00    +0.000 C 
ATOM      8  O   UNL     1       0.809  11.900  20.315  0.00  0.00    +0.000 OA
ATOM      9  N   UNL     1      -0.442  11.086  18.602  0.00  0.00    +0.000 N 
ATOM     10  C   UNL     1      -1.025  12.348  18.159  0.00  0.00    +0.000 C 
ATOM     11  C   UNL     1      -2.363  11.627  17.973  0.00  0.00    +0.000 C 
ATOM     12  C   UNL     1      -1.654  10.315  18.353  0.00  0.00    +0.000 C 
BRANCH  11  13
ATOM     13  N   UNL     1      -3.388  11.977  18.927  0.00  0.00    +0.000 N 
ATOM     14  C   UNL     1      -3.222  12.626  20.123  0.00  0.00    +0.000 A 
ATOM     15  C   UNL     1      -4.473  12.718  20.686  0.00  0.00    +0.000 A 
ATOM     16  C   UNL     1      -5.326  12.093  19.766  0.00  0.00    +0.000 A 
ATOM     17  N   UNL     1      -4.675  11.646  18.691  0.00  0.00    +0.000 NA
ENDBRANCH  11  13
ENDBRANCH   6   7
BRANCH   4  18
ATOM     18  C   UNL     1       2.924   6.804  18.808  0.00  0.00    +0.000 C 
BRANCH  18  19
ATOM     19  O   UNL     1       2.081   5.840  18.171  0.00  0.00    +0.000 OA
BRANCH  19  20
ATOM     20  C   UNL     1       2.527   4.544  18.284  0.00  0.00    +0.000 A 
ATOM     21  C   UNL     1       3.490   4.304  19.266  0.00  0.00    +0.000 A 
ATOM     22  C   UNL     1       4.008   3.018  19.453  0.00  0.00    +0.000 A 
ATOM     23  C   UNL     1       3.553   1.959  18.669  0.00  0.00    +0.000 A 
ATOM     24  C   UNL     1       2.568   2.183  17.712  0.00  0.00    +0.000 A 
ATOM     25  C   UNL     1       2.051   3.468  17.524  0.00  0.00    +0.000 A 
ENDBRANCH  19  20
ENDBRANCH  18  19
ENDBRANCH   4  18
TORSDOF 5
ENDMDL
