MODEL 1
REMARK VINA RESULT:      -7.1      0.000      0.000
REMARK  Name = 
REMARK  7 active torsions:
REMARK  status: ('A' for Active; 'I' for Inactive)
REMARK    1  A    between atoms: C_1  and  N_2
REMARK    2  A    between atoms: N_2  and  C_14
REMARK    3  A    between atoms: C_3  and  C_5
REMARK    4  A    between atoms: C_5  and  O_6
REMARK    5  A    between atoms: O_6  and  C_7
REMARK    6  A    between atoms: N_17  and  C_18
REMARK    7  A    between atoms: C_18  and  C_19
REMARK                            x       y       z     vdW  Elec       q    Type
REMARK                         _______ _______ _______ _____ _____    ______ ____
ROOT
ATOM      1  C   UNL     1       4.042   7.368  16.553  0.00  0.00    +0.000 C 
ATOM      2  N   UNL     1       3.953   6.718  17.858  0.00  0.00    +0.000 N 
ATOM      3  C   UNL     1       2.872   7.154  18.631  0.00  0.00    +0.000 C 
ATOM      4  O   UNL     1       2.076   8.018  18.244  0.00  0.00    +0.000 OA
ENDROOT
BRANCH   2   5
ATOM      5  C   UNL     1       5.043   5.704  18.141  0.00  0.00    +0.000 C 
ATOM      6  C   UNL     1       6.502   6.130  17.975  0.00  0.00    +0.000 C 
ATOM      7  C   UNL     1       7.092   5.944  16.576  0.00  0.00    +0.000 C 
ATOM      8  N   UNL     1       6.729   4.710  15.856  0.00  0.00    +0.000 NA
ATOM      9  C   UNL     1       5.427   4.085  16.172  0.00  0.00    +0.000 C 
ATOM     10  C   UNL     1       4.865   4.296  17.573  0.00  0.00    +0.000 C 
BRANCH   8  11
ATOM     11  C   UNL     1       6.821   4.857  14.379  0.00  0.00    +0.000 C 
BRANCH  11  12
ATOM     12  C   UNL     1       6.338   3.679  13.620  0.00  0.00    +0.000 C 
ATOM     13  C   UNL     1       5.259   3.820  12.574  0.00  0.00    +0.000 C 
ATOM     14  C   UNL     1       6.665   3.573  12.174  0.00  0.00    +0.000 C 
ATOM     15  F   UNL     1       7.030   2.365  11.624  0.00  0.00    +0.000 F 
ATOM     16  F   UNL     1       7.398   4.550  11.542  0.00  0.00    +0.000 F 
ENDBRANCH  11  12
ENDBRANCH   8  11
ENDBRANCH   2   5
BRANCH   3  17
ATOM     17  C   UNL     1       2.636   6.554  19.982  0.00  0.00    +0.000 C 
BRANCH  17  18
ATOM     18  O   UNL     1       1.545   5.652  19.992  0.00  0.00    +0.000 OA
BRANCH  18  19
ATOM     19  C   UNL     1       1.926   4.353  19.775  0.00  0.00    +0.000 A 
ATOM     20  C   UNL     1       1.385   3.730  18.676  0.00  0.00    +0.000 A 
ATOM     21  C   UNL     1       1.936   2.517  18.292  0.00  0.00    +0.000 A 
ATOM     22  C   UNL     1       2.956   1.997  19.068  0.00  0.00    +0.000 A 
ATOM     23 CL   UNL     1       3.833   0.615  18.578  0.00  0.00    +0.000 Cl
ATOM     24  N   UNL     1       3.382   2.575  20.209  0.00  0.00    +0.000 NA
ATOM     25  N   UNL     1       2.848   3.764  20.575  0.00  0.00    +0.000 NA
ENDBRANCH  18  19
ENDBRANCH  17  18
ENDBRANCH   3  17
TORSDOF 6
ENDMDL
MODEL 2
REMARK VINA RESULT:      -7.1      3.995      6.981
REMARK  Name = 
REMARK  7 active torsions:
REMARK  status: ('A' for Active; 'I' for Inactive)
REMARK    1  A    between atoms: C_1  and  N_2
REMARK    2  A    between atoms: N_2  and  C_14
REMARK    3  A    between atoms: C_3  and  C_5
REMARK    4  A    between atoms: C_5  and  O_6
REMARK    5  A    between atoms: O_6  and  C_7
REMARK    6  A    between atoms: N_17  and  C_18
REMARK    7  A    between atoms: C_18  and  C_19
REMARK                            x       y       z     vdW  Elec       q    Type
REMARK                         _______ _______ _______ _____ _____    ______ ____
ROOT
ATOM      1  C   UNL     1       5.709   5.376  19.425  0.00  0.00    +0.000 C 
ATOM      2  N   UNL     1       5.659   5.829  18.038  0.00  0.00    +0.000 N 
ATOM      3  C   UNL     1       6.919   5.966  17.445  0.00  0.00    +0.000 C 
ATOM      4  O   UNL     1       7.974   5.734  18.050  0.00  0.00    +0.000 OA
ENDROOT
BRANCH   2   5
ATOM      5  C   UNL     1       4.265   6.075  17.496  0.00  0.00    +0.000 C 
ATOM      6  C   UNL     1       3.432   7.203  18.105  0.00  0.00    +0.000 C 
ATOM      7  C   UNL     1       2.581   6.819  19.316  0.00  0.00    +0.000 C 
ATOM      8  N   UNL     1       1.900   5.513  19.268  0.00  0.00    +0.000 NA
ATOM      9  C   UNL     1       2.523   4.440  18.463  0.00  0.00    +0.000 C 
ATOM     10  C   UNL     1       3.369   4.858  17.267  0.00  0.00    +0.000 C 
BRANCH   8  11
ATOM     11  C   UNL     1       1.613   4.964  20.620  0.00  0.00    +0.000 C 
BRANCH  11  12
ATOM     12  C   UNL     1       2.103   3.581  20.831  0.00  0.00    +0.000 C 
ATOM     13  C   UNL     1       1.394   2.642  21.776  0.00  0.00    +0.000 C 
ATOM     14  C   UNL     1       1.298   2.446  20.310  0.00  0.00    +0.000 C 
ATOM     15  F   UNL     1       1.910   1.369  19.711  0.00  0.00    +0.000 F 
ATOM     16  F   UNL     1       0.113   2.667  19.648  0.00  0.00    +0.000 F 
ENDBRANCH  11  12
ENDBRANCH   8  11
ENDBRANCH   2   5
BRANCH   3  17
ATOM     17  C   UNL     1       7.024   6.394  16.015  0.00  0.00    +0.000 C 
BRANCH  17  18
ATOM     18  O   UNL     1       7.752   5.473  15.225  0.00  0.00    +0.000 OA
BRANCH  18  19
ATOM     19  C   UNL     1       7.000   4.921  14.220  0.00  0.00    +0.000 A 
ATOM     20  C   UNL     1       7.589   4.847  12.981  0.00  0.00    +0.000 A 
ATOM     21  C   UNL     1       6.957   4.076  12.017  0.00  0.00    +0.000 A 
ATOM     22  C   UNL     1       5.756   3.478  12.354  0.00  0.00    +0.000 A 
ATOM     23 CL   UNL     1       4.997   2.356  11.313  0.00  0.00    +0.000 Cl
ATOM     24  N   UNL     1       5.145   3.669  13.540  0.00  0.00    +0.000 NA
ATOM     25  N   UNL     1       5.770   4.415  14.482  0.00  0.00    +0.000 NA
ENDBRANCH  18  19
ENDBRANCH  17  18
ENDBRANCH   3  17
TORSDOF 6
ENDMDL
MODEL 3
REMARK VINA RESULT:      -7.0      3.631      4.661
REMARK  Name = 
REMARK  7 active torsions:
REMARK  status: ('A' for Active; 'I' for Inactive)
REMARK    1  A    between atoms: C_1  and  N_2
REMARK    2  A    between atoms: N_2  and  C_14
REMARK    3  A    between atoms: C_3  and  C_5
REMARK    4  A    between atoms: C_5  and  O_6
REMARK    5  A    between atoms: O_6  and  C_7
REMARK    6  A    between atoms: N_17  and  C_18
REMARK    7  A    between atoms: C_18  and  C_19
REMARK                            x       y       z     vdW  Elec       q    Type
REMARK                         _______ _______ _______ _____ _____    ______ ____
ROOT
ATOM      1  C   UNL     1       3.571   3.747  17.798  0.00  0.00    +0.000 C 
ATOM      2  N   UNL     1       3.646   5.139  18.234  0.00  0.00    +0.000 N 
ATOM      3  C   UNL     1       2.503   5.579  18.911  0.00  0.00    +0.000 C 
ATOM      4  O   UNL     1       1.521   4.853  19.110  0.00  0.00    +0.000 OA
ENDROOT
BRANCH   2   5
ATOM      5  C   UNL     1       4.932   5.853  17.870  0.00  0.00    +0.000 C 
ATOM      6  C   UNL     1       4.979   6.663  16.574  0.00  0.00    +0.000 C 
ATOM      7  C   UNL     1       5.394   5.888  15.322  0.00  0.00    +0.000 C 
ATOM      8  N   UNL     1       6.487   4.911  15.473  0.00  0.00    +0.000 NA
ATOM      9  C   UNL     1       6.670   4.280  16.798  0.00  0.00    +0.000 C 
ATOM     10  C   UNL     1       6.241   5.078  18.023  0.00  0.00    +0.000 C 
BRANCH   8  11
ATOM     11  C   UNL     1       6.436   3.829  14.453  0.00  0.00    +0.000 C 
BRANCH  11  12
ATOM     12  C   UNL     1       6.053   4.290  13.098  0.00  0.00    +0.000 C 
ATOM     13  C   UNL     1       6.942   4.023  11.908  0.00  0.00    +0.000 C 
ATOM     14  C   UNL     1       5.670   3.280  12.077  0.00  0.00    +0.000 C 
ATOM     15  F   UNL     1       4.614   3.508  11.226  0.00  0.00    +0.000 F 
ATOM     16  F   UNL     1       5.676   1.937  12.376  0.00  0.00    +0.000 F 
ENDBRANCH  11  12
ENDBRANCH   8  11
ENDBRANCH   2   5
BRANCH   3  17
ATOM     17  C   UNL     1       2.449   6.977  19.444  0.00  0.00    +0.000 C 
BRANCH  17  18
ATOM     18  O   UNL     1       1.631   7.088  20.593  0.00  0.00    +0.000 OA
BRANCH  18  19
ATOM     19  C   UNL     1       1.332   8.388  20.910  0.00  0.00    +0.000 A 
ATOM     20  C   UNL     1       1.039   9.225  19.860  0.00  0.00    +0.000 A 
ATOM     21  C   UNL     1       0.496  10.464  20.161  0.00  0.00    +0.000 A 
ATOM     22  C   UNL     1       0.333  10.790  21.496  0.00  0.00    +0.000 A 
ATOM     23 CL   UNL     1      -0.503  12.202  21.973  0.00  0.00    +0.000 Cl
ATOM     24  N   UNL     1       0.742   9.995  22.504  0.00  0.00    +0.000 NA
ATOM     25  N   UNL     1       1.264   8.781  22.206  0.00  0.00    +0.000 NA
ENDBRANCH  18  19
ENDBRANCH  17  18
ENDBRANCH   3  17
TORSDOF 6
ENDMDL
MODEL 4
REMARK VINA RESULT:      -7.0      4.687      7.120
REMARK  Name = 
REMARK  7 active torsions:
REMARK  status: ('A' for Active; 'I' for Inactive)
REMARK    1  A    between atoms: C_1  and  N_2
REMARK    2  A    between atoms: N_2  and  C_14
REMARK    3  A    between atoms: C_3  and  C_5
REMARK    4  A    between atoms: C_5  and  O_6
REMARK    5  A    between atoms: O_6  and  C_7
REMARK    6  A    between atoms: N_17  and  C_18
REMARK    7  A    between atoms: C_18  and  C_19
REMARK                            x       y       z     vdW  Elec       q    Type
REMARK                         _______ _______ _______ _____ _____    ______ ____
ROOT
ATOM      1  C   UNL     1       0.782   4.741  20.105  0.00  0.00    +0.000 C 
ATOM      2  N   UNL     1       1.925   4.970  19.225  0.00  0.00    +0.000 N 
ATOM      3  C   UNL     1       2.056   4.014  18.212  0.00  0.00    +0.000 C 
ATOM      4  O   UNL     1       1.279   3.060  18.085  0.00  0.00    +0.000 OA
ENDROOT
BRANCH   2   5
ATOM      5  C   UNL     1       2.761   6.187  19.569  0.00  0.00    +0.000 C 
ATOM      6  C   UNL     1       2.186   7.220  20.538  0.00  0.00    +0.000 C 
ATOM      7  C   UNL     1       1.351   8.332  19.903  0.00  0.00    +0.000 C 
ATOM      8  N   UNL     1       1.840   8.892  18.630  0.00  0.00    +0.000 NA
ATOM      9  C   UNL     1       2.645   8.015  17.755  0.00  0.00    +0.000 C 
ATOM     10  C   UNL     1       3.462   6.913  18.420  0.00  0.00    +0.000 C 
BRANCH   8  11
ATOM     11  C   UNL     1       0.753   9.488  17.808  0.00  0.00    +0.000 C 
BRANCH  11  12
ATOM     12  C   UNL     1      -0.498   9.754  18.556  0.00  0.00    +0.000 C 
ATOM     13  C   UNL     1      -1.135  11.122  18.541  0.00  0.00    +0.000 C 
ATOM     14  C   UNL     1      -1.752   9.998  17.797  0.00  0.00    +0.000 C 
ATOM     15  F   UNL     1      -2.944   9.457  18.217  0.00  0.00    +0.000 F 
ATOM     16  F   UNL     1      -1.757   9.986  16.421  0.00  0.00    +0.000 F 
ENDBRANCH  11  12
ENDBRANCH   8  11
ENDBRANCH   2   5
BRANCH   3  17
ATOM     17  C   UNL     1       3.165   4.138  17.213  0.00  0.00    +0.000 C 
BRANCH  17  18
ATOM     18  O   UNL     1       4.296   3.362  17.559  0.00  0.00    +0.000 OA
BRANCH  18  19
ATOM     19  C   UNL     1       5.412   4.123  17.797  0.00  0.00    +0.000 A 
ATOM     20  C   UNL     1       5.970   4.750  16.710  0.00  0.00    +0.000 A 
ATOM     21  C   UNL     1       6.936   5.715  16.954  0.00  0.00    +0.000 A 
ATOM     22  C   UNL     1       7.304   5.942  18.268  0.00  0.00    +0.000 A 
ATOM     23 CL   UNL     1       8.334   7.236  18.694  0.00  0.00    +0.000 Cl
ATOM     24  N   UNL     1       6.823   5.224  19.302  0.00  0.00    +0.000 NA
ATOM     25  N   UNL     1       5.873   4.290  19.060  0.00  0.00    +0.000 NA
ENDBRANCH  18  19
ENDBRANCH  17  18
ENDBRANCH   3  17
TORSDOF 6
ENDMDL
MODEL 5
REMARK VINA RESULT:      -6.9      3.002      4.088
REMARK  Name = 
REMARK  7 active torsions:
REMARK  status: ('A' for Active; 'I' for Inactive)
REMARK    1  A    between atoms: C_1  and  N_2
REMARK    2  A    between atoms: N_2  and  C_14
REMARK    3  A    between atoms: C_3  and  C_5
REMARK    4  A    between atoms: C_5  and  O_6
REMARK    5  A    between atoms: O_6  and  C_7
REMARK    6  A    between atoms: N_17  and  C_18
REMARK    7  A    between atoms: C_18  and  C_19
REMARK                            x       y       z     vdW  Elec       q    Type
REMARK                         _______ _______ _______ _____ _____    ______ ____
ROOT
ATOM      1  C   UNL     1       3.855   3.406  16.672  0.00  0.00    +0.000 C 
ATOM      2  N   UNL     1       3.675   4.437  17.690  0.00  0.00    +0.000 N 
ATOM      3  C   UNL     1       2.397   4.448  18.260  0.00  0.00    +0.000 C 
ATOM      4  O   UNL     1       1.505   3.660  17.921  0.00  0.00    +0.000 OA
ENDROOT
BRANCH   2   5
ATOM      5  C   UNL     1       4.890   5.309  17.937  0.00  0.00    +0.000 C 
ATOM      6  C   UNL     1       5.059   6.581  17.107  0.00  0.00    +0.000 C 
ATOM      7  C   UNL     1       5.808   6.413  15.784  0.00  0.00    +0.000 C 
ATOM      8  N   UNL     1       6.984   5.524  15.789  0.00  0.00    +0.000 NA
ATOM      9  C   UNL     1       7.006   4.416  16.768  0.00  0.00    +0.000 C 
ATOM     10  C   UNL     1       6.244   4.614  18.074  0.00  0.00    +0.000 C 
BRANCH   8  11
ATOM     11  C   UNL     1       7.281   4.955  14.447  0.00  0.00    +0.000 C 
BRANCH  11  12
ATOM     12  C   UNL     1       6.343   3.891  14.017  0.00  0.00    +0.000 C 
ATOM     13  C   UNL     1       5.114   4.221  13.207  0.00  0.00    +0.000 C 
ATOM     14  C   UNL     1       6.268   3.539  12.575  0.00  0.00    +0.000 C 
ATOM     15  F   UNL     1       6.168   2.226  12.177  0.00  0.00    +0.000 F 
ATOM     16  F   UNL     1       7.047   4.192  11.648  0.00  0.00    +0.000 F 
ENDBRANCH  11  12
ENDBRANCH   8  11
ENDBRANCH   2   5
BRANCH   3  17
ATOM     17  C   UNL     1       2.074   5.432  19.341  0.00  0.00    +0.000 C 
BRANCH  17  18
ATOM     18  O   UNL     1       2.907   6.575  19.300  0.00  0.00    +0.000 OA
BRANCH  18  19
ATOM     19  C   UNL     1       2.198   7.749  19.293  0.00  0.00    +0.000 A 
ATOM     20  C   UNL     1       2.082   8.389  18.083  0.00  0.00    +0.000 A 
ATOM     21  C   UNL     1       1.172   9.432  17.995  0.00  0.00    +0.000 A 
ATOM     22  C   UNL     1       0.484   9.787  19.141  0.00  0.00    +0.000 A 
ATOM     23 CL   UNL     1      -0.794  10.920  19.099  0.00  0.00    +0.000 Cl
ATOM     24  N   UNL     1       0.709   9.217  20.342  0.00  0.00    +0.000 NA
ATOM     25  N   UNL     1       1.591   8.192  20.421  0.00  0.00    +0.000 NA
ENDBRANCH  18  19
ENDBRANCH  17  18
ENDBRANCH   3  17
TORSDOF 6
ENDMDL
MODEL 6
REMARK VINA RESULT:      -6.8      4.630      5.950
REMARK  Name = 
REMARK  7 active torsions:
REMARK  status: ('A' for Active; 'I' for Inactive)
REMARK    1  A    between atoms: C_1  and  N_2
REMARK    2  A    between atoms: N_2  and  C_14
REMARK    3  A    between atoms: C_3  and  C_5
REMARK    4  A    between atoms: C_5  and  O_6
REMARK    5  A    between atoms: O_6  and  C_7
REMARK    6  A    between atoms: N_17  and  C_18
REMARK    7  A    between atoms: C_18  and  C_19
REMARK                            x       y       z     vdW  Elec       q    Type
REMARK                         _______ _______ _______ _____ _____    ______ ____
ROOT
ATOM      1  C   UNL     1       3.137   7.151  17.701  0.00  0.00    +0.000 C 
ATOM      2  N   UNL     1       2.416   6.912  18.948  0.00  0.00    +0.000 N 
ATOM      3  C   UNL     1       1.864   8.068  19.510  0.00  0.00    +0.000 C 
ATOM      4  O   UNL     1       1.988   9.188  18.997  0.00  0.00    +0.000 OA
ENDROOT
BRANCH   2   5
ATOM      5  C   UNL     1       2.403   5.468  19.411  0.00  0.00    +0.000 C 
ATOM      6  C   UNL     1       3.681   4.880  20.008  0.00  0.00    +0.000 C 
ATOM      7  C   UNL     1       4.651   4.248  19.008  0.00  0.00    +0.000 C 
ATOM      8  N   UNL     1       4.061   3.451  17.917  0.00  0.00    +0.000 NA
ATOM      9  C   UNL     1       2.697   3.801  17.467  0.00  0.00    +0.000 C 
ATOM     10  C   UNL     1       1.759   4.435  18.488  0.00  0.00    +0.000 C 
BRANCH   8  11
ATOM     11  C   UNL     1       4.936   3.382  16.717  0.00  0.00    +0.000 C 
BRANCH  11  12
ATOM     12  C   UNL     1       5.615   4.658  16.385  0.00  0.00    +0.000 C 
ATOM     13  C   UNL     1       6.885   4.672  15.571  0.00  0.00    +0.000 C 
ATOM     14  C   UNL     1       5.607   5.131  14.977  0.00  0.00    +0.000 C 
ATOM     15  F   UNL     1       5.414   6.461  14.685  0.00  0.00    +0.000 F 
ATOM     16  F   UNL     1       4.988   4.399  13.990  0.00  0.00    +0.000 F 
ENDBRANCH  11  12
ENDBRANCH   8  11
ENDBRANCH   2   5
BRANCH   3  17
ATOM     17  C   UNL     1       1.070   7.972  20.776  0.00  0.00    +0.000 C 
BRANCH  17  18
ATOM     18  O   UNL     1       1.503   8.892  21.760  0.00  0.00    +0.000 OA
BRANCH  18  19
ATOM     19  C   UNL     1       0.604   9.906  21.973  0.00  0.00    +0.000 A 
ATOM     20  C   UNL     1      -0.473   9.612  22.774  0.00  0.00    +0.000 A 
ATOM     21  C   UNL     1      -1.256  10.671  23.208  0.00  0.00    +0.000 A 
ATOM     22  C   UNL     1      -0.927  11.940  22.765  0.00  0.00    +0.000 A 
ATOM     23 CL   UNL     1      -1.700  13.330  23.391  0.00  0.00    +0.000 Cl
ATOM     24  N   UNL     1       0.064  12.180  21.884  0.00  0.00    +0.000 NA
ATOM     25  N   UNL     1       0.832  11.143  21.471  0.00  0.00    +0.000 NA
ENDBRANCH  18  19
ENDBRANCH  17  18
ENDBRANCH   3  17
TORSDOF 6
ENDMDL
MODEL 7
REMARK VINA RESULT:      -6.8      3.290      4.783
REMARK  Name = 
REMARK  7 active torsions:
REMARK  status: ('A' for Active; 'I' for Inactive)
REMARK    1  A    between atoms: C_1  and  N_2
REMARK    2  A    between atoms: N_2  and  C_14
REMARK    3  A    between atoms: C_3  and  C_5
REMARK    4  A    between atoms: C_5  and  O_6
REMARK    5  A    between atoms: O_6  and  C_7
REMARK    6  A    between atoms: N_17  and  C_18
REMARK    7  A    between atoms: C_18  and  C_19
REMARK                            x       y       z     vdW  Elec       q    Type
REMARK                         _______ _______ _______ _____ _____    ______ ____
ROOT
ATOM      1  C   UNL     1       4.365   3.563  18.569  0.00  0.00    +0.000 C 
ATOM      2  N   UNL     1       4.169   5.007  18.663  0.00  0.00    +0.000 N 
ATOM      3  C   UNL     1       2.959   5.373  19.263  0.00  0.00    +0.000 C 
ATOM      4  O   UNL     1       2.133   4.545  19.665  0.00  0.00    +0.000 OA
ENDROOT
BRANCH   2   5
ATOM      5  C   UNL     1       5.297   5.843  18.091  0.00  0.00    +0.000 C 
ATOM      6  C   UNL     1       5.051   6.615  16.795  0.00  0.00    +0.000 C 
ATOM      7  C   UNL     1       5.348   5.852  15.503  0.00  0.00    +0.000 C 
ATOM      8  N   UNL     1       6.551   5.001  15.490  0.00  0.00    +0.000 NA
ATOM      9  C   UNL     1       7.007   4.433  16.776  0.00  0.00    +0.000 C 
ATOM     10  C   UNL     1       6.690   5.216  18.044  0.00  0.00    +0.000 C 
BRANCH   8  11
ATOM     11  C   UNL     1       6.460   3.891  14.504  0.00  0.00    +0.000 C 
BRANCH  11  12
ATOM     12  C   UNL     1       6.090   4.323  13.135  0.00  0.00    +0.000 C 
ATOM     13  C   UNL     1       6.966   3.987  11.953  0.00  0.00    +0.000 C 
ATOM     14  C   UNL     1       5.669   3.296  12.147  0.00  0.00    +0.000 C 
ATOM     15  F   UNL     1       4.619   3.535  11.291  0.00  0.00    +0.000 F 
ATOM     16  F   UNL     1       5.628   1.964  12.487  0.00  0.00    +0.000 F 
ENDBRANCH  11  12
ENDBRANCH   8  11
ENDBRANCH   2   5
BRANCH   3  17
ATOM     17  C   UNL     1       2.635   6.822  19.456  0.00  0.00    +0.000 C 
BRANCH  17  18
ATOM     18  O   UNL     1       2.157   7.434  18.273  0.00  0.00    +0.000 OA
BRANCH  18  19
ATOM     19  C   UNL     1       1.801   8.745  18.458  0.00  0.00    +0.000 A 
ATOM     20  C   UNL     1       1.032   9.023  19.562  0.00  0.00    +0.000 A 
ATOM     21  C   UNL     1       0.869  10.355  19.910  0.00  0.00    +0.000 A 
ATOM     22  C   UNL     1       1.449  11.310  19.095  0.00  0.00    +0.000 A 
ATOM     23 CL   UNL     1       1.476  12.961  19.536  0.00  0.00    +0.000 Cl
ATOM     24  N   UNL     1       2.097  11.009  17.952  0.00  0.00    +0.000 NA
ATOM     25  N   UNL     1       2.262   9.706  17.621  0.00  0.00    +0.000 NA
ENDBRANCH  18  19
ENDBRANCH  17  18
ENDBRANCH   3  17
TORSDOF 6
ENDMDL
MODEL 8
REMARK VINA RESULT:      -6.8      3.894      6.878
REMARK  Name = 
REMARK  7 active torsions:
REMARK  status: ('A' for Active; 'I' for Inactive)
REMARK    1  A    between atoms: C_1  and  N_2
REMARK    2  A    between atoms: N_2  and  C_14
REMARK    3  A    between atoms: C_3  and  C_5
REMARK    4  A    between atoms: C_5  and  O_6
REMARK    5  A    between atoms: O_6  and  C_7
REMARK    6  A    between atoms: N_17  and  C_18
REMARK    7  A    between atoms: C_18  and  C_19
REMARK                            x       y       z     vdW  Elec       q    Type
REMARK                         _______ _______ _______ _____ _____    ______ ____
ROOT
ATOM      1  C   UNL     1       5.109   4.111  19.420  0.00  0.00    +0.000 C 
ATOM      2  N   UNL     1       5.330   5.193  18.464  0.00  0.00    +0.000 N 
ATOM      3  C   UNL     1       6.669   5.346  18.088  0.00  0.00    +0.000 C 
ATOM      4  O   UNL     1       7.577   4.633  18.534  0.00  0.00    +0.000 OA
ENDROOT
BRANCH   2   5
ATOM      5  C   UNL     1       4.083   5.955  18.063  0.00  0.00    +0.000 C 
ATOM      6  C   UNL     1       3.397   6.838  19.105  0.00  0.00    +0.000 C 
ATOM      7  C   UNL     1       2.345   6.145  19.972  0.00  0.00    +0.000 C 
ATOM      8  N   UNL     1       1.451   5.185  19.300  0.00  0.00    +0.000 NA
ATOM      9  C   UNL     1       1.966   4.484  18.105  0.00  0.00    +0.000 C 
ATOM     10  C   UNL     1       3.018   5.201  17.266  0.00  0.00    +0.000 C 
BRANCH   8  11
ATOM     11  C   UNL     1       0.902   4.163  20.230  0.00  0.00    +0.000 C 
BRANCH  11  12
ATOM     12  C   UNL     1       1.882   3.648  21.215  0.00  0.00    +0.000 C 
ATOM     13  C   UNL     1       1.548   2.473  22.101  0.00  0.00    +0.000 C 
ATOM     14  C   UNL     1       2.507   2.321  20.981  0.00  0.00    +0.000 C 
ATOM     15  F   UNL     1       3.845   2.120  21.234  0.00  0.00    +0.000 F 
ATOM     16  F   UNL     1       2.181   1.572  19.874  0.00  0.00    +0.000 F 
ENDBRANCH  11  12
ENDBRANCH   8  11
ENDBRANCH   2   5
BRANCH   3  17
ATOM     17  C   UNL     1       7.043   6.396  17.089  0.00  0.00    +0.000 C 
BRANCH  17  18
ATOM     18  O   UNL     1       6.155   6.441  15.989  0.00  0.00    +0.000 OA
BRANCH  18  19
ATOM     19  C   UNL     1       6.420   5.477  15.050  0.00  0.00    +0.000 A 
ATOM     20  C   UNL     1       5.421   4.567  14.806  0.00  0.00    +0.000 A 
ATOM     21  C   UNL     1       5.561   3.743  13.699  0.00  0.00    +0.000 A 
ATOM     22  C   UNL     1       6.717   3.863  12.949  0.00  0.00    +0.000 A 
ATOM     23 CL   UNL     1       6.903   3.042  11.462  0.00  0.00    +0.000 Cl
ATOM     24  N   UNL     1       7.733   4.683  13.284  0.00  0.00    +0.000 NA
ATOM     25  N   UNL     1       7.587   5.492  14.361  0.00  0.00    +0.000 NA
ENDBRANCH  18  19
ENDBRANCH  17  18
ENDBRANCH   3  17
TORSDOF 6
ENDMDL
MODEL 9
REMARK VINA RESULT:      -6.8      2.899      4.150
REMARK  Name = 
REMARK  7 active torsions:
REMARK  status: ('A' for Active; 'I' for Inactive)
REMARK    1  A    between atoms: C_1  and  N_2
REMARK    2  A    between atoms: N_2  and  C_14
REMARK    3  A    between atoms: C_3  and  C_5
REMARK    4  A    between atoms: C_5  and  O_6
REMARK    5  A    between atoms: O_6  and  C_7
REMARK    6  A    between atoms: N_17  and  C_18
REMARK    7  A    between atoms: C_18  and  C_19
REMARK                            x       y       z     vdW  Elec       q    Type
REMARK                         _______ _______ _______ _____ _____    ______ ____
ROOT
ATOM      1  C   UNL     1       4.105   3.396  16.991  0.00  0.00    +0.000 C 
ATOM      2  N   UNL     1       3.975   4.423  18.022  0.00  0.00    +0.000 N 
ATOM      3  C   UNL     1       2.756   4.382  18.706  0.00  0.00    +0.000 C 
ATOM      4  O   UNL     1       1.870   3.557  18.450  0.00  0.00    +0.000 OA
ENDROOT
BRANCH   2   5
ATOM      5  C   UNL     1       5.171   5.345  18.158  0.00  0.00    +0.000 C 
ATOM      6  C   UNL     1       5.231   6.598  17.286  0.00  0.00    +0.000 C 
ATOM      7  C   UNL     1       5.889   6.421  15.916  0.00  0.00    +0.000 C 
ATOM      8  N   UNL     1       7.094   5.575  15.857  0.00  0.00    +0.000 NA
ATOM      9  C   UNL     1       7.229   4.497  16.859  0.00  0.00    +0.000 C 
ATOM     10  C   UNL     1       6.557   4.704  18.212  0.00  0.00    +0.000 C 
BRANCH   8  11
ATOM     11  C   UNL     1       7.315   4.981  14.511  0.00  0.00    +0.000 C 
BRANCH  11  12
ATOM     12  C   UNL     1       6.351   3.914  14.153  0.00  0.00    +0.000 C 
ATOM     13  C   UNL     1       5.073   4.237  13.418  0.00  0.00    +0.000 C 
ATOM     14  C   UNL     1       6.185   3.546  12.723  0.00  0.00    +0.000 C 
ATOM     15  F   UNL     1       6.058   2.229  12.347  0.00  0.00    +0.000 F 
ATOM     16  F   UNL     1       6.905   4.187  11.741  0.00  0.00    +0.000 F 
ENDBRANCH  11  12
ENDBRANCH   8  11
ENDBRANCH   2   5
BRANCH   3  17
ATOM     17  C   UNL     1       2.493   5.356  19.813  0.00  0.00    +0.000 C 
BRANCH  17  18
ATOM     18  O   UNL     1       3.108   6.611  19.590  0.00  0.00    +0.000 OA
BRANCH  18  19
ATOM     19  C   UNL     1       2.202   7.613  19.357  0.00  0.00    +0.000 A 
ATOM     20  C   UNL     1       1.524   8.095  20.451  0.00  0.00    +0.000 A 
ATOM     21  C   UNL     1       0.795   9.263  20.289  0.00  0.00    +0.000 A 
ATOM     22  C   UNL     1       0.762   9.833  19.029  0.00  0.00    +0.000 A 
ATOM     23 CL   UNL     1       0.061  11.369  18.764  0.00  0.00    +0.000 Cl
ATOM     24  N   UNL     1       1.340   9.270  17.949  0.00  0.00    +0.000 NA
ATOM     25  N   UNL     1       2.059   8.134  18.114  0.00  0.00    +0.000 NA
ENDBRANCH  18  19
ENDBRANCH  17  18
ENDBRANCH   3  17
TORSDOF 6
ENDMDL
