MODEL 1
REMARK VINA RESULT:      -8.0      0.000      0.000
REMARK  Name = 
REMARK  5 active torsions:
REMARK  status: ('A' for Active; 'I' for Inactive)
REMARK    1  A    between atoms: N_1  and  C_2
REMARK    2  A    between atoms: C_2  and  C_3
REMARK    3  A    between atoms: C_5  and  C_6
REMARK    4  A    between atoms: C_10  and  C_11
REMARK    5  A    between atoms: C_14  and  C_15
REMARK                            x       y       z     vdW  Elec       q    Type
REMARK                         _______ _______ _______ _____ _____    ______ ____
ROOT
ATOM      1  C   UNL     1       6.056   4.227  14.126  0.00  0.00    +0.000 A 
ATOM      2  C   UNL     1       7.267   4.810  14.522  0.00  0.00    +0.000 A 
ATOM      3  C   UNL     1       7.477   5.206  15.842  0.00  0.00    +0.000 A 
ATOM      4  C   UNL     1       6.474   5.021  16.795  0.00  0.00    +0.000 A 
ATOM      5  C   UNL     1       5.244   4.433  16.456  0.00  0.00    +0.000 A 
ATOM      6  C   UNL     1       5.063   4.061  15.109  0.00  0.00    +0.000 A 
ENDROOT
BRANCH   5   7
ATOM      7  C   UNL     1       4.193   4.177  17.469  0.00  0.00    +0.000 A 
ATOM      8  C   UNL     1       4.240   4.759  18.748  0.00  0.00    +0.000 A 
ATOM      9  C   UNL     1       3.213   4.563  19.681  0.00  0.00    +0.000 A 
ATOM     10  C   UNL     1       2.110   3.762  19.368  0.00  0.00    +0.000 A 
ATOM     11  C   UNL     1       2.059   3.157  18.107  0.00  0.00    +0.000 A 
ATOM     12  C   UNL     1       3.082   3.366  17.174  0.00  0.00    +0.000 A 
BRANCH  10  13
ATOM     13  C   UNL     1       0.985   3.551  20.350  0.00  0.00    +0.000 C 
ATOM     14  F   UNL     1       1.380   2.963  21.515  0.00  0.00    +0.000 F 
ATOM     15  F   UNL     1       0.381   4.718  20.710  0.00  0.00    +0.000 F 
ATOM     16  F   UNL     1      -0.004   2.758  19.850  0.00  0.00    +0.000 F 
ENDBRANCH  10  13
ENDBRANCH   5   7
BRANCH   1  19
ATOM     17  C   UNL     1       6.472   2.557  12.153  0.00  0.00    +0.000 C 
ATOM     18  C   UNL     1       6.924   3.911  11.675  0.00  0.00    +0.000 C 
ATOM     19  C   UNL     1       5.814   3.814  12.695  0.00  0.00    +0.000 C 
BRANCH  17  20
ATOM     20  C   UNL     1       5.691   1.636  11.274  0.00  0.00    +0.000 C 
BRANCH  20  21
ATOM     21  N   UNL     1       6.258   0.302  11.377  0.00  0.00    +0.000 NA
ATOM     22  H   UNL     1       6.926   0.279  12.145  0.00  0.00    +0.000 HD
ATOM     23  H   UNL     1       6.783   0.088  10.532  0.00  0.00    +0.000 HD
ENDBRANCH  20  21
ENDBRANCH  17  20
ENDBRANCH   1  19
TORSDOF 5
ENDMDL
MODEL 2
REMARK VINA RESULT:      -7.9      0.636      1.060
REMARK  Name = 
REMARK  5 active torsions:
REMARK  status: ('A' for Active; 'I' for Inactive)
REMARK    1  A    between atoms: N_1  and  C_2
REMARK    2  A    between atoms: C_2  and  C_3
REMARK    3  A    between atoms: C_5  and  C_6
REMARK    4  A    between atoms: C_10  and  C_11
REMARK    5  A    between atoms: C_14  and  C_15
REMARK                            x       y       z     vdW  Elec       q    Type
REMARK                         _______ _______ _______ _____ _____    ______ ____
ROOT
ATOM      1  C   UNL     1       6.085   4.250  14.053  0.00  0.00    +0.000 A 
ATOM      2  C   UNL     1       7.283   4.855  14.456  0.00  0.00    +0.000 A 
ATOM      3  C   UNL     1       7.471   5.270  15.773  0.00  0.00    +0.000 A 
ATOM      4  C   UNL     1       6.459   5.082  16.717  0.00  0.00    +0.000 A 
ATOM      5  C   UNL     1       5.242   4.472  16.371  0.00  0.00    +0.000 A 
ATOM      6  C   UNL     1       5.083   4.081  15.026  0.00  0.00    +0.000 A 
ENDROOT
BRANCH   5   7
ATOM      7  C   UNL     1       4.182   4.213  17.374  0.00  0.00    +0.000 A 
ATOM      8  C   UNL     1       3.141   5.129  17.605  0.00  0.00    +0.000 A 
ATOM      9  C   UNL     1       2.107   4.853  18.509  0.00  0.00    +0.000 A 
ATOM     10  C   UNL     1       2.091   3.653  19.226  0.00  0.00    +0.000 A 
ATOM     11  C   UNL     1       3.133   2.739  19.025  0.00  0.00    +0.000 A 
ATOM     12  C   UNL     1       4.157   3.015  18.110  0.00  0.00    +0.000 A 
BRANCH  10  13
ATOM     13  C   UNL     1       0.980   3.326  20.193  0.00  0.00    +0.000 C 
ATOM     14  F   UNL     1       0.365   4.428  20.709  0.00  0.00    +0.000 F 
ATOM     15  F   UNL     1      -0.008   2.584  19.619  0.00  0.00    +0.000 F 
ATOM     16  F   UNL     1       1.414   2.605  21.264  0.00  0.00    +0.000 F 
ENDBRANCH  10  13
ENDBRANCH   5   7
BRANCH   1  19
ATOM     17  C   UNL     1       6.495   2.528  12.124  0.00  0.00    +0.000 C 
ATOM     18  C   UNL     1       7.005   3.856  11.633  0.00  0.00    +0.000 C 
ATOM     19  C   UNL     1       5.866   3.817  12.624  0.00  0.00    +0.000 C 
BRANCH  17  20
ATOM     20  C   UNL     1       5.707   1.616  11.243  0.00  0.00    +0.000 C 
BRANCH  20  21
ATOM     21  N   UNL     1       6.266   0.277  11.339  0.00  0.00    +0.000 NA
ATOM     22  H   UNL     1       6.858   0.101  10.530  0.00  0.00    +0.000 HD
ATOM     23  H   UNL     1       5.515  -0.409  11.301  0.00  0.00    +0.000 HD
ENDBRANCH  20  21
ENDBRANCH  17  20
ENDBRANCH   1  19
TORSDOF 5
ENDMDL
MODEL 3
REMARK VINA RESULT:      -7.9      0.170      1.058
REMARK  Name = 
REMARK  5 active torsions:
REMARK  status: ('A' for Active; 'I' for Inactive)
REMARK    1  A    between atoms: N_1  and  C_2
REMARK    2  A    between atoms: C_2  and  C_3
REMARK    3  A    between atoms: C_5  and  C_6
REMARK    4  A    between atoms: C_10  and  C_11
REMARK    5  A    between atoms: C_14  and  C_15
REMARK                            x       y       z     vdW  Elec       q    Type
REMARK                         _______ _______ _______ _____ _____    ______ ____
ROOT
ATOM      1  C   UNL     1       6.049   4.251  14.090  0.00  0.00    +0.000 A 
ATOM      2  C   UNL     1       7.274   4.793  14.498  0.00  0.00    +0.000 A 
ATOM      3  C   UNL     1       7.474   5.209  15.813  0.00  0.00    +0.000 A 
ATOM      4  C   UNL     1       6.446   5.085  16.749  0.00  0.00    +0.000 A 
ATOM      5  C   UNL     1       5.200   4.540  16.398  0.00  0.00    +0.000 A 
ATOM      6  C   UNL     1       5.031   4.146  15.056  0.00  0.00    +0.000 A 
ENDROOT
BRANCH   5   7
ATOM      7  C   UNL     1       4.120   4.347  17.394  0.00  0.00    +0.000 A 
ATOM      8  C   UNL     1       2.933   3.663  17.075  0.00  0.00    +0.000 A 
ATOM      9  C   UNL     1       1.940   3.430  18.036  0.00  0.00    +0.000 A 
ATOM     10  C   UNL     1       2.096   3.890  19.347  0.00  0.00    +0.000 A 
ATOM     11  C   UNL     1       3.262   4.593  19.675  0.00  0.00    +0.000 A 
ATOM     12  C   UNL     1       4.257   4.812  18.714  0.00  0.00    +0.000 A 
BRANCH  10  13
ATOM     13  C   UNL     1       1.049   3.636  20.402  0.00  0.00    +0.000 C 
ATOM     14  F   UNL     1       1.568   3.284  21.613  0.00  0.00    +0.000 F 
ATOM     15  F   UNL     1       0.269   4.728  20.636  0.00  0.00    +0.000 F 
ATOM     16  F   UNL     1       0.193   2.634  20.058  0.00  0.00    +0.000 F 
ENDBRANCH  10  13
ENDBRANCH   5   7
BRANCH   1  19
ATOM     17  C   UNL     1       6.438   2.526  12.159  0.00  0.00    +0.000 C 
ATOM     18  C   UNL     1       6.950   3.852  11.663  0.00  0.00    +0.000 C 
ATOM     19  C   UNL     1       5.818   3.818  12.662  0.00  0.00    +0.000 C 
BRANCH  17  20
ATOM     20  C   UNL     1       5.640   1.617  11.284  0.00  0.00    +0.000 C 
BRANCH  20  21
ATOM     21  N   UNL     1       6.230   0.289  11.330  0.00  0.00    +0.000 NA
ATOM     22  H   UNL     1       6.695   0.159  12.227  0.00  0.00    +0.000 HD
ATOM     23  H   UNL     1       6.952   0.212  10.618  0.00  0.00    +0.000 HD
ENDBRANCH  20  21
ENDBRANCH  17  20
ENDBRANCH   1  19
TORSDOF 5
ENDMDL
MODEL 4
REMARK VINA RESULT:      -7.8      0.722      1.228
REMARK  Name = 
REMARK  5 active torsions:
REMARK  status: ('A' for Active; 'I' for Inactive)
REMARK    1  A    between atoms: N_1  and  C_2
REMARK    2  A    between atoms: C_2  and  C_3
REMARK    3  A    between atoms: C_5  and  C_6
REMARK    4  A    between atoms: C_10  and  C_11
REMARK    5  A    between atoms: C_14  and  C_15
REMARK                            x       y       z     vdW  Elec       q    Type
REMARK                         _______ _______ _______ _____ _____    ______ ____
ROOT
ATOM      1  C   UNL     1       6.076   4.275  14.160  0.00  0.00    +0.000 A 
ATOM      2  C   UNL     1       7.287   4.873  14.530  0.00  0.00    +0.000 A 
ATOM      3  C   UNL     1       7.516   5.284  15.841  0.00  0.00    +0.000 A 
ATOM      4  C   UNL     1       6.531   5.098  16.814  0.00  0.00    +0.000 A 
ATOM      5  C   UNL     1       5.302   4.496  16.502  0.00  0.00    +0.000 A 
ATOM      6  C   UNL     1       5.101   4.108  15.162  0.00  0.00    +0.000 A 
ENDROOT
BRANCH   5   7
ATOM      7  C   UNL     1       4.271   4.238  17.535  0.00  0.00    +0.000 A 
ATOM      8  C   UNL     1       4.346   3.127  18.395  0.00  0.00    +0.000 A 
ATOM      9  C   UNL     1       3.403   2.921  19.410  0.00  0.00    +0.000 A 
ATOM     10  C   UNL     1       2.341   3.814  19.588  0.00  0.00    +0.000 A 
ATOM     11  C   UNL     1       2.240   4.912  18.726  0.00  0.00    +0.000 A 
ATOM     12  C   UNL     1       3.192   5.121  17.721  0.00  0.00    +0.000 A 
BRANCH  10  13
ATOM     13  C   UNL     1       1.324   3.622  20.685  0.00  0.00    +0.000 C 
ATOM     14  F   UNL     1       0.289   4.508  20.632  0.00  0.00    +0.000 F 
ATOM     15  F   UNL     1       0.755   2.384  20.656  0.00  0.00    +0.000 F 
ATOM     16  F   UNL     1       1.864   3.754  21.928  0.00  0.00    +0.000 F 
ENDBRANCH  10  13
ENDBRANCH   5   7
BRANCH   1  19
ATOM     17  C   UNL     1       6.451   2.576  12.204  0.00  0.00    +0.000 C 
ATOM     18  C   UNL     1       6.911   3.919  11.704  0.00  0.00    +0.000 C 
ATOM     19  C   UNL     1       5.812   3.846  12.737  0.00  0.00    +0.000 C 
BRANCH  17  20
ATOM     20  C   UNL     1       5.651   1.652  11.347  0.00  0.00    +0.000 C 
BRANCH  20  21
ATOM     21  N   UNL     1       6.324   0.364  11.296  0.00  0.00    +0.000 NA
ATOM     22  H   UNL     1       7.253   0.454  11.703  0.00  0.00    +0.000 HD
ATOM     23  H   UNL     1       6.461   0.089  10.326  0.00  0.00    +0.000 HD
ENDBRANCH  20  21
ENDBRANCH  17  20
ENDBRANCH   1  19
TORSDOF 5
ENDMDL
MODEL 5
REMARK VINA RESULT:      -7.5      1.426      1.531
REMARK  Name = 
REMARK  5 active torsions:
REMARK  status: ('A' for Active; 'I' for Inactive)
REMARK    1  A    between atoms: N_1  and  C_2
REMARK    2  A    between atoms: C_2  and  C_3
REMARK    3  A    between atoms: C_5  and  C_6
REMARK    4  A    between atoms: C_10  and  C_11
REMARK    5  A    between atoms: C_14  and  C_15
REMARK                            x       y       z     vdW  Elec       q    Type
REMARK                         _______ _______ _______ _____ _____    ______ ____
ROOT
ATOM      1  C   UNL     1       6.104   4.138  13.703  0.00  0.00    +0.000 A 
ATOM      2  C   UNL     1       7.316   4.696  14.129  0.00  0.00    +0.000 A 
ATOM      3  C   UNL     1       7.519   5.042  15.463  0.00  0.00    +0.000 A 
ATOM      4  C   UNL     1       6.507   4.830  16.402  0.00  0.00    +0.000 A 
ATOM      5  C   UNL     1       5.276   4.265  16.033  0.00  0.00    +0.000 A 
ATOM      6  C   UNL     1       5.102   3.943  14.672  0.00  0.00    +0.000 A 
ENDROOT
BRANCH   5   7
ATOM      7  C   UNL     1       4.215   3.980  17.028  0.00  0.00    +0.000 A 
ATOM      8  C   UNL     1       3.370   4.991  17.519  0.00  0.00    +0.000 A 
ATOM      9  C   UNL     1       2.328   4.708  18.412  0.00  0.00    +0.000 A 
ATOM     10  C   UNL     1       2.109   3.400  18.858  0.00  0.00    +0.000 A 
ATOM     11  C   UNL     1       2.956   2.386  18.397  0.00  0.00    +0.000 A 
ATOM     12  C   UNL     1       3.987   2.673  17.494  0.00  0.00    +0.000 A 
BRANCH  10  13
ATOM     13  C   UNL     1       0.984   3.069  19.806  0.00  0.00    +0.000 C 
ATOM     14  F   UNL     1       1.367   2.285  20.854  0.00  0.00    +0.000 F 
ATOM     15  F   UNL     1       0.424   4.180  20.360  0.00  0.00    +0.000 F 
ATOM     16  F   UNL     1      -0.035   2.403  19.196  0.00  0.00    +0.000 F 
ENDBRANCH  10  13
ENDBRANCH   5   7
BRANCH   1  19
ATOM     17  C   UNL     1       4.504   3.279  11.816  0.00  0.00    +0.000 C 
ATOM     18  C   UNL     1       5.678   2.338  11.849  0.00  0.00    +0.000 C 
ATOM     19  C   UNL     1       5.869   3.779  12.256  0.00  0.00    +0.000 C 
BRANCH  17  20
ATOM     20  C   UNL     1       3.920   3.761  10.529  0.00  0.00    +0.000 C 
BRANCH  20  21
ATOM     21  N   UNL     1       2.770   2.936  10.201  0.00  0.00    +0.000 NA
ATOM     22  H   UNL     1       2.220   2.775  11.042  0.00  0.00    +0.000 HD
ATOM     23  H   UNL     1       3.085   2.021   9.885  0.00  0.00    +0.000 HD
ENDBRANCH  20  21
ENDBRANCH  17  20
ENDBRANCH   1  19
TORSDOF 5
ENDMDL
MODEL 6
REMARK VINA RESULT:      -7.5      1.381      1.847
REMARK  Name = 
REMARK  5 active torsions:
REMARK  status: ('A' for Active; 'I' for Inactive)
REMARK    1  A    between atoms: N_1  and  C_2
REMARK    2  A    between atoms: C_2  and  C_3
REMARK    3  A    between atoms: C_5  and  C_6
REMARK    4  A    between atoms: C_10  and  C_11
REMARK    5  A    between atoms: C_14  and  C_15
REMARK                            x       y       z     vdW  Elec       q    Type
REMARK                         _______ _______ _______ _____ _____    ______ ____
ROOT
ATOM      1  C   UNL     1       6.091   4.123  13.743  0.00  0.00    +0.000 A 
ATOM      2  C   UNL     1       7.306   4.657  14.190  0.00  0.00    +0.000 A 
ATOM      3  C   UNL     1       7.493   4.999  15.528  0.00  0.00    +0.000 A 
ATOM      4  C   UNL     1       6.462   4.806  16.449  0.00  0.00    +0.000 A 
ATOM      5  C   UNL     1       5.226   4.265  16.059  0.00  0.00    +0.000 A 
ATOM      6  C   UNL     1       5.069   3.948  14.695  0.00  0.00    +0.000 A 
ENDROOT
BRANCH   5   7
ATOM      7  C   UNL     1       4.143   4.000  17.036  0.00  0.00    +0.000 A 
ATOM      8  C   UNL     1       3.901   2.710  17.541  0.00  0.00    +0.000 A 
ATOM      9  C   UNL     1       2.917   2.474  18.510  0.00  0.00    +0.000 A 
ATOM     10  C   UNL     1       2.129   3.523  18.994  0.00  0.00    +0.000 A 
ATOM     11  C   UNL     1       2.342   4.809  18.484  0.00  0.00    +0.000 A 
ATOM     12  C   UNL     1       3.335   5.042  17.526  0.00  0.00    +0.000 A 
BRANCH  10  13
ATOM     13  C   UNL     1       1.075   3.296  20.049  0.00  0.00    +0.000 C 
ATOM     14  F   UNL     1      -0.018   2.620  19.592  0.00  0.00    +0.000 F 
ATOM     15  F   UNL     1       1.543   2.574  21.105  0.00  0.00    +0.000 F 
ATOM     16  F   UNL     1       0.601   4.460  20.573  0.00  0.00    +0.000 F 
ENDBRANCH  10  13
ENDBRANCH   5   7
BRANCH   1  19
ATOM     17  C   UNL     1       4.518   3.258  11.837  0.00  0.00    +0.000 C 
ATOM     18  C   UNL     1       5.701   2.329  11.876  0.00  0.00    +0.000 C 
ATOM     19  C   UNL     1       5.874   3.770  12.292  0.00  0.00    +0.000 C 
BRANCH  17  20
ATOM     20  C   UNL     1       3.942   3.741  10.547  0.00  0.00    +0.000 C 
BRANCH  20  21
ATOM     21  N   UNL     1       2.788   2.922  10.216  0.00  0.00    +0.000 NA
ATOM     22  H   UNL     1       2.805   2.074  10.779  0.00  0.00    +0.000 HD
ATOM     23  H   UNL     1       2.849   2.623   9.245  0.00  0.00    +0.000 HD
ENDBRANCH  20  21
ENDBRANCH  17  20
ENDBRANCH   1  19
TORSDOF 5
ENDMDL
MODEL 7
REMARK VINA RESULT:      -7.4      5.995      8.461
REMARK  Name = 
REMARK  5 active torsions:
REMARK  status: ('A' for Active; 'I' for Inactive)
REMARK    1  A    between atoms: N_1  and  C_2
REMARK    2  A    between atoms: C_2  and  C_3
REMARK    3  A    between atoms: C_5  and  C_6
REMARK    4  A    between atoms: C_10  and  C_11
REMARK    5  A    between atoms: C_14  and  C_15
REMARK                            x       y       z     vdW  Elec       q    Type
REMARK                         _______ _______ _______ _____ _____    ______ ____
ROOT
ATOM      1  C   UNL     1       1.367   8.867  19.835  0.00  0.00    +0.000 A 
ATOM      2  C   UNL     1       1.014   8.120  20.966  0.00  0.00    +0.000 A 
ATOM      3  C   UNL     1       1.400   6.787  21.097  0.00  0.00    +0.000 A 
ATOM      4  C   UNL     1       2.155   6.176  20.094  0.00  0.00    +0.000 A 
ATOM      5  C   UNL     1       2.546   6.880  18.943  0.00  0.00    +0.000 A 
ATOM      6  C   UNL     1       2.123   8.220  18.839  0.00  0.00    +0.000 A 
ENDROOT
BRANCH   5   7
ATOM      7  C   UNL     1       3.397   6.263  17.898  0.00  0.00    +0.000 A 
ATOM      8  C   UNL     1       4.291   7.027  17.126  0.00  0.00    +0.000 A 
ATOM      9  C   UNL     1       5.138   6.431  16.182  0.00  0.00    +0.000 A 
ATOM     10  C   UNL     1       5.105   5.049  15.967  0.00  0.00    +0.000 A 
ATOM     11  C   UNL     1       4.204   4.279  16.711  0.00  0.00    +0.000 A 
ATOM     12  C   UNL     1       3.369   4.877  17.663  0.00  0.00    +0.000 A 
BRANCH  10  13
ATOM     13  C   UNL     1       6.018   4.385  14.968  0.00  0.00    +0.000 C 
ATOM     14  F   UNL     1       5.474   4.267  13.724  0.00  0.00    +0.000 F 
ATOM     15  F   UNL     1       7.187   5.063  14.799  0.00  0.00    +0.000 F 
ATOM     16  F   UNL     1       6.371   3.123  15.342  0.00  0.00    +0.000 F 
ENDBRANCH  10  13
ENDBRANCH   5   7
BRANCH   1  19
ATOM     17  C   UNL     1       0.028  10.695  18.523  0.00  0.00    +0.000 C 
ATOM     18  C   UNL     1       1.466  11.138  18.535  0.00  0.00    +0.000 C 
ATOM     19  C   UNL     1       0.936  10.305  19.677  0.00  0.00    +0.000 C 
BRANCH  17  20
ATOM     20  C   UNL     1      -1.091  11.655  18.757  0.00  0.00    +0.000 C 
BRANCH  20  21
ATOM     21  N   UNL     1      -1.301  12.431  17.546  0.00  0.00    +0.000 NA
ATOM     22  H   UNL     1      -0.740  12.036  16.793  0.00  0.00    +0.000 HD
ATOM     23  H   UNL     1      -0.964  13.381  17.687  0.00  0.00    +0.000 HD
ENDBRANCH  20  21
ENDBRANCH  17  20
ENDBRANCH   1  19
TORSDOF 5
ENDMDL
MODEL 8
REMARK VINA RESULT:      -7.3      3.811      5.006
REMARK  Name = 
REMARK  5 active torsions:
REMARK  status: ('A' for Active; 'I' for Inactive)
REMARK    1  A    between atoms: N_1  and  C_2
REMARK    2  A    between atoms: C_2  and  C_3
REMARK    3  A    between atoms: C_5  and  C_6
REMARK    4  A    between atoms: C_10  and  C_11
REMARK    5  A    between atoms: C_14  and  C_15
REMARK                            x       y       z     vdW  Elec       q    Type
REMARK                         _______ _______ _______ _____ _____    ______ ____
ROOT
ATOM      1  C   UNL     1       4.744   5.054  16.464  0.00  0.00    +0.000 A 
ATOM      2  C   UNL     1       4.334   3.777  16.867  0.00  0.00    +0.000 A 
ATOM      3  C   UNL     1       3.355   3.611  17.845  0.00  0.00    +0.000 A 
ATOM      4  C   UNL     1       2.762   4.728  18.437  0.00  0.00    +0.000 A 
ATOM      5  C   UNL     1       3.127   6.032  18.065  0.00  0.00    +0.000 A 
ATOM      6  C   UNL     1       4.132   6.159  17.085  0.00  0.00    +0.000 A 
ENDROOT
BRANCH   5   7
ATOM      7  C   UNL     1       2.466   7.226  18.641  0.00  0.00    +0.000 A 
ATOM      8  C   UNL     1       2.196   8.369  17.867  0.00  0.00    +0.000 A 
ATOM      9  C   UNL     1       1.515   9.472  18.399  0.00  0.00    +0.000 A 
ATOM     10  C   UNL     1       1.096   9.473  19.734  0.00  0.00    +0.000 A 
ATOM     11  C   UNL     1       1.378   8.353  20.524  0.00  0.00    +0.000 A 
ATOM     12  C   UNL     1       2.047   7.248  19.984  0.00  0.00    +0.000 A 
BRANCH  10  13
ATOM     13  C   UNL     1       0.348  10.642  20.324  0.00  0.00    +0.000 C 
ATOM     14  F   UNL     1      -0.741  11.018  19.595  0.00  0.00    +0.000 F 
ATOM     15  F   UNL     1      -0.117  10.384  21.578  0.00  0.00    +0.000 F 
ATOM     16  F   UNL     1       1.124  11.756  20.436  0.00  0.00    +0.000 F 
ENDBRANCH  10  13
ENDBRANCH   5   7
BRANCH   1  19
ATOM     17  C   UNL     1       6.330   4.041  14.643  0.00  0.00    +0.000 C 
ATOM     18  C   UNL     1       7.213   4.713  15.660  0.00  0.00    +0.000 C 
ATOM     19  C   UNL     1       5.819   5.241  15.421  0.00  0.00    +0.000 C 
BRANCH  17  20
ATOM     20  C   UNL     1       6.585   4.166  13.177  0.00  0.00    +0.000 C 
BRANCH  20  21
ATOM     21  N   UNL     1       6.178   2.932  12.526  0.00  0.00    +0.000 NA
ATOM     22  H   UNL     1       5.848   3.141  11.586  0.00  0.00    +0.000 HD
ATOM     23  H   UNL     1       5.388   2.528  13.025  0.00  0.00    +0.000 HD
ENDBRANCH  20  21
ENDBRANCH  17  20
ENDBRANCH   1  19
TORSDOF 5
ENDMDL
MODEL 9
REMARK VINA RESULT:      -7.3      6.010      8.505
REMARK  Name = 
REMARK  5 active torsions:
REMARK  status: ('A' for Active; 'I' for Inactive)
REMARK    1  A    between atoms: N_1  and  C_2
REMARK    2  A    between atoms: C_2  and  C_3
REMARK    3  A    between atoms: C_5  and  C_6
REMARK    4  A    between atoms: C_10  and  C_11
REMARK    5  A    between atoms: C_14  and  C_15
REMARK                            x       y       z     vdW  Elec       q    Type
REMARK                         _______ _______ _______ _____ _____    ______ ____
ROOT
ATOM      1  C   UNL     1       1.336   8.893  19.825  0.00  0.00    +0.000 A 
ATOM      2  C   UNL     1       0.942   8.163  20.954  0.00  0.00    +0.000 A 
ATOM      3  C   UNL     1       1.324   6.834  21.121  0.00  0.00    +0.000 A 
ATOM      4  C   UNL     1       2.117   6.208  20.157  0.00  0.00    +0.000 A 
ATOM      5  C   UNL     1       2.549   6.894  19.010  0.00  0.00    +0.000 A 
ATOM      6  C   UNL     1       2.129   8.231  18.869  0.00  0.00    +0.000 A 
ENDROOT
BRANCH   5   7
ATOM      7  C   UNL     1       3.439   6.262  18.007  0.00  0.00    +0.000 A 
ATOM      8  C   UNL     1       3.487   4.867  17.836  0.00  0.00    +0.000 A 
ATOM      9  C   UNL     1       4.283   4.276  16.845  0.00  0.00    +0.000 A 
ATOM     10  C   UNL     1       5.073   5.066  16.003  0.00  0.00    +0.000 A 
ATOM     11  C   UNL     1       5.054   6.454  16.176  0.00  0.00    +0.000 A 
ATOM     12  C   UNL     1       4.247   7.040  17.159  0.00  0.00    +0.000 A 
BRANCH  10  13
ATOM     13  C   UNL     1       5.925   4.454  14.919  0.00  0.00    +0.000 C 
ATOM     14  F   UNL     1       7.085   5.131  14.689  0.00  0.00    +0.000 F 
ATOM     15  F   UNL     1       6.293   3.174  15.206  0.00  0.00    +0.000 F 
ATOM     16  F   UNL     1       5.282   4.396  13.719  0.00  0.00    +0.000 F 
ENDBRANCH  10  13
ENDBRANCH   5   7
BRANCH   1  19
ATOM     17  C   UNL     1      -0.046  10.679  18.500  0.00  0.00    +0.000 C 
ATOM     18  C   UNL     1       1.395  11.109  18.431  0.00  0.00    +0.000 C 
ATOM     19  C   UNL     1       0.909  10.327  19.628  0.00  0.00    +0.000 C 
BRANCH  17  20
ATOM     20  C   UNL     1      -1.146  11.658  18.744  0.00  0.00    +0.000 C 
BRANCH  20  21
ATOM     21  N   UNL     1      -1.239  12.549  17.599  0.00  0.00    +0.000 NA
ATOM     22  H   UNL     1      -2.210  12.825  17.465  0.00  0.00    +0.000 HD
ATOM     23  H   UNL     1      -0.963  12.051  16.755  0.00  0.00    +0.000 HD
ENDBRANCH  20  21
ENDBRANCH  17  20
ENDBRANCH   1  19
TORSDOF 5
ENDMDL
