MODEL 1
REMARK VINA RESULT:      -6.3      0.000      0.000
REMARK  Name = 
REMARK  10 active torsions:
REMARK  status: ('A' for Active; 'I' for Inactive)
REMARK    1  A    between atoms: C_1  and  O_2
REMARK    2  A    between atoms: O_2  and  C_3
REMARK    3  A    between atoms: C_3  and  C_5
REMARK    4  A    between atoms: C_5  and  C_6
REMARK    5  A    between atoms: C_6  and  C_7
REMARK    6  A    between atoms: C_9  and  C_10
REMARK    7  A    between atoms: C_11  and  C_12
REMARK    8  A    between atoms: C_13  and  C_14
REMARK    9  A    between atoms: C_14  and  O_16
REMARK   10  A    between atoms: O_16  and  C_17
REMARK                            x       y       z     vdW  Elec       q    Type
REMARK                         _______ _______ _______ _____ _____    ______ ____
ROOT
ATOM      1  C   UNL     1       4.108   4.621  17.449  0.00  0.00    +0.000 A 
ATOM      2  O   UNL     1       3.880   5.945  17.195  0.00  0.00    +0.000 OA
ATOM      3  C   UNL     1       3.086   6.427  18.184  0.00  0.00    +0.000 A 
ATOM      4  C   UNL     1       2.737   7.863  18.125  0.00  0.00    +0.000 C 
ATOM      5  C   UNL     1       2.770   5.426  19.078  0.00  0.00    +0.000 A 
ATOM      6  C   UNL     1       1.934   5.552  20.301  0.00  0.00    +0.000 C 
ATOM      7  C   UNL     1       3.422   4.235  18.595  0.00  0.00    +0.000 A 
ENDROOT
BRANCH   7   8
ATOM      8  C   UNL     1       3.358   2.916  19.216  0.00  0.00    +0.000 C 
ATOM      9  O   UNL     1       3.959   2.641  20.250  0.00  0.00    +0.000 OA
BRANCH   8  10
ATOM     10  O   UNL     1       2.576   2.025  18.545  0.00  0.00    +0.000 OA
ATOM     11  C   UNL     1       1.177   2.219  18.760  0.00  0.00    +0.000 C 
ENDBRANCH   8  10
ENDBRANCH   7   8
BRANCH   1  12
ATOM     12  C   UNL     1       4.989   3.913  16.468  0.00  0.00    +0.000 C 
BRANCH  12  13
ATOM     13  C   UNL     1       5.867   4.862  15.654  0.00  0.00    +0.000 C 
BRANCH  13  14
ATOM     14  C   UNL     1       7.206   5.077  16.315  0.00  0.00    +0.000 C 
ATOM     15  O   UNL     1       7.906   4.202  16.807  0.00  0.00    +0.000 OA
BRANCH  14  17
ATOM     16  C   UNL     1       7.207   7.116  17.478  0.00  0.00    +0.000 C 
ATOM     17  O   UNL     1       7.519   6.404  16.281  0.00  0.00    +0.000 OA
ENDBRANCH  14  17
ENDBRANCH  13  14
ENDBRANCH  12  13
ENDBRANCH   1  12
TORSDOF 6
ENDMDL
MODEL 2
REMARK VINA RESULT:      -6.1      1.593      3.672
REMARK  Name = 
REMARK  10 active torsions:
REMARK  status: ('A' for Active; 'I' for Inactive)
REMARK    1  A    between atoms: C_1  and  O_2
REMARK    2  A    between atoms: O_2  and  C_3
REMARK    3  A    between atoms: C_3  and  C_5
REMARK    4  A    between atoms: C_5  and  C_6
REMARK    5  A    between atoms: C_6  and  C_7
REMARK    6  A    between atoms: C_9  and  C_10
REMARK    7  A    between atoms: C_11  and  C_12
REMARK    8  A    between atoms: C_13  and  C_14
REMARK    9  A    between atoms: C_14  and  O_16
REMARK   10  A    between atoms: O_16  and  C_17
REMARK                            x       y       z     vdW  Elec       q    Type
REMARK                         _______ _______ _______ _____ _____    ______ ____
ROOT
ATOM      1  C   UNL     1       5.127   4.795  18.906  0.00  0.00    +0.000 A 
ATOM      2  O   UNL     1       5.037   3.442  19.076  0.00  0.00    +0.000 OA
ATOM      3  C   UNL     1       3.818   3.047  18.628  0.00  0.00    +0.000 A 
ATOM      4  C   UNL     1       3.517   1.600  18.688  0.00  0.00    +0.000 C 
ATOM      5  C   UNL     1       3.094   4.133  18.183  0.00  0.00    +0.000 A 
ATOM      6  C   UNL     1       1.723   4.117  17.609  0.00  0.00    +0.000 C 
ATOM      7  C   UNL     1       3.938   5.285  18.377  0.00  0.00    +0.000 A 
ENDROOT
BRANCH   7   8
ATOM      8  C   UNL     1       3.583   6.664  18.062  0.00  0.00    +0.000 C 
ATOM      9  O   UNL     1       4.060   7.269  17.106  0.00  0.00    +0.000 OA
BRANCH   8  10
ATOM     10  O   UNL     1       2.681   7.215  18.921  0.00  0.00    +0.000 OA
ATOM     11  C   UNL     1       2.049   8.389  18.410  0.00  0.00    +0.000 C 
ENDBRANCH   8  10
ENDBRANCH   7   8
BRANCH   1  12
ATOM     12  C   UNL     1       6.421   5.419  19.328  0.00  0.00    +0.000 C 
BRANCH  12  13
ATOM     13  C   UNL     1       7.133   6.151  18.191  0.00  0.00    +0.000 C 
BRANCH  13  14
ATOM     14  C   UNL     1       7.412   5.228  17.031  0.00  0.00    +0.000 C 
ATOM     15  O   UNL     1       8.068   4.197  17.084  0.00  0.00    +0.000 OA
BRANCH  14  17
ATOM     16  C   UNL     1       6.866   4.849  14.779  0.00  0.00    +0.000 C 
ATOM     17  O   UNL     1       6.820   5.723  15.907  0.00  0.00    +0.000 OA
ENDBRANCH  14  17
ENDBRANCH  13  14
ENDBRANCH  12  13
ENDBRANCH   1  12
TORSDOF 6
ENDMDL
MODEL 3
REMARK VINA RESULT:      -6.1      1.549      2.080
REMARK  Name = 
REMARK  10 active torsions:
REMARK  status: ('A' for Active; 'I' for Inactive)
REMARK    1  A    between atoms: C_1  and  O_2
REMARK    2  A    between atoms: O_2  and  C_3
REMARK    3  A    between atoms: C_3  and  C_5
REMARK    4  A    between atoms: C_5  and  C_6
REMARK    5  A    between atoms: C_6  and  C_7
REMARK    6  A    between atoms: C_9  and  C_10
REMARK    7  A    between atoms: C_11  and  C_12
REMARK    8  A    between atoms: C_13  and  C_14
REMARK    9  A    between atoms: C_14  and  O_16
REMARK   10  A    between atoms: O_16  and  C_17
REMARK                            x       y       z     vdW  Elec       q    Type
REMARK                         _______ _______ _______ _____ _____    ______ ____
ROOT
ATOM      1  C   UNL     1       4.667   4.651  17.222  0.00  0.00    +0.000 A 
ATOM      2  O   UNL     1       4.296   5.938  16.948  0.00  0.00    +0.000 OA
ATOM      3  C   UNL     1       3.454   6.346  17.932  0.00  0.00    +0.000 A 
ATOM      4  C   UNL     1       2.950   7.734  17.851  0.00  0.00    +0.000 C 
ATOM      5  C   UNL     1       3.250   5.330  18.842  0.00  0.00    +0.000 A 
ATOM      6  C   UNL     1       2.406   5.384  20.065  0.00  0.00    +0.000 C 
ATOM      7  C   UNL     1       4.028   4.210  18.376  0.00  0.00    +0.000 A 
ENDROOT
BRANCH   7   8
ATOM      8  C   UNL     1       4.109   2.903  19.017  0.00  0.00    +0.000 C 
ATOM      9  O   UNL     1       4.861   2.673  19.960  0.00  0.00    +0.000 OA
BRANCH   8  10
ATOM     10  O   UNL     1       3.280   1.968  18.476  0.00  0.00    +0.000 OA
ATOM     11  C   UNL     1       2.003   1.900  19.112  0.00  0.00    +0.000 C 
ENDBRANCH   8  10
ENDBRANCH   7   8
BRANCH   1  12
ATOM     12  C   UNL     1       5.620   4.028  16.250  0.00  0.00    +0.000 C 
BRANCH  12  13
ATOM     13  C   UNL     1       6.742   4.971  15.821  0.00  0.00    +0.000 C 
BRANCH  13  14
ATOM     14  C   UNL     1       7.039   4.840  14.348  0.00  0.00    +0.000 C 
ATOM     15  O   UNL     1       7.897   5.463  13.736  0.00  0.00    +0.000 OA
BRANCH  14  17
ATOM     16  C   UNL     1       6.476   3.604  12.433  0.00  0.00    +0.000 C 
ATOM     17  O   UNL     1       6.199   3.918  13.798  0.00  0.00    +0.000 OA
ENDBRANCH  14  17
ENDBRANCH  13  14
ENDBRANCH  12  13
ENDBRANCH   1  12
TORSDOF 6
ENDMDL
MODEL 4
REMARK VINA RESULT:      -6.1      2.189      5.160
REMARK  Name = 
REMARK  10 active torsions:
REMARK  status: ('A' for Active; 'I' for Inactive)
REMARK    1  A    between atoms: C_1  and  O_2
REMARK    2  A    between atoms: O_2  and  C_3
REMARK    3  A    between atoms: C_3  and  C_5
REMARK    4  A    between atoms: C_5  and  C_6
REMARK    5  A    between atoms: C_6  and  C_7
REMARK    6  A    between atoms: C_9  and  C_10
REMARK    7  A    between atoms: C_11  and  C_12
REMARK    8  A    between atoms: C_13  and  C_14
REMARK    9  A    between atoms: C_14  and  O_16
REMARK   10  A    between atoms: O_16  and  C_17
REMARK                            x       y       z     vdW  Elec       q    Type
REMARK                         _______ _______ _______ _____ _____    ______ ____
ROOT
ATOM      1  C   UNL     1       2.874   5.815  19.607  0.00  0.00    +0.000 A 
ATOM      2  O   UNL     1       2.219   6.983  19.332  0.00  0.00    +0.000 OA
ATOM      3  C   UNL     1       2.769   7.513  18.210  0.00  0.00    +0.000 A 
ATOM      4  C   UNL     1       2.185   8.776  17.708  0.00  0.00    +0.000 C 
ATOM      5  C   UNL     1       3.797   6.715  17.755  0.00  0.00    +0.000 A 
ATOM      6  C   UNL     1       4.639   6.944  16.551  0.00  0.00    +0.000 C 
ATOM      7  C   UNL     1       3.884   5.608  18.674  0.00  0.00    +0.000 A 
ENDROOT
BRANCH   7   8
ATOM      8  C   UNL     1       4.843   4.511  18.599  0.00  0.00    +0.000 C 
ATOM      9  O   UNL     1       4.747   3.602  17.781  0.00  0.00    +0.000 OA
BRANCH   8  10
ATOM     10  O   UNL     1       5.847   4.590  19.517  0.00  0.00    +0.000 OA
ATOM     11  C   UNL     1       6.889   5.494  19.147  0.00  0.00    +0.000 C 
ENDBRANCH   8  10
ENDBRANCH   7   8
BRANCH   1  12
ATOM     12  C   UNL     1       2.391   5.066  20.810  0.00  0.00    +0.000 C 
BRANCH  12  13
ATOM     13  C   UNL     1       1.179   4.182  20.520  0.00  0.00    +0.000 C 
BRANCH  13  14
ATOM     14  C   UNL     1       1.431   2.751  20.926  0.00  0.00    +0.000 C 
ATOM     15  O   UNL     1       1.836   2.382  22.021  0.00  0.00    +0.000 OA
BRANCH  14  17
ATOM     16  C   UNL     1       1.541   2.420  18.604  0.00  0.00    +0.000 C 
ATOM     17  O   UNL     1       1.137   1.926  19.881  0.00  0.00    +0.000 OA
ENDBRANCH  14  17
ENDBRANCH  13  14
ENDBRANCH  12  13
ENDBRANCH   1  12
TORSDOF 6
ENDMDL
MODEL 5
REMARK VINA RESULT:      -6.0      1.417      1.844
REMARK  Name = 
REMARK  10 active torsions:
REMARK  status: ('A' for Active; 'I' for Inactive)
REMARK    1  A    between atoms: C_1  and  O_2
REMARK    2  A    between atoms: O_2  and  C_3
REMARK    3  A    between atoms: C_3  and  C_5
REMARK    4  A    between atoms: C_5  and  C_6
REMARK    5  A    between atoms: C_6  and  C_7
REMARK    6  A    between atoms: C_9  and  C_10
REMARK    7  A    between atoms: C_11  and  C_12
REMARK    8  A    between atoms: C_13  and  C_14
REMARK    9  A    between atoms: C_14  and  O_16
REMARK   10  A    between atoms: O_16  and  C_17
REMARK                            x       y       z     vdW  Elec       q    Type
REMARK                         _______ _______ _______ _____ _____    ______ ____
ROOT
ATOM      1  C   UNL     1       4.774   4.786  18.908  0.00  0.00    +0.000 A 
ATOM      2  O   UNL     1       4.231   6.041  18.892  0.00  0.00    +0.000 OA
ATOM      3  C   UNL     1       3.038   5.986  19.538  0.00  0.00    +0.000 A 
ATOM      4  C   UNL     1       2.286   7.253  19.667  0.00  0.00    +0.000 C 
ATOM      5  C   UNL     1       2.780   4.700  19.962  0.00  0.00    +0.000 A 
ATOM      6  C   UNL     1       1.586   4.231  20.714  0.00  0.00    +0.000 C 
ATOM      7  C   UNL     1       3.904   3.903  19.539  0.00  0.00    +0.000 A 
ENDROOT
BRANCH   7   8
ATOM      8  C   UNL     1       4.063   2.470  19.757  0.00  0.00    +0.000 C 
ATOM      9  O   UNL     1       4.968   1.999  20.439  0.00  0.00    +0.000 OA
BRANCH   8  10
ATOM     10  O   UNL     1       3.120   1.707  19.135  0.00  0.00    +0.000 OA
ATOM     11  C   UNL     1       3.046   1.928  17.726  0.00  0.00    +0.000 C 
ENDBRANCH   8  10
ENDBRANCH   7   8
BRANCH   1  12
ATOM     12  C   UNL     1       6.113   4.648  18.255  0.00  0.00    +0.000 C 
BRANCH  12  13
ATOM     13  C   UNL     1       6.041   4.658  16.729  0.00  0.00    +0.000 C 
BRANCH  13  14
ATOM     14  C   UNL     1       7.061   5.598  16.135  0.00  0.00    +0.000 C 
ATOM     15  O   UNL     1       7.490   6.612  16.669  0.00  0.00    +0.000 OA
BRANCH  14  17
ATOM     16  C   UNL     1       6.464   4.314  14.262  0.00  0.00    +0.000 C 
ATOM     17  O   UNL     1       7.433   5.143  14.905  0.00  0.00    +0.000 OA
ENDBRANCH  14  17
ENDBRANCH  13  14
ENDBRANCH  12  13
ENDBRANCH   1  12
TORSDOF 6
ENDMDL
MODEL 6
REMARK VINA RESULT:      -6.0      1.467      2.083
REMARK  Name = 
REMARK  10 active torsions:
REMARK  status: ('A' for Active; 'I' for Inactive)
REMARK    1  A    between atoms: C_1  and  O_2
REMARK    2  A    between atoms: O_2  and  C_3
REMARK    3  A    between atoms: C_3  and  C_5
REMARK    4  A    between atoms: C_5  and  C_6
REMARK    5  A    between atoms: C_6  and  C_7
REMARK    6  A    between atoms: C_9  and  C_10
REMARK    7  A    between atoms: C_11  and  C_12
REMARK    8  A    between atoms: C_13  and  C_14
REMARK    9  A    between atoms: C_14  and  O_16
REMARK   10  A    between atoms: O_16  and  C_17
REMARK                            x       y       z     vdW  Elec       q    Type
REMARK                         _______ _______ _______ _____ _____    ______ ____
ROOT
ATOM      1  C   UNL     1       3.611   5.815  18.006  0.00  0.00    +0.000 A 
ATOM      2  O   UNL     1       3.230   6.939  18.683  0.00  0.00    +0.000 OA
ATOM      3  C   UNL     1       2.320   6.572  19.621  0.00  0.00    +0.000 A 
ATOM      4  C   UNL     1       1.792   7.639  20.499  0.00  0.00    +0.000 C 
ATOM      5  C   UNL     1       2.082   5.215  19.554  0.00  0.00    +0.000 A 
ATOM      6  C   UNL     1       1.162   4.427  20.416  0.00  0.00    +0.000 C 
ATOM      7  C   UNL     1       2.911   4.713  18.487  0.00  0.00    +0.000 A 
ENDROOT
BRANCH   7   8
ATOM      8  C   UNL     1       2.980   3.326  18.042  0.00  0.00    +0.000 C 
ATOM      9  O   UNL     1       2.064   2.779  17.436  0.00  0.00    +0.000 OA
BRANCH   8  10
ATOM     10  O   UNL     1       4.147   2.700  18.361  0.00  0.00    +0.000 OA
ATOM     11  C   UNL     1       4.257   2.368  19.746  0.00  0.00    +0.000 C 
ENDBRANCH   8  10
ENDBRANCH   7   8
BRANCH   1  12
ATOM     12  C   UNL     1       4.636   6.016  16.934  0.00  0.00    +0.000 C 
BRANCH  12  13
ATOM     13  C   UNL     1       6.071   5.914  17.448  0.00  0.00    +0.000 C 
BRANCH  13  14
ATOM     14  C   UNL     1       6.967   5.228  16.447  0.00  0.00    +0.000 C 
ATOM     15  O   UNL     1       7.860   4.436  16.717  0.00  0.00    +0.000 OA
BRANCH  14  17
ATOM     16  C   UNL     1       6.752   4.615  14.191  0.00  0.00    +0.000 C 
ATOM     17  O   UNL     1       6.630   5.629  15.189  0.00  0.00    +0.000 OA
ENDBRANCH  14  17
ENDBRANCH  13  14
ENDBRANCH  12  13
ENDBRANCH   1  12
TORSDOF 6
ENDMDL
MODEL 7
REMARK VINA RESULT:      -6.0      0.965      1.460
REMARK  Name = 
REMARK  10 active torsions:
REMARK  status: ('A' for Active; 'I' for Inactive)
REMARK    1  A    between atoms: C_1  and  O_2
REMARK    2  A    between atoms: O_2  and  C_3
REMARK    3  A    between atoms: C_3  and  C_5
REMARK    4  A    between atoms: C_5  and  C_6
REMARK    5  A    between atoms: C_6  and  C_7
REMARK    6  A    between atoms: C_9  and  C_10
REMARK    7  A    between atoms: C_11  and  C_12
REMARK    8  A    between atoms: C_13  and  C_14
REMARK    9  A    between atoms: C_14  and  O_16
REMARK   10  A    between atoms: O_16  and  C_17
REMARK                            x       y       z     vdW  Elec       q    Type
REMARK                         _______ _______ _______ _____ _____    ______ ____
ROOT
ATOM      1  C   UNL     1       3.882   4.636  17.300  0.00  0.00    +0.000 A 
ATOM      2  O   UNL     1       3.705   5.988  17.394  0.00  0.00    +0.000 OA
ATOM      3  C   UNL     1       2.806   6.222  18.383  0.00  0.00    +0.000 A 
ATOM      4  C   UNL     1       2.488   7.636  18.680  0.00  0.00    +0.000 C 
ATOM      5  C   UNL     1       2.372   5.033  18.929  0.00  0.00    +0.000 A 
ATOM      6  C   UNL     1       1.398   4.864  20.040  0.00  0.00    +0.000 C 
ATOM      7  C   UNL     1       3.059   3.987  18.214  0.00  0.00    +0.000 A 
ENDROOT
BRANCH   7   8
ATOM      8  C   UNL     1       2.902   2.555  18.441  0.00  0.00    +0.000 C 
ATOM      9  O   UNL     1       1.844   1.965  18.247  0.00  0.00    +0.000 OA
BRANCH   8  10
ATOM     10  O   UNL     1       4.033   1.938  18.886  0.00  0.00    +0.000 OA
ATOM     11  C   UNL     1       4.338   2.224  20.252  0.00  0.00    +0.000 C 
ENDBRANCH   8  10
ENDBRANCH   7   8
BRANCH   1  12
ATOM     12  C   UNL     1       4.863   4.178  16.266  0.00  0.00    +0.000 C 
BRANCH  12  13
ATOM     13  C   UNL     1       5.460   5.326  15.454  0.00  0.00    +0.000 C 
BRANCH  13  14
ATOM     14  C   UNL     1       6.967   5.317  15.514  0.00  0.00    +0.000 C 
ATOM     15  O   UNL     1       7.718   5.340  14.548  0.00  0.00    +0.000 OA
BRANCH  14  17
ATOM     16  C   UNL     1       7.382   6.550  17.468  0.00  0.00    +0.000 C 
ATOM     17  O   UNL     1       7.368   5.280  16.816  0.00  0.00    +0.000 OA
ENDBRANCH  14  17
ENDBRANCH  13  14
ENDBRANCH  12  13
ENDBRANCH   1  12
TORSDOF 6
ENDMDL
MODEL 8
REMARK VINA RESULT:      -6.0      1.478      1.731
REMARK  Name = 
REMARK  10 active torsions:
REMARK  status: ('A' for Active; 'I' for Inactive)
REMARK    1  A    between atoms: C_1  and  O_2
REMARK    2  A    between atoms: O_2  and  C_3
REMARK    3  A    between atoms: C_3  and  C_5
REMARK    4  A    between atoms: C_5  and  C_6
REMARK    5  A    between atoms: C_6  and  C_7
REMARK    6  A    between atoms: C_9  and  C_10
REMARK    7  A    between atoms: C_11  and  C_12
REMARK    8  A    between atoms: C_13  and  C_14
REMARK    9  A    between atoms: C_14  and  O_16
REMARK   10  A    between atoms: O_16  and  C_17
REMARK                            x       y       z     vdW  Elec       q    Type
REMARK                         _______ _______ _______ _____ _____    ______ ____
ROOT
ATOM      1  C   UNL     1       3.937   5.007  18.824  0.00  0.00    +0.000 A 
ATOM      2  O   UNL     1       3.174   6.074  19.208  0.00  0.00    +0.000 OA
ATOM      3  C   UNL     1       2.364   5.663  20.217  0.00  0.00    +0.000 A 
ATOM      4  C   UNL     1       1.466   6.677  20.811  0.00  0.00    +0.000 C 
ATOM      5  C   UNL     1       2.571   4.327  20.487  0.00  0.00    +0.000 A 
ATOM      6  C   UNL     1       1.889   3.511  21.526  0.00  0.00    +0.000 C 
ATOM      7  C   UNL     1       3.589   3.884  19.568  0.00  0.00    +0.000 A 
ENDROOT
BRANCH   7   8
ATOM      8  C   UNL     1       4.123   2.530  19.476  0.00  0.00    +0.000 C 
ATOM      9  O   UNL     1       4.808   2.027  20.362  0.00  0.00    +0.000 OA
BRANCH   8  10
ATOM     10  O   UNL     1       3.796   1.883  18.323  0.00  0.00    +0.000 OA
ATOM     11  C   UNL     1       2.420   2.017  17.964  0.00  0.00    +0.000 C 
ENDBRANCH   8  10
ENDBRANCH   7   8
BRANCH   1  12
ATOM     12  C   UNL     1       4.918   5.270  17.725  0.00  0.00    +0.000 C 
BRANCH  12  13
ATOM     13  C   UNL     1       6.278   5.745  18.234  0.00  0.00    +0.000 C 
BRANCH  13  14
ATOM     14  C   UNL     1       7.358   5.532  17.203  0.00  0.00    +0.000 C 
ATOM     15  O   UNL     1       7.879   4.459  16.928  0.00  0.00    +0.000 OA
BRANCH  14  17
ATOM     16  C   UNL     1       7.705   7.832  17.522  0.00  0.00    +0.000 C 
ATOM     17  O   UNL     1       7.669   6.725  16.621  0.00  0.00    +0.000 OA
ENDBRANCH  14  17
ENDBRANCH  13  14
ENDBRANCH  12  13
ENDBRANCH   1  12
TORSDOF 6
ENDMDL
MODEL 9
REMARK VINA RESULT:      -6.0      1.804      2.442
REMARK  Name = 
REMARK  10 active torsions:
REMARK  status: ('A' for Active; 'I' for Inactive)
REMARK    1  A    between atoms: C_1  and  O_2
REMARK    2  A    between atoms: O_2  and  C_3
REMARK    3  A    between atoms: C_3  and  C_5
REMARK    4  A    between atoms: C_5  and  C_6
REMARK    5  A    between atoms: C_6  and  C_7
REMARK    6  A    between atoms: C_9  and  C_10
REMARK    7  A    between atoms: C_11  and  C_12
REMARK    8  A    between atoms: C_13  and  C_14
REMARK    9  A    between atoms: C_14  and  O_16
REMARK   10  A    between atoms: O_16  and  C_17
REMARK                            x       y       z     vdW  Elec       q    Type
REMARK                         _______ _______ _______ _____ _____    ______ ____
ROOT
ATOM      1  C   UNL     1       4.669   6.226  17.364  0.00  0.00    +0.000 A 
ATOM      2  O   UNL     1       3.893   7.333  17.164  0.00  0.00    +0.000 OA
ATOM      3  C   UNL     1       2.934   7.348  18.125  0.00  0.00    +0.000 A 
ATOM      4  C   UNL     1       1.994   8.489  18.118  0.00  0.00    +0.000 C 
ATOM      5  C   UNL     1       3.059   6.246  18.945  0.00  0.00    +0.000 A 
ATOM      6  C   UNL     1       2.211   5.907  20.118  0.00  0.00    +0.000 C 
ATOM      7  C   UNL     1       4.183   5.496  18.444  0.00  0.00    +0.000 A 
ENDROOT
BRANCH   7   8
ATOM      8  C   UNL     1       4.682   4.240  18.991  0.00  0.00    +0.000 C 
ATOM      9  O   UNL     1       5.825   4.111  19.419  0.00  0.00    +0.000 OA
BRANCH   8  10
ATOM     10  O   UNL     1       3.767   3.230  18.982  0.00  0.00    +0.000 OA
ATOM     11  C   UNL     1       3.521   2.695  17.681  0.00  0.00    +0.000 C 
ENDBRANCH   8  10
ENDBRANCH   7   8
BRANCH   1  12
ATOM     12  C   UNL     1       5.804   6.045  16.405  0.00  0.00    +0.000 C 
BRANCH  12  13
ATOM     13  C   UNL     1       5.424   5.227  15.172  0.00  0.00    +0.000 C 
BRANCH  13  14
ATOM     14  C   UNL     1       6.645   4.807  14.391  0.00  0.00    +0.000 C 
ATOM     15  O   UNL     1       7.692   5.436  14.314  0.00  0.00    +0.000 OA
BRANCH  14  17
ATOM     16  C   UNL     1       6.549   3.634  12.360  0.00  0.00    +0.000 C 
ATOM     17  O   UNL     1       6.402   3.613  13.780  0.00  0.00    +0.000 OA
ENDBRANCH  14  17
ENDBRANCH  13  14
ENDBRANCH  12  13
ENDBRANCH   1  12
TORSDOF 6
ENDMDL
