MODEL 1
REMARK VINA RESULT:      -7.6      0.000      0.000
REMARK  Name = 
REMARK  7 active torsions:
REMARK  status: ('A' for Active; 'I' for Inactive)
REMARK    1  A    between atoms: C_1  and  C_2
REMARK    2  A    between atoms: C_2  and  C_3
REMARK    3  A    between atoms: C_2  and  C_4
REMARK    4  A    between atoms: C_4  and  N_5
REMARK    5  A    between atoms: C_6  and  C_8
REMARK    6  A    between atoms: C_20  and  C_21
REMARK    7  A    between atoms: C_20  and  C_22
REMARK                            x       y       z     vdW  Elec       q    Type
REMARK                         _______ _______ _______ _____ _____    ______ ____
ROOT
ATOM      1  C   UNL     1       3.044   2.937  19.231  0.00  0.00    +0.000 C 
ATOM      2  N   UNL     1       3.710   4.016  20.064  0.00  0.00    +0.000 N 
ATOM      3  C   UNL     1       4.823   4.680  19.541  0.00  0.00    +0.000 C 
ATOM      4  O   UNL     1       5.959   4.259  19.436  0.00  0.00    +0.000 OA
ATOM      5  C   UNL     1       4.350   5.939  18.985  0.00  0.00    +0.000 A 
ATOM      6  C   UNL     1       4.807   6.544  17.834  0.00  0.00    +0.000 A 
ATOM      7  C   UNL     1       3.941   7.441  17.214  0.00  0.00    +0.000 A 
ATOM      8  C   UNL     1       2.698   7.756  17.795  0.00  0.00    +0.000 A 
ATOM      9  C   UNL     1       2.278   7.155  18.988  0.00  0.00    +0.000 A 
ATOM     10  C   UNL     1       3.095   6.180  19.535  0.00  0.00    +0.000 A 
ATOM     11  C   UNL     1       2.778   5.061  20.489  0.00  0.00    +0.000 C 
ATOM     12  S   UNL     1       1.129   4.393  20.337  0.00  0.00    +0.000 S 
ATOM     13  C   UNL     1       1.577   3.370  18.882  0.00  0.00    +0.000 C 
ATOM     14  C   UNL     1       1.443   4.218  17.604  0.00  0.00    +0.000 C 
ATOM     15  C   UNL     1       0.568   2.223  18.828  0.00  0.00    +0.000 C 
ENDROOT
BRANCH   1  17
ATOM     16  N   UNL     1       4.495   3.288  17.248  0.00  0.00    +0.000 N 
ATOM     17  C   UNL     1       3.799   2.362  17.981  0.00  0.00    +0.000 C 
ATOM     18  O   UNL     1       3.904   1.154  17.756  0.00  0.00    +0.000 OA
ATOM     19  H   UNL     1       4.282   4.267  17.428  0.00  0.00    +0.000 HD
BRANCH  16  20
ATOM     20  C   UNL     1       5.125   3.053  15.965  0.00  0.00    +0.000 C 
BRANCH  20  22
ATOM     21  C   UNL     1       7.212   4.497  16.251  0.00  0.00    +0.000 C 
ATOM     22  C   UNL     1       5.890   4.302  15.497  0.00  0.00    +0.000 C 
ATOM     23  C   UNL     1       6.143   4.232  13.991  0.00  0.00    +0.000 C 
ENDBRANCH  20  22
ENDBRANCH  16  20
ENDBRANCH   1  17
TORSDOF 3
ENDMDL
MODEL 2
REMARK VINA RESULT:      -6.9      1.897      4.145
REMARK  Name = 
REMARK  7 active torsions:
REMARK  status: ('A' for Active; 'I' for Inactive)
REMARK    1  A    between atoms: C_1  and  C_2
REMARK    2  A    between atoms: C_2  and  C_3
REMARK    3  A    between atoms: C_2  and  C_4
REMARK    4  A    between atoms: C_4  and  N_5
REMARK    5  A    between atoms: C_6  and  C_8
REMARK    6  A    between atoms: C_20  and  C_21
REMARK    7  A    between atoms: C_20  and  C_22
REMARK                            x       y       z     vdW  Elec       q    Type
REMARK                         _______ _______ _______ _____ _____    ______ ____
ROOT
ATOM      1  C   UNL     1       3.784   4.524  17.470  0.00  0.00    +0.000 C 
ATOM      2  N   UNL     1       2.826   3.348  17.429  0.00  0.00    +0.000 N 
ATOM      3  C   UNL     1       3.148   2.192  18.146  0.00  0.00    +0.000 C 
ATOM      4  O   UNL     1       3.974   1.346  17.863  0.00  0.00    +0.000 OA
ATOM      5  C   UNL     1       2.417   2.251  19.403  0.00  0.00    +0.000 A 
ATOM      6  C   UNL     1       2.879   1.834  20.634  0.00  0.00    +0.000 A 
ATOM      7  C   UNL     1       2.271   2.396  21.752  0.00  0.00    +0.000 A 
ATOM      8  C   UNL     1       1.188   3.286  21.609  0.00  0.00    +0.000 A 
ATOM      9  C   UNL     1       0.715   3.660  20.346  0.00  0.00    +0.000 A 
ATOM     10  C   UNL     1       1.399   3.185  19.239  0.00  0.00    +0.000 A 
ATOM     11  C   UNL     1       1.467   3.709  17.832  0.00  0.00    +0.000 C 
ATOM     12  S   UNL     1       1.326   5.483  17.687  0.00  0.00    +0.000 S 
ATOM     13  C   UNL     1       3.081   5.753  18.145  0.00  0.00    +0.000 C 
ATOM     14  C   UNL     1       3.204   5.803  19.679  0.00  0.00    +0.000 C 
ATOM     15  C   UNL     1       3.478   7.113  17.567  0.00  0.00    +0.000 C 
ENDROOT
BRANCH   1  17
ATOM     16  N   UNL     1       6.222   4.966  17.327  0.00  0.00    +0.000 N 
ATOM     17  C   UNL     1       5.238   4.306  18.017  0.00  0.00    +0.000 C 
ATOM     18  O   UNL     1       5.477   3.726  19.079  0.00  0.00    +0.000 OA
ATOM     19  H   UNL     1       5.969   5.336  16.414  0.00  0.00    +0.000 HD
BRANCH  16  20
ATOM     20  C   UNL     1       7.648   4.798  17.516  0.00  0.00    +0.000 C 
BRANCH  20  22
ATOM     21  C   UNL     1       7.654   7.321  17.911  0.00  0.00    +0.000 C 
ATOM     22  C   UNL     1       8.231   5.963  18.333  0.00  0.00    +0.000 C 
ATOM     23  C   UNL     1       8.002   5.728  19.825  0.00  0.00    +0.000 C 
ENDBRANCH  20  22
ENDBRANCH  16  20
ENDBRANCH   1  17
TORSDOF 3
ENDMDL
MODEL 3
REMARK VINA RESULT:      -6.7      2.690      5.634
REMARK  Name = 
REMARK  7 active torsions:
REMARK  status: ('A' for Active; 'I' for Inactive)
REMARK    1  A    between atoms: C_1  and  C_2
REMARK    2  A    between atoms: C_2  and  C_3
REMARK    3  A    between atoms: C_2  and  C_4
REMARK    4  A    between atoms: C_4  and  N_5
REMARK    5  A    between atoms: C_6  and  C_8
REMARK    6  A    between atoms: C_20  and  C_21
REMARK    7  A    between atoms: C_20  and  C_22
REMARK                            x       y       z     vdW  Elec       q    Type
REMARK                         _______ _______ _______ _____ _____    ______ ____
ROOT
ATOM      1  C   UNL     1       3.887   6.368  18.606  0.00  0.00    +0.000 C 
ATOM      2  N   UNL     1       3.826   5.552  19.883  0.00  0.00    +0.000 N 
ATOM      3  C   UNL     1       2.576   5.168  20.379  0.00  0.00    +0.000 C 
ATOM      4  O   UNL     1       1.759   5.861  20.952  0.00  0.00    +0.000 OA
ATOM      5  C   UNL     1       2.346   3.798  19.945  0.00  0.00    +0.000 A 
ATOM      6  C   UNL     1       1.140   3.263  19.544  0.00  0.00    +0.000 A 
ATOM      7  C   UNL     1       1.197   2.136  18.728  0.00  0.00    +0.000 A 
ATOM      8  C   UNL     1       2.434   1.545  18.407  0.00  0.00    +0.000 A 
ATOM      9  C   UNL     1       3.641   2.089  18.863  0.00  0.00    +0.000 A 
ATOM     10  C   UNL     1       3.581   3.274  19.577  0.00  0.00    +0.000 A 
ATOM     11  C   UNL     1       4.627   4.329  19.813  0.00  0.00    +0.000 C 
ATOM     12  S   UNL     1       5.794   4.536  18.478  0.00  0.00    +0.000 S 
ATOM     13  C   UNL     1       4.626   5.549  17.491  0.00  0.00    +0.000 C 
ATOM     14  C   UNL     1       3.718   4.620  16.666  0.00  0.00    +0.000 C 
ATOM     15  C   UNL     1       5.478   6.391  16.539  0.00  0.00    +0.000 C 
ENDROOT
BRANCH   1  17
ATOM     16  N   UNL     1       2.588   8.413  18.065  0.00  0.00    +0.000 N 
ATOM     17  C   UNL     1       2.576   7.042  18.067  0.00  0.00    +0.000 C 
ATOM     18  O   UNL     1       1.665   6.406  17.531  0.00  0.00    +0.000 OA
ATOM     19  H   UNL     1       3.319   8.864  18.611  0.00  0.00    +0.000 HD
BRANCH  16  20
ATOM     20  C   UNL     1       1.453   9.269  17.786  0.00  0.00    +0.000 C 
BRANCH  20  22
ATOM     21  C   UNL     1      -0.069  11.081  18.745  0.00  0.00    +0.000 C 
ATOM     22  C   UNL     1       1.128  10.156  18.999  0.00  0.00    +0.000 C 
ATOM     23  C   UNL     1       0.878   9.290  20.233  0.00  0.00    +0.000 C 
ENDBRANCH  20  22
ENDBRANCH  16  20
ENDBRANCH   1  17
TORSDOF 3
ENDMDL
MODEL 4
REMARK VINA RESULT:      -6.6      2.349      4.255
REMARK  Name = 
REMARK  7 active torsions:
REMARK  status: ('A' for Active; 'I' for Inactive)
REMARK    1  A    between atoms: C_1  and  C_2
REMARK    2  A    between atoms: C_2  and  C_3
REMARK    3  A    between atoms: C_2  and  C_4
REMARK    4  A    between atoms: C_4  and  N_5
REMARK    5  A    between atoms: C_6  and  C_8
REMARK    6  A    between atoms: C_20  and  C_21
REMARK    7  A    between atoms: C_20  and  C_22
REMARK                            x       y       z     vdW  Elec       q    Type
REMARK                         _______ _______ _______ _____ _____    ______ ____
ROOT
ATOM      1  C   UNL     1       5.089   3.406  18.081  0.00  0.00    +0.000 C 
ATOM      2  N   UNL     1       4.559   2.191  18.818  0.00  0.00    +0.000 N 
ATOM      3  C   UNL     1       4.375   2.270  20.202  0.00  0.00    +0.000 C 
ATOM      4  O   UNL     1       5.228   2.246  21.068  0.00  0.00    +0.000 OA
ATOM      5  C   UNL     1       2.966   2.549  20.433  0.00  0.00    +0.000 A 
ATOM      6  C   UNL     1       2.448   3.371  21.411  0.00  0.00    +0.000 A 
ATOM      7  C   UNL     1       1.177   3.890  21.182  0.00  0.00    +0.000 A 
ATOM      8  C   UNL     1       0.445   3.517  20.038  0.00  0.00    +0.000 A 
ATOM      9  C   UNL     1       0.983   2.648  19.081  0.00  0.00    +0.000 A 
ATOM     10  C   UNL     1       2.290   2.228  19.260  0.00  0.00    +0.000 A 
ATOM     11  C   UNL     1       3.293   1.703  18.270  0.00  0.00    +0.000 C 
ATOM     12  S   UNL     1       3.138   2.371  16.622  0.00  0.00    +0.000 S 
ATOM     13  C   UNL     1       4.008   3.923  17.068  0.00  0.00    +0.000 C 
ATOM     14  C   UNL     1       2.996   4.920  17.660  0.00  0.00    +0.000 C 
ATOM     15  C   UNL     1       4.573   4.496  15.767  0.00  0.00    +0.000 C 
ENDROOT
BRANCH   1  17
ATOM     16  N   UNL     1       6.914   5.058  18.403  0.00  0.00    +0.000 N 
ATOM     17  C   UNL     1       5.730   4.579  18.903  0.00  0.00    +0.000 C 
ATOM     18  O   UNL     1       5.147   5.147  19.830  0.00  0.00    +0.000 OA
ATOM     19  H   UNL     1       7.381   4.482  17.707  0.00  0.00    +0.000 HD
BRANCH  16  20
ATOM     20  C   UNL     1       7.788   6.007  19.060  0.00  0.00    +0.000 C 
BRANCH  20  22
ATOM     21  C   UNL     1       6.918   7.580  17.247  0.00  0.00    +0.000 C 
ATOM     22  C   UNL     1       8.110   7.187  18.129  0.00  0.00    +0.000 C 
ATOM     23  C   UNL     1       8.587   8.388  18.944  0.00  0.00    +0.000 C 
ENDBRANCH  20  22
ENDBRANCH  16  20
ENDBRANCH   1  17
TORSDOF 3
ENDMDL
MODEL 5
REMARK VINA RESULT:      -6.5      2.684      5.325
REMARK  Name = 
REMARK  7 active torsions:
REMARK  status: ('A' for Active; 'I' for Inactive)
REMARK    1  A    between atoms: C_1  and  C_2
REMARK    2  A    between atoms: C_2  and  C_3
REMARK    3  A    between atoms: C_2  and  C_4
REMARK    4  A    between atoms: C_4  and  N_5
REMARK    5  A    between atoms: C_6  and  C_8
REMARK    6  A    between atoms: C_20  and  C_21
REMARK    7  A    between atoms: C_20  and  C_22
REMARK                            x       y       z     vdW  Elec       q    Type
REMARK                         _______ _______ _______ _____ _____    ______ ____
ROOT
ATOM      1  C   UNL     1       1.710   4.542  19.332  0.00  0.00    +0.000 C 
ATOM      2  N   UNL     1       1.968   5.042  17.924  0.00  0.00    +0.000 N 
ATOM      3  C   UNL     1       2.682   6.232  17.752  0.00  0.00    +0.000 C 
ATOM      4  O   UNL     1       2.288   7.368  17.931  0.00  0.00    +0.000 OA
ATOM      5  C   UNL     1       4.061   5.867  17.463  0.00  0.00    +0.000 A 
ATOM      6  C   UNL     1       5.188   6.526  17.905  0.00  0.00    +0.000 A 
ATOM      7  C   UNL     1       6.367   5.789  17.948  0.00  0.00    +0.000 A 
ATOM      8  C   UNL     1       6.399   4.459  17.484  0.00  0.00    +0.000 A 
ATOM      9  C   UNL     1       5.246   3.829  17.002  0.00  0.00    +0.000 A 
ATOM     10  C   UNL     1       4.055   4.532  17.070  0.00  0.00    +0.000 A 
ATOM     11  C   UNL     1       2.631   4.047  17.081  0.00  0.00    +0.000 C 
ATOM     12  S   UNL     1       2.389   2.455  17.851  0.00  0.00    +0.000 S 
ATOM     13  C   UNL     1       2.430   3.163  19.542  0.00  0.00    +0.000 C 
ATOM     14  C   UNL     1       3.891   3.265  20.016  0.00  0.00    +0.000 C 
ATOM     15  C   UNL     1       1.679   2.181  20.444  0.00  0.00    +0.000 C 
ENDROOT
BRANCH   1  17
ATOM     16  N   UNL     1       1.268   6.705  20.465  0.00  0.00    +0.000 N 
ATOM     17  C   UNL     1       1.941   5.513  20.542  0.00  0.00    +0.000 C 
ATOM     18  O   UNL     1       2.543   5.181  21.567  0.00  0.00    +0.000 OA
ATOM     19  H   UNL     1       0.879   6.952  19.557  0.00  0.00    +0.000 HD
BRANCH  16  20
ATOM     20  C   UNL     1       1.442   7.836  21.353  0.00  0.00    +0.000 C 
BRANCH  20  22
ATOM     21  C   UNL     1      -0.009   9.340  22.821  0.00  0.00    +0.000 C 
ATOM     22  C   UNL     1       0.143   8.652  21.458  0.00  0.00    +0.000 C 
ATOM     23  C   UNL     1       0.076   9.683  20.332  0.00  0.00    +0.000 C 
ENDBRANCH  20  22
ENDBRANCH  16  20
ENDBRANCH   1  17
TORSDOF 3
ENDMDL
MODEL 6
REMARK VINA RESULT:      -6.5      2.173      3.154
REMARK  Name = 
REMARK  7 active torsions:
REMARK  status: ('A' for Active; 'I' for Inactive)
REMARK    1  A    between atoms: C_1  and  C_2
REMARK    2  A    between atoms: C_2  and  C_3
REMARK    3  A    between atoms: C_2  and  C_4
REMARK    4  A    between atoms: C_4  and  N_5
REMARK    5  A    between atoms: C_6  and  C_8
REMARK    6  A    between atoms: C_20  and  C_21
REMARK    7  A    between atoms: C_20  and  C_22
REMARK                            x       y       z     vdW  Elec       q    Type
REMARK                         _______ _______ _______ _____ _____    ______ ____
ROOT
ATOM      1  C   UNL     1       5.538   3.892  16.928  0.00  0.00    +0.000 C 
ATOM      2  N   UNL     1       5.988   4.961  17.904  0.00  0.00    +0.000 N 
ATOM      3  C   UNL     1       5.992   6.296  17.486  0.00  0.00    +0.000 C 
ATOM      4  O   UNL     1       6.785   6.841  16.743  0.00  0.00    +0.000 OA
ATOM      5  C   UNL     1       4.765   6.903  17.981  0.00  0.00    +0.000 A 
ATOM      6  C   UNL     1       3.991   7.831  17.317  0.00  0.00    +0.000 A 
ATOM      7  C   UNL     1       2.657   7.924  17.704  0.00  0.00    +0.000 A 
ATOM      8  C   UNL     1       2.166   7.152  18.775  0.00  0.00    +0.000 A 
ATOM      9  C   UNL     1       2.987   6.246  19.456  0.00  0.00    +0.000 A 
ATOM     10  C   UNL     1       4.280   6.078  18.990  0.00  0.00    +0.000 A 
ATOM     11  C   UNL     1       5.241   4.933  19.162  0.00  0.00    +0.000 C 
ATOM     12  S   UNL     1       4.475   3.326  19.286  0.00  0.00    +0.000 S 
ATOM     13  C   UNL     1       4.242   3.194  17.472  0.00  0.00    +0.000 C 
ATOM     14  C   UNL     1       2.924   3.885  17.077  0.00  0.00    +0.000 C 
ATOM     15  C   UNL     1       4.138   1.701  17.154  0.00  0.00    +0.000 C 
ENDROOT
BRANCH   1  17
ATOM     16  N   UNL     1       6.176   3.476  14.566  0.00  0.00    +0.000 N 
ATOM     17  C   UNL     1       5.416   4.248  15.405  0.00  0.00    +0.000 C 
ATOM     18  O   UNL     1       4.583   5.046  14.966  0.00  0.00    +0.000 OA
ATOM     19  H   UNL     1       6.907   2.915  14.999  0.00  0.00    +0.000 HD
BRANCH  16  20
ATOM     20  C   UNL     1       6.378   3.708  13.151  0.00  0.00    +0.000 C 
BRANCH  20  22
ATOM     21  C   UNL     1       4.415   3.385  11.550  0.00  0.00    +0.000 C 
ATOM     22  C   UNL     1       5.562   2.710  12.313  0.00  0.00    +0.000 C 
ATOM     23  C   UNL     1       6.477   1.962  11.344  0.00  0.00    +0.000 C 
ENDBRANCH  20  22
ENDBRANCH  16  20
ENDBRANCH   1  17
TORSDOF 3
ENDMDL
MODEL 7
REMARK VINA RESULT:      -6.3      2.799      5.339
REMARK  Name = 
REMARK  7 active torsions:
REMARK  status: ('A' for Active; 'I' for Inactive)
REMARK    1  A    between atoms: C_1  and  C_2
REMARK    2  A    between atoms: C_2  and  C_3
REMARK    3  A    between atoms: C_2  and  C_4
REMARK    4  A    between atoms: C_4  and  N_5
REMARK    5  A    between atoms: C_6  and  C_8
REMARK    6  A    between atoms: C_20  and  C_21
REMARK    7  A    between atoms: C_20  and  C_22
REMARK                            x       y       z     vdW  Elec       q    Type
REMARK                         _______ _______ _______ _____ _____    ______ ____
ROOT
ATOM      1  C   UNL     1       3.037   5.555  17.754  0.00  0.00    +0.000 C 
ATOM      2  N   UNL     1       4.009   5.475  16.593  0.00  0.00    +0.000 N 
ATOM      3  C   UNL     1       4.819   6.581  16.316  0.00  0.00    +0.000 C 
ATOM      4  O   UNL     1       4.495   7.626  15.787  0.00  0.00    +0.000 OA
ATOM      5  C   UNL     1       6.117   6.325  16.921  0.00  0.00    +0.000 A 
ATOM      6  C   UNL     1       6.926   7.255  17.538  0.00  0.00    +0.000 A 
ATOM      7  C   UNL     1       7.853   6.768  18.455  0.00  0.00    +0.000 A 
ATOM      8  C   UNL     1       7.991   5.383  18.668  0.00  0.00    +0.000 A 
ATOM      9  C   UNL     1       7.181   4.459  17.997  0.00  0.00    +0.000 A 
ATOM     10  C   UNL     1       6.186   4.958  17.173  0.00  0.00    +0.000 A 
ATOM     11  C   UNL     1       4.911   4.327  16.686  0.00  0.00    +0.000 C 
ATOM     12  S   UNL     1       4.171   3.163  17.820  0.00  0.00    +0.000 S 
ATOM     13  C   UNL     1       3.425   4.491  18.841  0.00  0.00    +0.000 C 
ATOM     14  C   UNL     1       4.455   4.976  19.877  0.00  0.00    +0.000 C 
ATOM     15  C   UNL     1       2.237   3.863  19.572  0.00  0.00    +0.000 C 
ENDROOT
BRANCH   1  17
ATOM     16  N   UNL     1       2.095   7.842  17.552  0.00  0.00    +0.000 N 
ATOM     17  C   UNL     1       2.718   6.953  18.390  0.00  0.00    +0.000 C 
ATOM     18  O   UNL     1       2.860   7.194  19.592  0.00  0.00    +0.000 OA
ATOM     19  H   UNL     1       2.103   7.617  16.560  0.00  0.00    +0.000 HD
BRANCH  16  20
ATOM     20  C   UNL     1       1.851   9.242  17.833  0.00  0.00    +0.000 C 
BRANCH  20  22
ATOM     21  C   UNL     1       0.864  10.179  19.994  0.00  0.00    +0.000 C 
ATOM     22  C   UNL     1       0.588   9.414  18.693  0.00  0.00    +0.000 C 
ATOM     23  C   UNL     1      -0.507  10.112  17.888  0.00  0.00    +0.000 C 
ENDBRANCH  20  22
ENDBRANCH  16  20
ENDBRANCH   1  17
TORSDOF 3
ENDMDL
MODEL 8
REMARK VINA RESULT:      -6.2      1.783      3.855
REMARK  Name = 
REMARK  7 active torsions:
REMARK  status: ('A' for Active; 'I' for Inactive)
REMARK    1  A    between atoms: C_1  and  C_2
REMARK    2  A    between atoms: C_2  and  C_3
REMARK    3  A    between atoms: C_2  and  C_4
REMARK    4  A    between atoms: C_4  and  N_5
REMARK    5  A    between atoms: C_6  and  C_8
REMARK    6  A    between atoms: C_20  and  C_21
REMARK    7  A    between atoms: C_20  and  C_22
REMARK                            x       y       z     vdW  Elec       q    Type
REMARK                         _______ _______ _______ _____ _____    ______ ____
ROOT
ATOM      1  C   UNL     1       3.629   5.230  17.124  0.00  0.00    +0.000 C 
ATOM      2  N   UNL     1       2.215   4.780  17.438  0.00  0.00    +0.000 N 
ATOM      3  C   UNL     1       1.983   3.429  17.714  0.00  0.00    +0.000 C 
ATOM      4  O   UNL     1       1.950   2.504  16.926  0.00  0.00    +0.000 OA
ATOM      5  C   UNL     1       1.939   3.288  19.161  0.00  0.00    +0.000 A 
ATOM      6  C   UNL     1       2.440   2.232  19.892  0.00  0.00    +0.000 A 
ATOM      7  C   UNL     1       2.744   2.484  21.227  0.00  0.00    +0.000 A 
ATOM      8  C   UNL     1       2.473   3.742  21.799  0.00  0.00    +0.000 A 
ATOM      9  C   UNL     1       1.927   4.785  21.041  0.00  0.00    +0.000 A 
ATOM     10  C   UNL     1       1.735   4.560  19.688  0.00  0.00    +0.000 A 
ATOM     11  C   UNL     1       1.614   5.527  18.543  0.00  0.00    +0.000 C 
ATOM     12  S   UNL     1       2.552   7.034  18.735  0.00  0.00    +0.000 S 
ATOM     13  C   UNL     1       4.121   6.231  18.227  0.00  0.00    +0.000 C 
ATOM     14  C   UNL     1       4.773   5.568  19.453  0.00  0.00    +0.000 C 
ATOM     15  C   UNL     1       5.035   7.346  17.715  0.00  0.00    +0.000 C 
ENDROOT
BRANCH   1  17
ATOM     16  N   UNL     1       5.366   4.338  15.592  0.00  0.00    +0.000 N 
ATOM     17  C   UNL     1       4.716   4.151  16.785  0.00  0.00    +0.000 C 
ATOM     18  O   UNL     1       5.085   3.291  17.589  0.00  0.00    +0.000 OA
ATOM     19  H   UNL     1       4.945   4.997  14.941  0.00  0.00    +0.000 HD
BRANCH  16  20
ATOM     20  C   UNL     1       6.279   3.402  14.968  0.00  0.00    +0.000 C 
BRANCH  20  22
ATOM     21  C   UNL     1       5.083   3.777  12.743  0.00  0.00    +0.000 C 
ATOM     22  C   UNL     1       6.433   3.708  13.469  0.00  0.00    +0.000 C 
ATOM     23  C   UNL     1       7.209   5.009  13.273  0.00  0.00    +0.000 C 
ENDBRANCH  20  22
ENDBRANCH  16  20
ENDBRANCH   1  17
TORSDOF 3
ENDMDL
MODEL 9
REMARK VINA RESULT:      -6.2      1.849      4.409
REMARK  Name = 
REMARK  7 active torsions:
REMARK  status: ('A' for Active; 'I' for Inactive)
REMARK    1  A    between atoms: C_1  and  C_2
REMARK    2  A    between atoms: C_2  and  C_3
REMARK    3  A    between atoms: C_2  and  C_4
REMARK    4  A    between atoms: C_4  and  N_5
REMARK    5  A    between atoms: C_6  and  C_8
REMARK    6  A    between atoms: C_20  and  C_21
REMARK    7  A    between atoms: C_20  and  C_22
REMARK                            x       y       z     vdW  Elec       q    Type
REMARK                         _______ _______ _______ _____ _____    ______ ____
ROOT
ATOM      1  C   UNL     1       4.767   5.432  19.068  0.00  0.00    +0.000 C 
ATOM      2  N   UNL     1       6.030   5.937  18.398  0.00  0.00    +0.000 N 
ATOM      3  C   UNL     1       6.935   5.006  17.877  0.00  0.00    +0.000 C 
ATOM      4  O   UNL     1       7.712   4.302  18.491  0.00  0.00    +0.000 OA
ATOM      5  C   UNL     1       6.675   4.908  16.449  0.00  0.00    +0.000 A 
ATOM      6  C   UNL     1       6.728   3.760  15.689  0.00  0.00    +0.000 A 
ATOM      7  C   UNL     1       6.000   3.761  14.503  0.00  0.00    +0.000 A 
ATOM      8  C   UNL     1       5.313   4.917  14.084  0.00  0.00    +0.000 A 
ATOM      9  C   UNL     1       5.309   6.083  14.859  0.00  0.00    +0.000 A 
ATOM     10  C   UNL     1       5.941   6.035  16.090  0.00  0.00    +0.000 A 
ATOM     11  C   UNL     1       5.758   6.885  17.317  0.00  0.00    +0.000 C 
ATOM     12  S   UNL     1       4.101   7.503  17.559  0.00  0.00    +0.000 S 
ATOM     13  C   UNL     1       3.511   5.913  18.260  0.00  0.00    +0.000 C 
ATOM     14  C   UNL     1       3.087   4.979  17.113  0.00  0.00    +0.000 C 
ATOM     15  C   UNL     1       2.287   6.242  19.116  0.00  0.00    +0.000 C 
ENDROOT
BRANCH   1  17
ATOM     16  N   UNL     1       3.723   3.200  18.768  0.00  0.00    +0.000 N 
ATOM     17  C   UNL     1       4.664   3.916  19.462  0.00  0.00    +0.000 C 
ATOM     18  O   UNL     1       5.468   3.361  20.214  0.00  0.00    +0.000 OA
ATOM     19  H   UNL     1       3.035   3.737  18.245  0.00  0.00    +0.000 HD
BRANCH  16  20
ATOM     20  C   UNL     1       3.311   1.842  19.056  0.00  0.00    +0.000 C 
BRANCH  20  22
ATOM     21  C   UNL     1       1.791   2.495  21.001  0.00  0.00    +0.000 C 
ATOM     22  C   UNL     1       1.884   1.815  19.629  0.00  0.00    +0.000 C 
ATOM     23  C   UNL     1       0.909   2.463  18.647  0.00  0.00    +0.000 C 
ENDBRANCH  20  22
ENDBRANCH  16  20
ENDBRANCH   1  17
TORSDOF 3
ENDMDL
