MODEL 1
REMARK VINA RESULT:      -8.4      0.000      0.000
REMARK  Name = 
REMARK  6 active torsions:
REMARK  status: ('A' for Active; 'I' for Inactive)
REMARK    1  A    between atoms: C_1  and  O_2
REMARK    2  A    between atoms: O_2  and  C_3
REMARK    3  A    between atoms: C_6  and  N_7
REMARK    4  A    between atoms: C_11  and  C_13
REMARK    5  A    between atoms: C_13  and  C_14
REMARK    6  A    between atoms: C_14  and  C_15
REMARK                            x       y       z     vdW  Elec       q    Type
REMARK                         _______ _______ _______ _____ _____    ______ ____
ROOT
ATOM      1  C   UNL     1       0.980   7.699  21.144  0.00  0.00    +0.000 C 
ENDROOT
BRANCH   1   6
ATOM      2  N   UNL     1      -1.475  11.962  22.502  0.00  0.00    +0.000 N 
ATOM      3  C   UNL     1      -1.216  12.027  21.052  0.00  0.00    +0.000 C 
ATOM      4  C   UNL     1       0.172  11.433  20.743  0.00  0.00    +0.000 C 
ATOM      5  N   UNL     1       0.328  10.088  21.313  0.00  0.00    +0.000 N 
ATOM      6  C   UNL     1       0.835   9.071  20.519  0.00  0.00    +0.000 C 
ATOM      7  O   UNL     1       1.100   9.245  19.328  0.00  0.00    +0.000 OA
ATOM      8  C   UNL     1       0.037  10.019  22.757  0.00  0.00    +0.000 C 
ATOM      9  C   UNL     1      -1.342  10.621  23.091  0.00  0.00    +0.000 C 
BRANCH   2  13
ATOM     10  C   UNL     1      -2.716  15.372  24.671  0.00  0.00    +0.000 A 
ATOM     11  C   UNL     1      -3.582  14.302  24.478  0.00  0.00    +0.000 A 
ATOM     12  C   UNL     1      -3.161  13.164  23.778  0.00  0.00    +0.000 A 
ATOM     13  C   UNL     1      -1.875  13.064  23.229  0.00  0.00    +0.000 A 
ATOM     14  C   UNL     1      -1.027  14.162  23.431  0.00  0.00    +0.000 A 
ATOM     15  C   UNL     1      -1.434  15.303  24.137  0.00  0.00    +0.000 A 
BRANCH  10  17
ATOM     16  C   UNL     1      -2.344  17.529  25.549  0.00  0.00    +0.000 C 
ATOM     17  O   UNL     1      -3.234  16.437  25.352  0.00  0.00    +0.000 OA
ENDBRANCH  10  17
ENDBRANCH   2  13
ENDBRANCH   1   6
BRANCH   1  18
ATOM     18  C   UNL     1       2.220   6.949  20.638  0.00  0.00    +0.000 C 
BRANCH  18  19
ATOM     19  C   UNL     1       1.831   5.608  20.127  0.00  0.00    +0.000 A 
ATOM     20  N   UNL     1       0.891   4.826  20.636  0.00  0.00    +0.000 NA
ATOM     21  N   UNL     1       0.831   3.678  19.895  0.00  0.00    +0.000 NA
ATOM     22  C   UNL     1       1.742   3.768  18.954  0.00  0.00    +0.000 A 
ATOM     23  C   UNL     1       2.116   2.895  17.921  0.00  0.00    +0.000 A 
ATOM     24  C   UNL     1       3.111   3.254  17.107  0.00  0.00    +0.000 A 
ATOM     25  C   UNL     1       3.809   4.571  17.319  0.00  0.00    +0.000 A 
ATOM     26  N   UNL     1       4.869   4.912  16.488  0.00  0.00    +0.000 N 
ATOM     27  C   UNL     1       5.729   3.943  15.793  0.00  0.00    +0.000 C 
ATOM     28  C   UNL     1       7.205   4.290  16.031  0.00  0.00    +0.000 C 
ATOM     29  O   UNL     1       7.499   5.636  15.633  0.00  0.00    +0.000 OA
ATOM     30  C   UNL     1       6.695   6.563  16.384  0.00  0.00    +0.000 C 
ATOM     31  C   UNL     1       5.199   6.310  16.166  0.00  0.00    +0.000 C 
ATOM     32  N   UNL     1       3.438   5.415  18.248  0.00  0.00    +0.000 NA
ATOM     33  N   UNL     1       2.415   4.970  19.048  0.00  0.00    +0.000 N 
ENDBRANCH  18  19
ENDBRANCH   1  18
TORSDOF 5
ENDMDL
MODEL 2
REMARK VINA RESULT:      -8.3      3.082      3.855
REMARK  Name = 
REMARK  6 active torsions:
REMARK  status: ('A' for Active; 'I' for Inactive)
REMARK    1  A    between atoms: C_1  and  O_2
REMARK    2  A    between atoms: O_2  and  C_3
REMARK    3  A    between atoms: C_6  and  N_7
REMARK    4  A    between atoms: C_11  and  C_13
REMARK    5  A    between atoms: C_13  and  C_14
REMARK    6  A    between atoms: C_14  and  C_15
REMARK                            x       y       z     vdW  Elec       q    Type
REMARK                         _______ _______ _______ _____ _____    ______ ____
ROOT
ATOM      1  C   UNL     1       1.533   7.875  20.042  0.00  0.00    +0.000 C 
ENDROOT
BRANCH   1   6
ATOM      2  N   UNL     1       1.400  12.957  19.598  0.00  0.00    +0.000 N 
ATOM      3  C   UNL     1       1.248  12.620  21.025  0.00  0.00    +0.000 C 
ATOM      4  C   UNL     1       0.375  11.358  21.173  0.00  0.00    +0.000 C 
ATOM      5  N   UNL     1       0.878  10.248  20.352  0.00  0.00    +0.000 N 
ATOM      6  C   UNL     1       1.011   8.992  20.922  0.00  0.00    +0.000 C 
ATOM      7  O   UNL     1       0.780   8.790  22.115  0.00  0.00    +0.000 OA
ATOM      8  C   UNL     1       1.060  10.598  18.931  0.00  0.00    +0.000 C 
ATOM      9  C   UNL     1       1.919  11.866  18.760  0.00  0.00    +0.000 C 
BRANCH   2  13
ATOM     10  C   UNL     1       0.590  16.848  18.159  0.00  0.00    +0.000 A 
ATOM     11  C   UNL     1       1.896  16.382  18.241  0.00  0.00    +0.000 A 
ATOM     12  C   UNL     1       2.161  15.085  18.697  0.00  0.00    +0.000 A 
ATOM     13  C   UNL     1       1.137  14.219  19.107  0.00  0.00    +0.000 A 
ATOM     14  C   UNL     1      -0.170  14.720  19.023  0.00  0.00    +0.000 A 
ATOM     15  C   UNL     1      -0.447  16.014  18.560  0.00  0.00    +0.000 A 
BRANCH  10  17
ATOM     16  C   UNL     1      -0.887  18.628  17.692  0.00  0.00    +0.000 C 
ATOM     17  O   UNL     1       0.447  18.134  17.717  0.00  0.00    +0.000 OA
ENDBRANCH  10  17
ENDBRANCH   2  13
ENDBRANCH   1   6
BRANCH   1  18
ATOM     18  C   UNL     1       2.127   6.715  20.853  0.00  0.00    +0.000 C 
BRANCH  18  19
ATOM     19  C   UNL     1       1.777   5.417  20.216  0.00  0.00    +0.000 A 
ATOM     20  N   UNL     1       0.832   4.583  20.623  0.00  0.00    +0.000 NA
ATOM     21  N   UNL     1       0.817   3.502  19.785  0.00  0.00    +0.000 NA
ATOM     22  C   UNL     1       1.758   3.683  18.888  0.00  0.00    +0.000 A 
ATOM     23  C   UNL     1       2.181   2.906  17.799  0.00  0.00    +0.000 A 
ATOM     24  C   UNL     1       3.198   3.347  17.055  0.00  0.00    +0.000 A 
ATOM     25  C   UNL     1       3.868   4.650  17.403  0.00  0.00    +0.000 A 
ATOM     26  N   UNL     1       4.951   5.074  16.643  0.00  0.00    +0.000 N 
ATOM     27  C   UNL     1       5.849   4.179  15.899  0.00  0.00    +0.000 C 
ATOM     28  C   UNL     1       7.310   4.523  16.219  0.00  0.00    +0.000 C 
ATOM     29  O   UNL     1       7.596   5.902  15.947  0.00  0.00    +0.000 OA
ATOM     30  C   UNL     1       6.752   6.752  16.745  0.00  0.00    +0.000 C 
ATOM     31  C   UNL     1       5.269   6.498  16.452  0.00  0.00    +0.000 C 
ATOM     32  N   UNL     1       3.451   5.406  18.387  0.00  0.00    +0.000 NA
ATOM     33  N   UNL     1       2.408   4.881  19.109  0.00  0.00    +0.000 N 
ENDBRANCH  18  19
ENDBRANCH   1  18
TORSDOF 5
ENDMDL
MODEL 3
REMARK VINA RESULT:      -8.3      1.259      1.905
REMARK  Name = 
REMARK  6 active torsions:
REMARK  status: ('A' for Active; 'I' for Inactive)
REMARK    1  A    between atoms: C_1  and  O_2
REMARK    2  A    between atoms: O_2  and  C_3
REMARK    3  A    between atoms: C_6  and  N_7
REMARK    4  A    between atoms: C_11  and  C_13
REMARK    5  A    between atoms: C_13  and  C_14
REMARK    6  A    between atoms: C_14  and  C_15
REMARK                            x       y       z     vdW  Elec       q    Type
REMARK                         _______ _______ _______ _____ _____    ______ ____
ROOT
ATOM      1  C   UNL     1       2.399   6.503  20.218  0.00  0.00    +0.000 C 
ENDROOT
BRANCH   1   6
ATOM      2  N   UNL     1      -0.448  10.560  21.434  0.00  0.00    +0.000 N 
ATOM      3  C   UNL     1      -0.376  10.478  19.964  0.00  0.00    +0.000 C 
ATOM      4  C   UNL     1       1.035  10.028  19.535  0.00  0.00    +0.000 C 
ATOM      5  N   UNL     1       1.445   8.794  20.218  0.00  0.00    +0.000 N 
ATOM      6  C   UNL     1       1.990   7.758  19.476  0.00  0.00    +0.000 C 
ATOM      7  O   UNL     1       2.085   7.817  18.249  0.00  0.00    +0.000 OA
ATOM      8  C   UNL     1       1.340   8.867  21.688  0.00  0.00    +0.000 C 
ATOM      9  C   UNL     1      -0.060   9.329  22.139  0.00  0.00    +0.000 C 
BRANCH   2  13
ATOM     10  C   UNL     1      -1.829  13.982  23.495  0.00  0.00    +0.000 A 
ATOM     11  C   UNL     1      -0.701  14.051  22.685  0.00  0.00    +0.000 A 
ATOM     12  C   UNL     1      -0.258  12.922  21.986  0.00  0.00    +0.000 A 
ATOM     13  C   UNL     1      -0.909  11.684  22.088  0.00  0.00    +0.000 A 
ATOM     14  C   UNL     1      -2.037  11.642  22.919  0.00  0.00    +0.000 A 
ATOM     15  C   UNL     1      -2.495  12.768  23.617  0.00  0.00    +0.000 A 
BRANCH  10  17
ATOM     16  C   UNL     1      -2.829  14.970  25.390  0.00  0.00    +0.000 C 
ATOM     17  O   UNL     1      -2.161  15.138  24.144  0.00  0.00    +0.000 OA
ENDBRANCH  10  17
ENDBRANCH   2  13
ENDBRANCH   1   6
BRANCH   1  18
ATOM     18  C   UNL     1       1.201   5.613  20.576  0.00  0.00    +0.000 C 
BRANCH  18  19
ATOM     19  C   UNL     1       1.440   4.223  20.104  0.00  0.00    +0.000 A 
ATOM     20  N   UNL     1       0.803   3.141  20.522  0.00  0.00    +0.000 NA
ATOM     21  N   UNL     1       1.306   2.056  19.857  0.00  0.00    +0.000 NA
ATOM     22  C   UNL     1       2.249   2.487  19.053  0.00  0.00    +0.000 A 
ATOM     23  C   UNL     1       3.087   1.823  18.145  0.00  0.00    +0.000 A 
ATOM     24  C   UNL     1       3.984   2.537  17.461  0.00  0.00    +0.000 A 
ATOM     25  C   UNL     1       4.081   4.023  17.684  0.00  0.00    +0.000 A 
ATOM     26  N   UNL     1       5.048   4.744  16.993  0.00  0.00    +0.000 N 
ATOM     27  C   UNL     1       6.311   4.182  16.494  0.00  0.00    +0.000 C 
ATOM     28  C   UNL     1       7.484   5.076  16.919  0.00  0.00    +0.000 C 
ATOM     29  O   UNL     1       7.299   6.428  16.480  0.00  0.00    +0.000 OA
ATOM     30  C   UNL     1       6.094   6.974  17.045  0.00  0.00    +0.000 C 
ATOM     31  C   UNL     1       4.864   6.159  16.631  0.00  0.00    +0.000 C 
ATOM     32  N   UNL     1       3.274   4.660  18.493  0.00  0.00    +0.000 NA
ATOM     33  N   UNL     1       2.387   3.857  19.165  0.00  0.00    +0.000 N 
ENDBRANCH  18  19
ENDBRANCH   1  18
TORSDOF 5
ENDMDL
MODEL 4
REMARK VINA RESULT:      -8.0      3.513      4.388
REMARK  Name = 
REMARK  6 active torsions:
REMARK  status: ('A' for Active; 'I' for Inactive)
REMARK    1  A    between atoms: C_1  and  O_2
REMARK    2  A    between atoms: O_2  and  C_3
REMARK    3  A    between atoms: C_6  and  N_7
REMARK    4  A    between atoms: C_11  and  C_13
REMARK    5  A    between atoms: C_13  and  C_14
REMARK    6  A    between atoms: C_14  and  C_15
REMARK                            x       y       z     vdW  Elec       q    Type
REMARK                         _______ _______ _______ _____ _____    ______ ____
ROOT
ATOM      1  C   UNL     1       0.743   8.556  20.505  0.00  0.00    +0.000 C 
ENDROOT
BRANCH   1   6
ATOM      2  N   UNL     1       2.012  13.376  19.409  0.00  0.00    +0.000 N 
ATOM      3  C   UNL     1       2.210  13.170  20.856  0.00  0.00    +0.000 C 
ATOM      4  C   UNL     1       1.088  12.272  21.413  0.00  0.00    +0.000 C 
ATOM      5  N   UNL     1       0.958  11.024  20.649  0.00  0.00    +0.000 N 
ATOM      6  C   UNL     1       0.876   9.819  21.330  0.00  0.00    +0.000 C 
ATOM      7  O   UNL     1       0.971   9.756  22.556  0.00  0.00    +0.000 OA
ATOM      8  C   UNL     1       0.793  11.232  19.198  0.00  0.00    +0.000 C 
ATOM      9  C   UNL     1       1.898  12.140  18.622  0.00  0.00    +0.000 C 
BRANCH   2  13
ATOM     10  C   UNL     1       1.961  17.196  17.601  0.00  0.00    +0.000 A 
ATOM     11  C   UNL     1       0.917  16.789  18.421  0.00  0.00    +0.000 A 
ATOM     12  C   UNL     1       0.946  15.531  19.037  0.00  0.00    +0.000 A 
ATOM     13  C   UNL     1       2.003  14.632  18.839  0.00  0.00    +0.000 A 
ATOM     14  C   UNL     1       3.038  15.066  17.998  0.00  0.00    +0.000 A 
ATOM     15  C   UNL     1       3.023  16.326  17.383  0.00  0.00    +0.000 A 
BRANCH  10  17
ATOM     16  C   UNL     1       0.635  18.630  16.278  0.00  0.00    +0.000 C 
ATOM     17  O   UNL     1       1.822  18.434  17.037  0.00  0.00    +0.000 OA
ENDBRANCH  10  17
ENDBRANCH   2  13
ENDBRANCH   1   6
BRANCH   1  18
ATOM     18  C   UNL     1       2.059   7.771  20.413  0.00  0.00    +0.000 C 
BRANCH  18  19
ATOM     19  C   UNL     1       1.777   6.329  20.182  0.00  0.00    +0.000 A 
ATOM     20  N   UNL     1       0.878   5.601  20.826  0.00  0.00    +0.000 NA
ATOM     21  N   UNL     1       0.918   4.325  20.334  0.00  0.00    +0.000 NA
ATOM     22  C   UNL     1       1.848   4.288  19.408  0.00  0.00    +0.000 A 
ATOM     23  C   UNL     1       2.310   3.253  18.581  0.00  0.00    +0.000 A 
ATOM     24  C   UNL     1       3.302   3.511  17.726  0.00  0.00    +0.000 A 
ATOM     25  C   UNL     1       3.902   4.891  17.674  0.00  0.00    +0.000 A 
ATOM     26  N   UNL     1       4.961   5.133  16.807  0.00  0.00    +0.000 N 
ATOM     27  C   UNL     1       5.905   4.108  16.337  0.00  0.00    +0.000 C 
ATOM     28  C   UNL     1       7.346   4.602  16.521  0.00  0.00    +0.000 C 
ATOM     29  O   UNL     1       7.559   5.857  15.861  0.00  0.00    +0.000 OA
ATOM     30  C   UNL     1       6.672   6.857  16.394  0.00  0.00    +0.000 C 
ATOM     31  C   UNL     1       5.204   6.456  16.211  0.00  0.00    +0.000 C 
ATOM     32  N   UNL     1       3.448   5.877  18.406  0.00  0.00    +0.000 NA
ATOM     33  N   UNL     1       2.434   5.530  19.265  0.00  0.00    +0.000 N 
ENDBRANCH  18  19
ENDBRANCH   1  18
TORSDOF 5
ENDMDL
MODEL 5
REMARK VINA RESULT:      -7.9      3.181     11.341
REMARK  Name = 
REMARK  6 active torsions:
REMARK  status: ('A' for Active; 'I' for Inactive)
REMARK    1  A    between atoms: C_1  and  O_2
REMARK    2  A    between atoms: O_2  and  C_3
REMARK    3  A    between atoms: C_6  and  N_7
REMARK    4  A    between atoms: C_11  and  C_13
REMARK    5  A    between atoms: C_13  and  C_14
REMARK    6  A    between atoms: C_14  and  C_15
REMARK                            x       y       z     vdW  Elec       q    Type
REMARK                         _______ _______ _______ _____ _____    ______ ____
ROOT
ATOM      1  C   UNL     1      -0.804  11.661  21.150  0.00  0.00    +0.000 C 
ENDROOT
BRANCH   1   6
ATOM      2  N   UNL     1       2.115   7.938  19.232  0.00  0.00    +0.000 N 
ATOM      3  C   UNL     1       2.074   9.038  18.250  0.00  0.00    +0.000 C 
ATOM      4  C   UNL     1       0.663   9.657  18.218  0.00  0.00    +0.000 C 
ATOM      5  N   UNL     1       0.207  10.044  19.560  0.00  0.00    +0.000 N 
ATOM      6  C   UNL     1      -0.346  11.300  19.751  0.00  0.00    +0.000 C 
ATOM      7  O   UNL     1      -0.412  12.128  18.841  0.00  0.00    +0.000 OA
ATOM      8  C   UNL     1       0.280   8.952  20.549  0.00  0.00    +0.000 C 
ATOM      9  C   UNL     1       1.680   8.308  20.587  0.00  0.00    +0.000 C 
BRANCH   2  13
ATOM     10  C   UNL     1       3.503   4.074  18.228  0.00  0.00    +0.000 A 
ATOM     11  C   UNL     1       3.773   5.159  17.403  0.00  0.00    +0.000 A 
ATOM     12  C   UNL     1       3.331   6.443  17.748  0.00  0.00    +0.000 A 
ATOM     13  C   UNL     1       2.588   6.683  18.913  0.00  0.00    +0.000 A 
ATOM     14  C   UNL     1       2.323   5.568  19.721  0.00  0.00    +0.000 A 
ATOM     15  C   UNL     1       2.767   4.280  19.389  0.00  0.00    +0.000 A 
BRANCH  10  17
ATOM     16  C   UNL     1       3.314   1.725  18.332  0.00  0.00    +0.000 C 
ATOM     17  O   UNL     1       3.966   2.866  17.786  0.00  0.00    +0.000 OA
ENDBRANCH  10  17
ENDBRANCH   2  13
ENDBRANCH   1   6
BRANCH   1  18
ATOM     18  C   UNL     1      -0.689  13.164  21.438  0.00  0.00    +0.000 C 
BRANCH  18  19
ATOM     19  C   UNL     1      -1.681  13.560  22.473  0.00  0.00    +0.000 A 
ATOM     20  N   UNL     1      -1.400  14.077  23.659  0.00  0.00    +0.000 NA
ATOM     21  N   UNL     1      -2.575  14.304  24.323  0.00  0.00    +0.000 NA
ATOM     22  C   UNL     1      -3.553  13.911  23.542  0.00  0.00    +0.000 A 
ATOM     23  C   UNL     1      -4.947  13.912  23.707  0.00  0.00    +0.000 A 
ATOM     24  C   UNL     1      -5.708  13.423  22.725  0.00  0.00    +0.000 A 
ATOM     25  C   UNL     1      -5.061  12.879  21.480  0.00  0.00    +0.000 A 
ATOM     26  N   UNL     1      -5.865  12.337  20.485  0.00  0.00    +0.000 N 
ATOM     27  C   UNL     1      -7.192  11.746  20.715  0.00  0.00    +0.000 C 
ATOM     28  C   UNL     1      -7.276  10.371  20.039  0.00  0.00    +0.000 C 
ATOM     29  O   UNL     1      -6.972  10.455  18.640  0.00  0.00    +0.000 OA
ATOM     30  C   UNL     1      -5.640  10.966  18.450  0.00  0.00    +0.000 C 
ATOM     31  C   UNL     1      -5.485  12.362  19.064  0.00  0.00    +0.000 C 
ATOM     32  N   UNL     1      -3.765  12.915  21.295  0.00  0.00    +0.000 NA
ATOM     33  N   UNL     1      -3.052  13.424  22.351  0.00  0.00    +0.000 N 
ENDBRANCH  18  19
ENDBRANCH   1  18
TORSDOF 5
ENDMDL
MODEL 6
REMARK VINA RESULT:      -7.9      2.947     11.474
REMARK  Name = 
REMARK  6 active torsions:
REMARK  status: ('A' for Active; 'I' for Inactive)
REMARK    1  A    between atoms: C_1  and  O_2
REMARK    2  A    between atoms: O_2  and  C_3
REMARK    3  A    between atoms: C_6  and  N_7
REMARK    4  A    between atoms: C_11  and  C_13
REMARK    5  A    between atoms: C_13  and  C_14
REMARK    6  A    between atoms: C_14  and  C_15
REMARK                            x       y       z     vdW  Elec       q    Type
REMARK                         _______ _______ _______ _____ _____    ______ ____
ROOT
ATOM      1  C   UNL     1      -0.693  10.975  19.621  0.00  0.00    +0.000 C 
ENDROOT
BRANCH   1   6
ATOM      2  N   UNL     1       2.578   7.178  18.657  0.00  0.00    +0.000 N 
ATOM      3  C   UNL     1       1.942   6.913  19.960  0.00  0.00    +0.000 C 
ATOM      4  C   UNL     1       1.760   8.235  20.731  0.00  0.00    +0.000 C 
ATOM      5  N   UNL     1       1.058   9.243  19.924  0.00  0.00    +0.000 N 
ATOM      6  C   UNL     1       0.003   9.945  20.485  0.00  0.00    +0.000 C 
ATOM      7  O   UNL     1      -0.407   9.705  21.622  0.00  0.00    +0.000 OA
ATOM      8  C   UNL     1       1.677   9.483  18.607  0.00  0.00    +0.000 C 
ATOM      9  C   UNL     1       1.883   8.171  17.824  0.00  0.00    +0.000 C 
BRANCH   2  13
ATOM     10  C   UNL     1       5.970   5.035  17.329  0.00  0.00    +0.000 A 
ATOM     11  C   UNL     1       5.422   6.045  16.548  0.00  0.00    +0.000 A 
ATOM     12  C   UNL     1       4.311   6.769  17.000  0.00  0.00    +0.000 A 
ATOM     13  C   UNL     1       3.698   6.496  18.231  0.00  0.00    +0.000 A 
ATOM     14  C   UNL     1       4.267   5.465  18.992  0.00  0.00    +0.000 A 
ATOM     15  C   UNL     1       5.384   4.739  18.554  0.00  0.00    +0.000 A 
BRANCH  10  17
ATOM     16  C   UNL     1       7.285   4.650  15.408  0.00  0.00    +0.000 C 
ATOM     17  O   UNL     1       7.041   4.382  16.784  0.00  0.00    +0.000 OA
ENDBRANCH  10  17
ENDBRANCH   2  13
ENDBRANCH   1   6
BRANCH   1  18
ATOM     18  C   UNL     1      -0.287  12.413  19.975  0.00  0.00    +0.000 C 
BRANCH  18  19
ATOM     19  C   UNL     1      -0.788  12.763  21.331  0.00  0.00    +0.000 A 
ATOM     20  N   UNL     1      -0.040  13.020  22.392  0.00  0.00    +0.000 NA
ATOM     21  N   UNL     1      -0.863  13.296  23.449  0.00  0.00    +0.000 NA
ATOM     22  C   UNL     1      -2.100  13.192  23.023  0.00  0.00    +0.000 A 
ATOM     23  C   UNL     1      -3.335  13.367  23.667  0.00  0.00    +0.000 A 
ATOM     24  C   UNL     1      -4.455  13.173  22.969  0.00  0.00    +0.000 A 
ATOM     25  C   UNL     1      -4.371  12.765  21.522  0.00  0.00    +0.000 A 
ATOM     26  N   UNL     1      -5.546  12.527  20.820  0.00  0.00    +0.000 N 
ATOM     27  C   UNL     1      -6.814  12.106  21.434  0.00  0.00    +0.000 C 
ATOM     28  C   UNL     1      -7.382  10.896  20.680  0.00  0.00    +0.000 C 
ATOM     29  O   UNL     1      -7.542  11.177  19.283  0.00  0.00    +0.000 OA
ATOM     30  C   UNL     1      -6.272  11.514  18.695  0.00  0.00    +0.000 C 
ATOM     31  C   UNL     1      -5.654  12.744  19.369  0.00  0.00    +0.000 C 
ATOM     32  N   UNL     1      -3.227  12.644  20.898  0.00  0.00    +0.000 NA
ATOM     33  N   UNL     1      -2.122  12.852  21.685  0.00  0.00    +0.000 N 
ENDBRANCH  18  19
ENDBRANCH   1  18
TORSDOF 5
ENDMDL
MODEL 7
REMARK VINA RESULT:      -7.8      1.482      1.857
REMARK  Name = 
REMARK  6 active torsions:
REMARK  status: ('A' for Active; 'I' for Inactive)
REMARK    1  A    between atoms: C_1  and  O_2
REMARK    2  A    between atoms: O_2  and  C_3
REMARK    3  A    between atoms: C_6  and  N_7
REMARK    4  A    between atoms: C_11  and  C_13
REMARK    5  A    between atoms: C_13  and  C_14
REMARK    6  A    between atoms: C_14  and  C_15
REMARK                            x       y       z     vdW  Elec       q    Type
REMARK                         _______ _______ _______ _____ _____    ______ ____
ROOT
ATOM      1  C   UNL     1       1.862   6.827  21.001  0.00  0.00    +0.000 C 
ENDROOT
BRANCH   1   6
ATOM      2  N   UNL     1      -0.807  11.091  21.863  0.00  0.00    +0.000 N 
ATOM      3  C   UNL     1      -0.577  10.983  20.411  0.00  0.00    +0.000 C 
ATOM      4  C   UNL     1       0.838  10.430  20.147  0.00  0.00    +0.000 C 
ATOM      5  N   UNL     1       1.079   9.179  20.880  0.00  0.00    +0.000 N 
ATOM      6  C   UNL     1       1.629   8.098  20.210  0.00  0.00    +0.000 C 
ATOM      7  O   UNL     1       1.865   8.132  19.001  0.00  0.00    +0.000 OA
ATOM      8  C   UNL     1       0.816   9.281  22.327  0.00  0.00    +0.000 C 
ATOM      9  C   UNL     1      -0.589   9.846  22.615  0.00  0.00    +0.000 C 
BRANCH   2  13
ATOM     10  C   UNL     1      -2.166  14.629  23.735  0.00  0.00    +0.000 A 
ATOM     11  C   UNL     1      -0.924  14.591  23.113  0.00  0.00    +0.000 A 
ATOM     12  C   UNL     1      -0.485  13.424  22.474  0.00  0.00    +0.000 A 
ATOM     13  C   UNL     1      -1.257  12.254  22.454  0.00  0.00    +0.000 A 
ATOM     14  C   UNL     1      -2.501  12.319  23.098  0.00  0.00    +0.000 A 
ATOM     15  C   UNL     1      -2.954  13.484  23.733  0.00  0.00    +0.000 A 
BRANCH  10  17
ATOM     16  C   UNL     1      -3.743  15.836  25.008  0.00  0.00    +0.000 C 
ATOM     17  O   UNL     1      -2.486  15.811  24.342  0.00  0.00    +0.000 OA
ENDBRANCH  10  17
ENDBRANCH   2  13
ENDBRANCH   1   6
BRANCH   1  18
ATOM     18  C   UNL     1       0.924   5.689  20.577  0.00  0.00    +0.000 C 
BRANCH  18  19
ATOM     19  C   UNL     1       1.620   4.381  20.708  0.00  0.00    +0.000 A 
ATOM     20  N   UNL     1       1.253   3.381  21.494  0.00  0.00    +0.000 NA
ATOM     21  N   UNL     1       2.144   2.355  21.338  0.00  0.00    +0.000 NA
ATOM     22  C   UNL     1       3.048   2.746  20.471  0.00  0.00    +0.000 A 
ATOM     23  C   UNL     1       4.179   2.107  19.940  0.00  0.00    +0.000 A 
ATOM     24  C   UNL     1       4.941   2.773  19.069  0.00  0.00    +0.000 A 
ATOM     25  C   UNL     1       4.578   4.183  18.686  0.00  0.00    +0.000 A 
ATOM     26  N   UNL     1       5.404   4.876  17.809  0.00  0.00    +0.000 N 
ATOM     27  C   UNL     1       6.840   4.613  17.631  0.00  0.00    +0.000 C 
ATOM     28  C   UNL     1       7.625   5.929  17.717  0.00  0.00    +0.000 C 
ATOM     29  O   UNL     1       7.144   6.890  16.768  0.00  0.00    +0.000 OA
ATOM     30  C   UNL     1       5.757   7.182  17.016  0.00  0.00    +0.000 C 
ATOM     31  C   UNL     1       4.893   5.920  16.906  0.00  0.00    +0.000 C 
ATOM     32  N   UNL     1       3.500   4.772  19.138  0.00  0.00    +0.000 NA
ATOM     33  N   UNL     1       2.775   4.027  20.034  0.00  0.00    +0.000 N 
ENDBRANCH  18  19
ENDBRANCH   1  18
TORSDOF 5
ENDMDL
MODEL 8
REMARK VINA RESULT:      -7.8      0.978      1.167
REMARK  Name = 
REMARK  6 active torsions:
REMARK  status: ('A' for Active; 'I' for Inactive)
REMARK    1  A    between atoms: C_1  and  O_2
REMARK    2  A    between atoms: O_2  and  C_3
REMARK    3  A    between atoms: C_6  and  N_7
REMARK    4  A    between atoms: C_11  and  C_13
REMARK    5  A    between atoms: C_13  and  C_14
REMARK    6  A    between atoms: C_14  and  C_15
REMARK                            x       y       z     vdW  Elec       q    Type
REMARK                         _______ _______ _______ _____ _____    ______ ____
ROOT
ATOM      1  C   UNL     1       0.907   7.651  21.047  0.00  0.00    +0.000 C 
ENDROOT
BRANCH   1   6
ATOM      2  N   UNL     1      -0.999  12.352  21.608  0.00  0.00    +0.000 N 
ATOM      3  C   UNL     1      -0.544  12.208  20.214  0.00  0.00    +0.000 C 
ATOM      4  C   UNL     1       0.761  11.389  20.172  0.00  0.00    +0.000 C 
ATOM      5  N   UNL     1       0.625  10.112  20.886  0.00  0.00    +0.000 N 
ATOM      6  C   UNL     1       1.064   8.946  20.278  0.00  0.00    +0.000 C 
ATOM      7  O   UNL     1       1.509   8.939  19.128  0.00  0.00    +0.000 OA
ATOM      8  C   UNL     1       0.138  10.256  22.271  0.00  0.00    +0.000 C 
ATOM      9  C   UNL     1      -1.159  11.085  22.337  0.00  0.00    +0.000 C 
BRANCH   2  13
ATOM     10  C   UNL     1      -1.891  16.122  23.299  0.00  0.00    +0.000 A 
ATOM     11  C   UNL     1      -1.934  15.936  21.923  0.00  0.00    +0.000 A 
ATOM     12  C   UNL     1      -1.660  14.681  21.366  0.00  0.00    +0.000 A 
ATOM     13  C   UNL     1      -1.312  13.578  22.159  0.00  0.00    +0.000 A 
ATOM     14  C   UNL     1      -1.267  13.797  23.543  0.00  0.00    +0.000 A 
ATOM     15  C   UNL     1      -1.548  15.047  24.112  0.00  0.00    +0.000 A 
BRANCH  10  17
ATOM     16  C   UNL     1      -1.197  18.375  23.372  0.00  0.00    +0.000 C 
ATOM     17  O   UNL     1      -2.158  17.390  23.733  0.00  0.00    +0.000 OA
ENDBRANCH  10  17
ENDBRANCH   2  13
ENDBRANCH   1   6
BRANCH   1  18
ATOM     18  C   UNL     1       2.140   6.745  20.934  0.00  0.00    +0.000 C 
BRANCH  18  19
ATOM     19  C   UNL     1       1.768   5.457  20.290  0.00  0.00    +0.000 A 
ATOM     20  N   UNL     1       0.821   4.628  20.701  0.00  0.00    +0.000 NA
ATOM     21  N   UNL     1       0.783   3.556  19.853  0.00  0.00    +0.000 NA
ATOM     22  C   UNL     1       1.713   3.736  18.945  0.00  0.00    +0.000 A 
ATOM     23  C   UNL     1       2.113   2.966  17.843  0.00  0.00    +0.000 A 
ATOM     24  C   UNL     1       3.124   3.403  17.089  0.00  0.00    +0.000 A 
ATOM     25  C   UNL     1       3.812   4.696  17.440  0.00  0.00    +0.000 A 
ATOM     26  N   UNL     1       4.888   5.117  16.669  0.00  0.00    +0.000 N 
ATOM     27  C   UNL     1       5.768   4.220  15.904  0.00  0.00    +0.000 C 
ATOM     28  C   UNL     1       7.236   4.546  16.207  0.00  0.00    +0.000 C 
ATOM     29  O   UNL     1       7.532   5.925  15.945  0.00  0.00    +0.000 OA
ATOM     30  C   UNL     1       6.708   6.775  16.762  0.00  0.00    +0.000 C 
ATOM     31  C   UNL     1       5.218   6.539  16.488  0.00  0.00    +0.000 C 
ATOM     32  N   UNL     1       3.417   5.447  18.437  0.00  0.00    +0.000 NA
ATOM     33  N   UNL     1       2.379   4.925  19.168  0.00  0.00    +0.000 N 
ENDBRANCH  18  19
ENDBRANCH   1  18
TORSDOF 5
ENDMDL
MODEL 9
REMARK VINA RESULT:      -7.8      1.084      1.461
REMARK  Name = 
REMARK  6 active torsions:
REMARK  status: ('A' for Active; 'I' for Inactive)
REMARK    1  A    between atoms: C_1  and  O_2
REMARK    2  A    between atoms: O_2  and  C_3
REMARK    3  A    between atoms: C_6  and  N_7
REMARK    4  A    between atoms: C_11  and  C_13
REMARK    5  A    between atoms: C_13  and  C_14
REMARK    6  A    between atoms: C_14  and  C_15
REMARK                            x       y       z     vdW  Elec       q    Type
REMARK                         _______ _______ _______ _____ _____    ______ ____
ROOT
ATOM      1  C   UNL     1       0.946   6.784  20.913  0.00  0.00    +0.000 C 
ENDROOT
BRANCH   1   6
ATOM      2  N   UNL     1      -0.490  11.616  21.711  0.00  0.00    +0.000 N 
ATOM      3  C   UNL     1       0.151  11.544  20.385  0.00  0.00    +0.000 C 
ATOM      4  C   UNL     1       1.348  10.575  20.437  0.00  0.00    +0.000 C 
ATOM      5  N   UNL     1       0.966   9.265  20.982  0.00  0.00    +0.000 N 
ATOM      6  C   UNL     1       1.360   8.114  20.317  0.00  0.00    +0.000 C 
ATOM      7  O   UNL     1       1.969   8.156  19.247  0.00  0.00    +0.000 OA
ATOM      8  C   UNL     1       0.296   9.342  22.293  0.00  0.00    +0.000 C 
ATOM      9  C   UNL     1      -0.897  10.318  22.269  0.00  0.00    +0.000 C 
BRANCH   2  13
ATOM     10  C   UNL     1      -1.239  15.269  23.703  0.00  0.00    +0.000 A 
ATOM     11  C   UNL     1      -0.152  15.140  22.847  0.00  0.00    +0.000 A 
ATOM     12  C   UNL     1       0.082  13.936  22.171  0.00  0.00    +0.000 A 
ATOM     13  C   UNL     1      -0.744  12.816  22.342  0.00  0.00    +0.000 A 
ATOM     14  C   UNL     1      -1.827  12.972  23.219  0.00  0.00    +0.000 A 
ATOM     15  C   UNL     1      -2.076  14.175  23.895  0.00  0.00    +0.000 A 
BRANCH  10  17
ATOM     16  C   UNL     1      -0.208  16.929  25.023  0.00  0.00    +0.000 C 
ATOM     17  O   UNL     1      -1.363  16.480  24.324  0.00  0.00    +0.000 OA
ENDBRANCH  10  17
ENDBRANCH   2  13
ENDBRANCH   1   6
BRANCH   1  18
ATOM     18  C   UNL     1       2.137   5.842  21.134  0.00  0.00    +0.000 C 
BRANCH  18  19
ATOM     19  C   UNL     1       1.894   4.546  20.446  0.00  0.00    +0.000 A 
ATOM     20  N   UNL     1       1.085   3.584  20.863  0.00  0.00    +0.000 NA
ATOM     21  N   UNL     1       1.134   2.554  19.965  0.00  0.00    +0.000 NA
ATOM     22  C   UNL     1       1.980   2.892  19.021  0.00  0.00    +0.000 A 
ATOM     23  C   UNL     1       2.411   2.229  17.862  0.00  0.00    +0.000 A 
ATOM     24  C   UNL     1       3.314   2.825  17.080  0.00  0.00    +0.000 A 
ATOM     25  C   UNL     1       3.850   4.180  17.460  0.00  0.00    +0.000 A 
ATOM     26  N   UNL     1       4.819   4.769  16.657  0.00  0.00    +0.000 N 
ATOM     27  C   UNL     1       5.759   4.028  15.803  0.00  0.00    +0.000 C 
ATOM     28  C   UNL     1       7.190   4.528  16.046  0.00  0.00    +0.000 C 
ATOM     29  O   UNL     1       7.293   5.943  15.839  0.00  0.00    +0.000 OA
ATOM     30  C   UNL     1       6.416   6.643  16.740  0.00  0.00    +0.000 C 
ATOM     31  C   UNL     1       4.955   6.229  16.531  0.00  0.00    +0.000 C 
ATOM     32  N   UNL     1       3.421   4.829  18.513  0.00  0.00    +0.000 NA
ATOM     33  N   UNL     1       2.502   4.146  19.269  0.00  0.00    +0.000 N 
ENDBRANCH  18  19
ENDBRANCH   1  18
TORSDOF 5
ENDMDL
