MODEL 1
REMARK VINA RESULT:      -8.1      0.000      0.000
REMARK  Name = 
REMARK  10 active torsions:
REMARK  status: ('A' for Active; 'I' for Inactive)
REMARK    1  A    between atoms: C_1  and  N_2
REMARK    2  A    between atoms: N_2  and  C_3
REMARK    3  A    between atoms: N_2  and  C_4
REMARK    4  A    between atoms: C_4  and  C_5
REMARK    5  A    between atoms: C_5  and  C_6
REMARK    6  A    between atoms: C_13  and  C_14
REMARK    7  A    between atoms: C_13  and  N_20
REMARK    8  A    between atoms: N_20  and  C_21
REMARK    9  A    between atoms: C_22  and  C_24
REMARK   10  A    between atoms: C_25  and  C_26
REMARK                            x       y       z     vdW  Elec       q    Type
REMARK                         _______ _______ _______ _____ _____    ______ ____
ROOT
ATOM      1  C   UNL     1       6.486   6.306  17.057  0.00  0.00    +0.000 C 
ATOM      2  C   UNL     1       5.137   6.244  16.286  0.00  0.00    +0.000 C 
ATOM      3  C   UNL     1       4.063   5.287  16.842  0.00  0.00    +0.000 C 
ATOM      4  C   UNL     1       3.739   5.408  18.381  0.00  0.00    +0.000 C 
ATOM      5  C   UNL     1       5.148   5.291  19.061  0.00  0.00    +0.000 C 
ATOM      6  C   UNL     1       6.131   6.350  18.575  0.00  0.00    +0.000 C 
ENDROOT
BRANCH   4   7
ATOM      7  C   UNL     1       2.833   4.205  18.800  0.00  0.00    +0.000 A 
ATOM      8  C   UNL     1       3.229   3.294  19.798  0.00  0.00    +0.000 A 
ATOM      9  C   UNL     1       2.451   2.175  20.127  0.00  0.00    +0.000 A 
ATOM     10  C   UNL     1       1.249   1.941  19.472  0.00  0.00    +0.000 A 
ATOM     11  C   UNL     1       0.819   2.830  18.496  0.00  0.00    +0.000 A 
ATOM     12  C   UNL     1       1.593   3.954  18.175  0.00  0.00    +0.000 A 
ENDBRANCH   4   7
BRANCH   4  13
ATOM     13  N   UNL     1       3.058   6.720  18.734  0.00  0.00    +0.000 N 
ATOM     14  C   UNL     1       2.863   7.736  17.692  0.00  0.00    +0.000 C 
ATOM     15  C   UNL     1       2.357   6.868  19.942  0.00  0.00    +0.000 C 
ATOM     16  O   UNL     1       2.262   6.011  20.820  0.00  0.00    +0.000 OA
BRANCH  15  17
ATOM     17  C   UNL     1       1.728   8.193  20.206  0.00  0.00    +0.000 C 
ATOM     18  C   UNL     1       1.040   8.386  21.347  0.00  0.00    +0.000 C 
BRANCH  18  19
ATOM     19  C   UNL     1       0.357   9.645  21.599  0.00  0.00    +0.000 A 
ATOM     20  C   UNL     1      -0.379   9.805  22.783  0.00  0.00    +0.000 A 
ATOM     21  C   UNL     1      -1.070  10.994  23.029  0.00  0.00    +0.000 A 
ATOM     22  C   UNL     1      -1.026  12.030  22.098  0.00  0.00    +0.000 A 
ATOM     23  C   UNL     1      -0.291  11.883  20.922  0.00  0.00    +0.000 A 
ATOM     24  C   UNL     1       0.403  10.695  20.675  0.00  0.00    +0.000 A 
ENDBRANCH  18  19
ENDBRANCH  15  17
ENDBRANCH   4  13
BRANCH   1  26
ATOM     25  C   UNL     1       7.964   4.408  17.753  0.00  0.00    +0.000 C 
ATOM     26  N   UNL     1       7.399   5.186  16.652  0.00  0.00    +0.000 NA
ATOM     27  C   UNL     1       6.968   4.276  15.589  0.00  0.00    +0.000 C 
ENDBRANCH   1  26
BRANCH   1  28
ATOM     28  C   UNL     1       7.201   7.712  16.786  0.00  0.00    +0.000 C 
BRANCH  28  29
ATOM     29  C   UNL     1       7.514   8.670  17.958  0.00  0.00    +0.000 C 
ATOM     30  C   UNL     1       8.778   8.324  18.744  0.00  0.00    +0.000 C 
ATOM     31  C   UNL     1       9.185   9.630  19.405  0.00  0.00    +0.000 C 
ATOM     32  C   UNL     1       8.930  10.675  18.334  0.00  0.00    +0.000 C 
ATOM     33  C   UNL     1       7.775  10.127  17.490  0.00  0.00    +0.000 C 
ENDBRANCH  28  29
ENDBRANCH   1  28
TORSDOF 7
ENDMDL
MODEL 2
REMARK VINA RESULT:      -8.1      0.159      1.188
REMARK  Name = 
REMARK  10 active torsions:
REMARK  status: ('A' for Active; 'I' for Inactive)
REMARK    1  A    between atoms: C_1  and  N_2
REMARK    2  A    between atoms: N_2  and  C_3
REMARK    3  A    between atoms: N_2  and  C_4
REMARK    4  A    between atoms: C_4  and  C_5
REMARK    5  A    between atoms: C_5  and  C_6
REMARK    6  A    between atoms: C_13  and  C_14
REMARK    7  A    between atoms: C_13  and  N_20
REMARK    8  A    between atoms: N_20  and  C_21
REMARK    9  A    between atoms: C_22  and  C_24
REMARK   10  A    between atoms: C_25  and  C_26
REMARK                            x       y       z     vdW  Elec       q    Type
REMARK                         _______ _______ _______ _____ _____    ______ ____
ROOT
ATOM      1  C   UNL     1       6.473   6.359  17.042  0.00  0.00    +0.000 C 
ATOM      2  C   UNL     1       5.129   6.267  16.265  0.00  0.00    +0.000 C 
ATOM      3  C   UNL     1       4.078   5.279  16.812  0.00  0.00    +0.000 C 
ATOM      4  C   UNL     1       3.745   5.384  18.350  0.00  0.00    +0.000 C 
ATOM      5  C   UNL     1       5.154   5.300  19.035  0.00  0.00    +0.000 C 
ATOM      6  C   UNL     1       6.111   6.386  18.558  0.00  0.00    +0.000 C 
ENDROOT
BRANCH   4   7
ATOM      7  C   UNL     1       2.869   4.156  18.759  0.00  0.00    +0.000 A 
ATOM      8  C   UNL     1       1.599   3.933  18.194  0.00  0.00    +0.000 A 
ATOM      9  C   UNL     1       0.781   2.872  18.609  0.00  0.00    +0.000 A 
ATOM     10  C   UNL     1       1.216   1.999  19.597  0.00  0.00    +0.000 A 
ATOM     11  C   UNL     1       2.471   2.178  20.162  0.00  0.00    +0.000 A 
ATOM     12  C   UNL     1       3.292   3.233  19.739  0.00  0.00    +0.000 A 
ENDBRANCH   4   7
BRANCH   4  13
ATOM     13  N   UNL     1       3.028   6.676  18.707  0.00  0.00    +0.000 N 
ATOM     14  C   UNL     1       2.781   7.677  17.661  0.00  0.00    +0.000 C 
ATOM     15  C   UNL     1       2.345   6.810  19.927  0.00  0.00    +0.000 C 
ATOM     16  O   UNL     1       2.295   5.957  20.812  0.00  0.00    +0.000 OA
BRANCH  15  17
ATOM     17  C   UNL     1       1.679   8.116  20.193  0.00  0.00    +0.000 C 
ATOM     18  C   UNL     1       0.899   8.254  21.281  0.00  0.00    +0.000 C 
BRANCH  18  19
ATOM     19  C   UNL     1       0.180   9.494  21.529  0.00  0.00    +0.000 A 
ATOM     20  C   UNL     1       0.013  10.415  20.484  0.00  0.00    +0.000 A 
ATOM     21  C   UNL     1      -0.644  11.626  20.711  0.00  0.00    +0.000 A 
ATOM     22  C   UNL     1      -1.142  11.923  21.978  0.00  0.00    +0.000 A 
ATOM     23  C   UNL     1      -0.987  11.010  23.021  0.00  0.00    +0.000 A 
ATOM     24  C   UNL     1      -0.331   9.796  22.797  0.00  0.00    +0.000 A 
ENDBRANCH  18  19
ENDBRANCH  15  17
ENDBRANCH   4  13
BRANCH   1  26
ATOM     25  C   UNL     1       7.884   4.405  17.720  0.00  0.00    +0.000 C 
ATOM     26  N   UNL     1       7.416   5.266  16.635  0.00  0.00    +0.000 NA
ATOM     27  C   UNL     1       7.078   4.440  15.474  0.00  0.00    +0.000 C 
ENDBRANCH   1  26
BRANCH   1  28
ATOM     28  C   UNL     1       7.152   7.785  16.781  0.00  0.00    +0.000 C 
BRANCH  28  29
ATOM     29  C   UNL     1       7.503   8.714  17.965  0.00  0.00    +0.000 C 
ATOM     30  C   UNL     1       8.775   8.330  18.721  0.00  0.00    +0.000 C 
ATOM     31  C   UNL     1       9.217   9.615  19.400  0.00  0.00    +0.000 C 
ATOM     32  C   UNL     1       8.961  10.686  18.355  0.00  0.00    +0.000 C 
ATOM     33  C   UNL     1       7.781  10.175  17.522  0.00  0.00    +0.000 C 
ENDBRANCH  28  29
ENDBRANCH   1  28
TORSDOF 7
ENDMDL
MODEL 3
REMARK VINA RESULT:      -7.8      2.355      6.979
REMARK  Name = 
REMARK  10 active torsions:
REMARK  status: ('A' for Active; 'I' for Inactive)
REMARK    1  A    between atoms: C_1  and  N_2
REMARK    2  A    between atoms: N_2  and  C_3
REMARK    3  A    between atoms: N_2  and  C_4
REMARK    4  A    between atoms: C_4  and  C_5
REMARK    5  A    between atoms: C_5  and  C_6
REMARK    6  A    between atoms: C_13  and  C_14
REMARK    7  A    between atoms: C_13  and  N_20
REMARK    8  A    between atoms: N_20  and  C_21
REMARK    9  A    between atoms: C_22  and  C_24
REMARK   10  A    between atoms: C_25  and  C_26
REMARK                            x       y       z     vdW  Elec       q    Type
REMARK                         _______ _______ _______ _____ _____    ______ ____
ROOT
ATOM      1  C   UNL     1       3.796   4.068  18.569  0.00  0.00    +0.000 C 
ATOM      2  C   UNL     1       5.351   4.061  18.548  0.00  0.00    +0.000 C 
ATOM      3  C   UNL     1       6.026   3.997  17.163  0.00  0.00    +0.000 C 
ATOM      4  C   UNL     1       5.529   5.037  16.087  0.00  0.00    +0.000 C 
ATOM      5  C   UNL     1       3.974   4.837  16.077  0.00  0.00    +0.000 C 
ATOM      6  C   UNL     1       3.339   5.048  17.446  0.00  0.00    +0.000 C 
ENDROOT
BRANCH   4   7
ATOM      7  C   UNL     1       6.135   4.653  14.699  0.00  0.00    +0.000 A 
ATOM      8  C   UNL     1       7.298   5.273  14.202  0.00  0.00    +0.000 A 
ATOM      9  C   UNL     1       7.804   4.981  12.928  0.00  0.00    +0.000 A 
ATOM     10  C   UNL     1       7.165   4.053  12.117  0.00  0.00    +0.000 A 
ATOM     11  C   UNL     1       6.027   3.408  12.583  0.00  0.00    +0.000 A 
ATOM     12  C   UNL     1       5.528   3.693  13.861  0.00  0.00    +0.000 A 
ENDBRANCH   4   7
BRANCH   4  13
ATOM     13  N   UNL     1       5.904   6.468  16.440  0.00  0.00    +0.000 N 
ATOM     14  C   UNL     1       4.896   7.529  16.320  0.00  0.00    +0.000 C 
ATOM     15  C   UNL     1       7.084   6.752  17.147  0.00  0.00    +0.000 C 
ATOM     16  O   UNL     1       7.921   5.922  17.498  0.00  0.00    +0.000 OA
BRANCH  15  17
ATOM     17  C   UNL     1       7.373   8.184  17.441  0.00  0.00    +0.000 C 
ATOM     18  C   UNL     1       8.487   8.511  18.121  0.00  0.00    +0.000 C 
BRANCH  18  19
ATOM     19  C   UNL     1       8.759   9.893  18.483  0.00  0.00    +0.000 A 
ATOM     20  C   UNL     1       9.348  10.178  19.725  0.00  0.00    +0.000 A 
ATOM     21  C   UNL     1       9.586  11.500  20.105  0.00  0.00    +0.000 A 
ATOM     22  C   UNL     1       9.243  12.545  19.249  0.00  0.00    +0.000 A 
ATOM     23  C   UNL     1       8.665  12.271  18.009  0.00  0.00    +0.000 A 
ATOM     24  C   UNL     1       8.427  10.948  17.625  0.00  0.00    +0.000 A 
ENDBRANCH  18  19
ENDBRANCH  15  17
ENDBRANCH   4  13
BRANCH   1  26
ATOM     25  C   UNL     1       3.616   1.767  19.542  0.00  0.00    +0.000 C 
ATOM     26  N   UNL     1       3.242   2.678  18.460  0.00  0.00    +0.000 NA
ATOM     27  C   UNL     1       1.820   2.508  18.156  0.00  0.00    +0.000 C 
ENDBRANCH   1  26
BRANCH   1  28
ATOM     28  C   UNL     1       3.275   4.754  19.918  0.00  0.00    +0.000 C 
BRANCH  28  29
ATOM     29  C   UNL     1       2.136   5.797  19.877  0.00  0.00    +0.000 C 
ATOM     30  C   UNL     1       1.459   6.054  21.223  0.00  0.00    +0.000 C 
ATOM     31  C   UNL     1       0.835   7.432  21.078  0.00  0.00    +0.000 C 
ATOM     32  C   UNL     1       1.882   8.227  20.319  0.00  0.00    +0.000 C 
ATOM     33  C   UNL     1       2.625   7.207  19.450  0.00  0.00    +0.000 C 
ENDBRANCH  28  29
ENDBRANCH   1  28
TORSDOF 7
ENDMDL
MODEL 4
REMARK VINA RESULT:      -7.7      3.519      7.641
REMARK  Name = 
REMARK  10 active torsions:
REMARK  status: ('A' for Active; 'I' for Inactive)
REMARK    1  A    between atoms: C_1  and  N_2
REMARK    2  A    between atoms: N_2  and  C_3
REMARK    3  A    between atoms: N_2  and  C_4
REMARK    4  A    between atoms: C_4  and  C_5
REMARK    5  A    between atoms: C_5  and  C_6
REMARK    6  A    between atoms: C_13  and  C_14
REMARK    7  A    between atoms: C_13  and  N_20
REMARK    8  A    between atoms: N_20  and  C_21
REMARK    9  A    between atoms: C_22  and  C_24
REMARK   10  A    between atoms: C_25  and  C_26
REMARK                            x       y       z     vdW  Elec       q    Type
REMARK                         _______ _______ _______ _____ _____    ______ ____
ROOT
ATOM      1  C   UNL     1       3.489   4.690  18.708  0.00  0.00    +0.000 C 
ATOM      2  C   UNL     1       4.786   3.833  18.689  0.00  0.00    +0.000 C 
ATOM      3  C   UNL     1       5.536   3.740  17.344  0.00  0.00    +0.000 C 
ATOM      4  C   UNL     1       5.841   5.102  16.611  0.00  0.00    +0.000 C 
ATOM      5  C   UNL     1       4.438   5.801  16.541  0.00  0.00    +0.000 C 
ATOM      6  C   UNL     1       3.802   5.993  17.913  0.00  0.00    +0.000 C 
ENDROOT
BRANCH   4   7
ATOM      7  C   UNL     1       6.364   4.792  15.171  0.00  0.00    +0.000 A 
ATOM      8  C   UNL     1       7.502   5.433  14.644  0.00  0.00    +0.000 A 
ATOM      9  C   UNL     1       7.933   5.209  13.329  0.00  0.00    +0.000 A 
ATOM     10  C   UNL     1       7.242   4.330  12.506  0.00  0.00    +0.000 A 
ATOM     11  C   UNL     1       6.127   3.666  13.000  0.00  0.00    +0.000 A 
ATOM     12  C   UNL     1       5.703   3.883  14.318  0.00  0.00    +0.000 A 
ENDBRANCH   4   7
BRANCH   4  13
ATOM     13  N   UNL     1       6.852   5.956  17.359  0.00  0.00    +0.000 N 
ATOM     14  C   UNL     1       7.939   5.305  18.100  0.00  0.00    +0.000 C 
ATOM     15  C   UNL     1       6.945   7.338  17.123  0.00  0.00    +0.000 C 
ATOM     16  O   UNL     1       6.226   7.980  16.360  0.00  0.00    +0.000 OA
BRANCH  15  17
ATOM     17  C   UNL     1       7.960   8.095  17.909  0.00  0.00    +0.000 C 
ATOM     18  C   UNL     1       8.020   9.435  17.801  0.00  0.00    +0.000 C 
BRANCH  18  19
ATOM     19  C   UNL     1       9.044  10.193  18.501  0.00  0.00    +0.000 A 
ATOM     20  C   UNL     1       9.009  10.269  19.902  0.00  0.00    +0.000 A 
ATOM     21  C   UNL     1       9.964  11.019  20.591  0.00  0.00    +0.000 A 
ATOM     22  C   UNL     1      10.961  11.694  19.888  0.00  0.00    +0.000 A 
ATOM     23  C   UNL     1      11.007  11.618  18.496  0.00  0.00    +0.000 A 
ATOM     24  C   UNL     1      10.054  10.866  17.804  0.00  0.00    +0.000 A 
ENDBRANCH  18  19
ENDBRANCH  15  17
ENDBRANCH   4  13
BRANCH   1  26
ATOM     25  C   UNL     1       1.342   4.671  17.419  0.00  0.00    +0.000 C 
ATOM     26  N   UNL     1       2.310   3.909  18.205  0.00  0.00    +0.000 NA
ATOM     27  C   UNL     1       2.546   2.616  17.559  0.00  0.00    +0.000 C 
ENDBRANCH   1  26
BRANCH   1  28
ATOM     28  C   UNL     1       3.201   5.204  20.196  0.00  0.00    +0.000 C 
BRANCH  28  29
ATOM     29  C   UNL     1       2.579   4.257  21.247  0.00  0.00    +0.000 C 
ATOM     30  C   UNL     1       1.133   3.852  20.963  0.00  0.00    +0.000 C 
ATOM     31  C   UNL     1       0.943   2.554  21.730  0.00  0.00    +0.000 C 
ATOM     32  C   UNL     1       2.248   1.811  21.515  0.00  0.00    +0.000 C 
ATOM     33  C   UNL     1       3.317   2.895  21.341  0.00  0.00    +0.000 C 
ENDBRANCH  28  29
ENDBRANCH   1  28
TORSDOF 7
ENDMDL
MODEL 5
REMARK VINA RESULT:      -7.6      3.666      7.442
REMARK  Name = 
REMARK  10 active torsions:
REMARK  status: ('A' for Active; 'I' for Inactive)
REMARK    1  A    between atoms: C_1  and  N_2
REMARK    2  A    between atoms: N_2  and  C_3
REMARK    3  A    between atoms: N_2  and  C_4
REMARK    4  A    between atoms: C_4  and  C_5
REMARK    5  A    between atoms: C_5  and  C_6
REMARK    6  A    between atoms: C_13  and  C_14
REMARK    7  A    between atoms: C_13  and  N_20
REMARK    8  A    between atoms: N_20  and  C_21
REMARK    9  A    between atoms: C_22  and  C_24
REMARK   10  A    between atoms: C_25  and  C_26
REMARK                            x       y       z     vdW  Elec       q    Type
REMARK                         _______ _______ _______ _____ _____    ______ ____
ROOT
ATOM      1  C   UNL     1       4.095   4.189  18.801  0.00  0.00    +0.000 C 
ATOM      2  C   UNL     1       5.647   4.203  18.722  0.00  0.00    +0.000 C 
ATOM      3  C   UNL     1       6.271   4.137  17.313  0.00  0.00    +0.000 C 
ATOM      4  C   UNL     1       5.721   5.163  16.249  0.00  0.00    +0.000 C 
ATOM      5  C   UNL     1       4.168   4.942  16.299  0.00  0.00    +0.000 C 
ATOM      6  C   UNL     1       3.583   5.155  17.690  0.00  0.00    +0.000 C 
ENDROOT
BRANCH   4   7
ATOM      7  C   UNL     1       6.279   4.775  14.842  0.00  0.00    +0.000 A 
ATOM      8  C   UNL     1       7.400   5.423  14.287  0.00  0.00    +0.000 A 
ATOM      9  C   UNL     1       7.861   5.127  12.997  0.00  0.00    +0.000 A 
ATOM     10  C   UNL     1       7.218   4.167  12.227  0.00  0.00    +0.000 A 
ATOM     11  C   UNL     1       6.121   3.495  12.750  0.00  0.00    +0.000 A 
ATOM     12  C   UNL     1       5.668   3.785  14.045  0.00  0.00    +0.000 A 
ENDBRANCH   4   7
BRANCH   4  13
ATOM     13  N   UNL     1       6.089   6.600  16.578  0.00  0.00    +0.000 N 
ATOM     14  C   UNL     1       5.081   7.657  16.425  0.00  0.00    +0.000 C 
ATOM     15  C   UNL     1       7.261   6.901  17.293  0.00  0.00    +0.000 C 
ATOM     16  O   UNL     1       8.095   6.079  17.670  0.00  0.00    +0.000 OA
BRANCH  15  17
ATOM     17  C   UNL     1       7.544   8.339  17.561  0.00  0.00    +0.000 C 
ATOM     18  C   UNL     1       8.594   8.677  18.332  0.00  0.00    +0.000 C 
BRANCH  18  19
ATOM     19  C   UNL     1       8.853  10.068  18.669  0.00  0.00    +0.000 A 
ATOM     20  C   UNL     1       8.568  11.069  17.728  0.00  0.00    +0.000 A 
ATOM     21  C   UNL     1       8.841  12.407  18.019  0.00  0.00    +0.000 A 
ATOM     22  C   UNL     1       9.396  12.754  19.250  0.00  0.00    +0.000 A 
ATOM     23  C   UNL     1       9.675  11.766  20.194  0.00  0.00    +0.000 A 
ATOM     24  C   UNL     1       9.400  10.426  19.906  0.00  0.00    +0.000 A 
ENDBRANCH  18  19
ENDBRANCH  15  17
ENDBRANCH   4  13
BRANCH   1  26
ATOM     25  C   UNL     1       2.987   2.409  17.432  0.00  0.00    +0.000 C 
ATOM     26  N   UNL     1       3.556   2.792  18.723  0.00  0.00    +0.000 NA
ATOM     27  C   UNL     1       4.375   1.691  19.234  0.00  0.00    +0.000 C 
ENDBRANCH   1  26
BRANCH   1  28
ATOM     28  C   UNL     1       3.615   4.879  20.164  0.00  0.00    +0.000 C 
BRANCH  28  29
ATOM     29  C   UNL     1       2.281   4.465  20.825  0.00  0.00    +0.000 C 
ATOM     30  C   UNL     1       1.226   3.938  19.854  0.00  0.00    +0.000 C 
ATOM     31  C   UNL     1       0.300   3.097  20.717  0.00  0.00    +0.000 C 
ATOM     32  C   UNL     1       1.242   2.369  21.658  0.00  0.00    +0.000 C 
ATOM     33  C   UNL     1       2.447   3.299  21.836  0.00  0.00    +0.000 C 
ENDBRANCH  28  29
ENDBRANCH   1  28
TORSDOF 7
ENDMDL
MODEL 6
REMARK VINA RESULT:      -7.4      1.881      7.199
REMARK  Name = 
REMARK  10 active torsions:
REMARK  status: ('A' for Active; 'I' for Inactive)
REMARK    1  A    between atoms: C_1  and  N_2
REMARK    2  A    between atoms: N_2  and  C_3
REMARK    3  A    between atoms: N_2  and  C_4
REMARK    4  A    between atoms: C_4  and  C_5
REMARK    5  A    between atoms: C_5  and  C_6
REMARK    6  A    between atoms: C_13  and  C_14
REMARK    7  A    between atoms: C_13  and  N_20
REMARK    8  A    between atoms: N_20  and  C_21
REMARK    9  A    between atoms: C_22  and  C_24
REMARK   10  A    between atoms: C_25  and  C_26
REMARK                            x       y       z     vdW  Elec       q    Type
REMARK                         _______ _______ _______ _____ _____    ______ ____
ROOT
ATOM      1  C   UNL     1       2.913   5.724  19.297  0.00  0.00    +0.000 C 
ATOM      2  C   UNL     1       4.087   4.721  19.473  0.00  0.00    +0.000 C 
ATOM      3  C   UNL     1       4.862   4.328  18.198  0.00  0.00    +0.000 C 
ATOM      4  C   UNL     1       5.366   5.512  17.286  0.00  0.00    +0.000 C 
ATOM      5  C   UNL     1       4.069   6.361  17.040  0.00  0.00    +0.000 C 
ATOM      6  C   UNL     1       3.420   6.840  18.333  0.00  0.00    +0.000 C 
ENDROOT
BRANCH   4   7
ATOM      7  C   UNL     1       5.891   4.920  15.939  0.00  0.00    +0.000 A 
ATOM      8  C   UNL     1       7.202   5.162  15.486  0.00  0.00    +0.000 A 
ATOM      9  C   UNL     1       7.655   4.691  14.245  0.00  0.00    +0.000 A 
ATOM     10  C   UNL     1       6.808   3.957  13.425  0.00  0.00    +0.000 A 
ATOM     11  C   UNL     1       5.514   3.684  13.848  0.00  0.00    +0.000 A 
ATOM     12  C   UNL     1       5.067   4.147  15.094  0.00  0.00    +0.000 A 
ENDBRANCH   4   7
BRANCH   4  13
ATOM     13  N   UNL     1       6.454   6.339  17.950  0.00  0.00    +0.000 N 
ATOM     14  C   UNL     1       7.289   5.731  18.994  0.00  0.00    +0.000 C 
ATOM     15  C   UNL     1       6.873   7.561  17.397  0.00  0.00    +0.000 C 
ATOM     16  O   UNL     1       6.396   8.088  16.393  0.00  0.00    +0.000 OA
BRANCH  15  17
ATOM     17  C   UNL     1       7.940   8.306  18.122  0.00  0.00    +0.000 C 
ATOM     18  C   UNL     1       8.087   9.628  17.913  0.00  0.00    +0.000 C 
BRANCH  18  19
ATOM     19  C   UNL     1       9.164  10.367  18.552  0.00  0.00    +0.000 A 
ATOM     20  C   UNL     1       9.174  10.500  19.949  0.00  0.00    +0.000 A 
ATOM     21  C   UNL     1      10.180  11.235  20.580  0.00  0.00    +0.000 A 
ATOM     22  C   UNL     1      11.183  11.837  19.822  0.00  0.00    +0.000 A 
ATOM     23  C   UNL     1      11.185  11.703  18.433  0.00  0.00    +0.000 A 
ATOM     24  C   UNL     1      10.180  10.966  17.800  0.00  0.00    +0.000 A 
ENDBRANCH  18  19
ENDBRANCH  15  17
ENDBRANCH   4  13
BRANCH   1  26
ATOM     25  C   UNL     1       1.680   4.504  17.490  0.00  0.00    +0.000 C 
ATOM     26  N   UNL     1       1.660   5.027  18.855  0.00  0.00    +0.000 NA
ATOM     27  C   UNL     1       1.057   4.032  19.744  0.00  0.00    +0.000 C 
ENDBRANCH   1  26
BRANCH   1  28
ATOM     28  C   UNL     1       2.647   6.494  20.674  0.00  0.00    +0.000 C 
BRANCH  28  29
ATOM     29  C   UNL     1       1.469   7.487  20.803  0.00  0.00    +0.000 C 
ATOM     30  C   UNL     1       1.558   8.429  22.002  0.00  0.00    +0.000 C 
ATOM     31  C   UNL     1       0.686   9.614  21.621  0.00  0.00    +0.000 C 
ATOM     32  C   UNL     1       0.995   9.835  20.152  0.00  0.00    +0.000 C 
ATOM     33  C   UNL     1       1.365   8.457  19.596  0.00  0.00    +0.000 C 
ENDBRANCH  28  29
ENDBRANCH   1  28
TORSDOF 7
ENDMDL
MODEL 7
REMARK VINA RESULT:      -7.3      4.108     10.903
REMARK  Name = 
REMARK  10 active torsions:
REMARK  status: ('A' for Active; 'I' for Inactive)
REMARK    1  A    between atoms: C_1  and  N_2
REMARK    2  A    between atoms: N_2  and  C_3
REMARK    3  A    between atoms: N_2  and  C_4
REMARK    4  A    between atoms: C_4  and  C_5
REMARK    5  A    between atoms: C_5  and  C_6
REMARK    6  A    between atoms: C_13  and  C_14
REMARK    7  A    between atoms: C_13  and  N_20
REMARK    8  A    between atoms: N_20  and  C_21
REMARK    9  A    between atoms: C_22  and  C_24
REMARK   10  A    between atoms: C_25  and  C_26
REMARK                            x       y       z     vdW  Elec       q    Type
REMARK                         _______ _______ _______ _____ _____    ______ ____
ROOT
ATOM      1  C   UNL     1      -2.742  13.321  21.511  0.00  0.00    +0.000 C 
ATOM      2  C   UNL     1      -2.417  13.261  19.992  0.00  0.00    +0.000 C 
ATOM      3  C   UNL     1      -0.960  13.554  19.582  0.00  0.00    +0.000 C 
ATOM      4  C   UNL     1       0.163  12.758  20.351  0.00  0.00    +0.000 C 
ATOM      5  C   UNL     1      -0.168  13.026  21.861  0.00  0.00    +0.000 C 
ATOM      6  C   UNL     1      -1.577  12.590  22.245  0.00  0.00    +0.000 C 
ENDROOT
BRANCH   4   7
ATOM      7  C   UNL     1       1.554  13.368  19.984  0.00  0.00    +0.000 A 
ATOM      8  C   UNL     1       2.425  13.871  20.970  0.00  0.00    +0.000 A 
ATOM      9  C   UNL     1       3.642  14.483  20.639  0.00  0.00    +0.000 A 
ATOM     10  C   UNL     1       4.027  14.601  19.311  0.00  0.00    +0.000 A 
ATOM     11  C   UNL     1       3.202  14.099  18.313  0.00  0.00    +0.000 A 
ATOM     12  C   UNL     1       1.990  13.478  18.646  0.00  0.00    +0.000 A 
ENDBRANCH   4   7
BRANCH   4  13
ATOM     13  N   UNL     1       0.148  11.271  20.034  0.00  0.00    +0.000 N 
ATOM     14  C   UNL     1      -0.323  10.818  18.719  0.00  0.00    +0.000 C 
ATOM     15  C   UNL     1       0.837  10.352  20.843  0.00  0.00    +0.000 C 
ATOM     16  O   UNL     1       1.456  10.631  21.869  0.00  0.00    +0.000 OA
BRANCH  15  17
ATOM     17  C   UNL     1       0.758   8.915  20.459  0.00  0.00    +0.000 C 
ATOM     18  C   UNL     1       1.892   8.207  20.299  0.00  0.00    +0.000 C 
BRANCH  18  19
ATOM     19  C   UNL     1       1.848   6.822  19.856  0.00  0.00    +0.000 A 
ATOM     20  C   UNL     1       1.414   5.827  20.746  0.00  0.00    +0.000 A 
ATOM     21  C   UNL     1       1.397   4.488  20.351  0.00  0.00    +0.000 A 
ATOM     22  C   UNL     1       1.807   4.134  19.067  0.00  0.00    +0.000 A 
ATOM     23  C   UNL     1       2.234   5.118  18.174  0.00  0.00    +0.000 A 
ATOM     24  C   UNL     1       2.249   6.459  18.566  0.00  0.00    +0.000 A 
ENDBRANCH  18  19
ENDBRANCH  15  17
ENDBRANCH   4  13
BRANCH   1  26
ATOM     25  C   UNL     1      -3.646  15.596  20.983  0.00  0.00    +0.000 C 
ATOM     26  N   UNL     1      -2.990  14.730  21.962  0.00  0.00    +0.000 NA
ATOM     27  C   UNL     1      -3.588  14.952  23.280  0.00  0.00    +0.000 C 
ENDBRANCH   1  26
BRANCH   1  28
ATOM     28  C   UNL     1      -4.025  12.418  21.827  0.00  0.00    +0.000 C 
BRANCH  28  29
ATOM     29  C   UNL     1      -5.379  12.713  21.142  0.00  0.00    +0.000 C 
ATOM     30  C   UNL     1      -5.779  11.707  20.063  0.00  0.00    +0.000 C 
ATOM     31  C   UNL     1      -7.290  11.841  19.961  0.00  0.00    +0.000 C 
ATOM     32  C   UNL     1      -7.740  11.991  21.402  0.00  0.00    +0.000 C 
ATOM     33  C   UNL     1      -6.575  12.670  22.130  0.00  0.00    +0.000 C 
ENDBRANCH  28  29
ENDBRANCH   1  28
TORSDOF 7
ENDMDL
MODEL 8
REMARK VINA RESULT:      -7.3      4.006      8.406
REMARK  Name = 
REMARK  10 active torsions:
REMARK  status: ('A' for Active; 'I' for Inactive)
REMARK    1  A    between atoms: C_1  and  N_2
REMARK    2  A    between atoms: N_2  and  C_3
REMARK    3  A    between atoms: N_2  and  C_4
REMARK    4  A    between atoms: C_4  and  C_5
REMARK    5  A    between atoms: C_5  and  C_6
REMARK    6  A    between atoms: C_13  and  C_14
REMARK    7  A    between atoms: C_13  and  N_20
REMARK    8  A    between atoms: N_20  and  C_21
REMARK    9  A    between atoms: C_22  and  C_24
REMARK   10  A    between atoms: C_25  and  C_26
REMARK                            x       y       z     vdW  Elec       q    Type
REMARK                         _______ _______ _______ _____ _____    ______ ____
ROOT
ATOM      1  C   UNL     1       1.738  13.678  20.378  0.00  0.00    +0.000 C 
ATOM      2  C   UNL     1       0.708  12.890  21.236  0.00  0.00    +0.000 C 
ATOM      3  C   UNL     1      -0.488  12.269  20.487  0.00  0.00    +0.000 C 
ATOM      4  C   UNL     1      -0.151  11.402  19.214  0.00  0.00    +0.000 C 
ATOM      5  C   UNL     1       0.750  12.355  18.352  0.00  0.00    +0.000 C 
ATOM      6  C   UNL     1       1.993  12.829  19.095  0.00  0.00    +0.000 C 
ENDROOT
BRANCH   4   7
ATOM      7  C   UNL     1      -1.481  11.082  18.457  0.00  0.00    +0.000 A 
ATOM      8  C   UNL     1      -1.533  10.119  17.431  0.00  0.00    +0.000 A 
ATOM      9  C   UNL     1      -2.707   9.878  16.703  0.00  0.00    +0.000 A 
ATOM     10  C   UNL     1      -3.865  10.589  16.988  0.00  0.00    +0.000 A 
ATOM     11  C   UNL     1      -3.854  11.533  18.007  0.00  0.00    +0.000 A 
ATOM     12  C   UNL     1      -2.682  11.765  18.741  0.00  0.00    +0.000 A 
ENDBRANCH   4   7
BRANCH   4  13
ATOM     13  N   UNL     1       0.575  10.112  19.560  0.00  0.00    +0.000 N 
ATOM     14  C   UNL     1       0.163   9.347  20.744  0.00  0.00    +0.000 C 
ATOM     15  C   UNL     1       1.421   9.488  18.629  0.00  0.00    +0.000 C 
ATOM     16  O   UNL     1       1.689   9.919  17.508  0.00  0.00    +0.000 OA
BRANCH  15  17
ATOM     17  C   UNL     1       2.096   8.231  19.060  0.00  0.00    +0.000 C 
ATOM     18  C   UNL     1       2.606   7.399  18.132  0.00  0.00    +0.000 C 
BRANCH  18  19
ATOM     19  C   UNL     1       3.208   6.133  18.519  0.00  0.00    +0.000 A 
ATOM     20  C   UNL     1       2.457   5.212  19.266  0.00  0.00    +0.000 A 
ATOM     21  C   UNL     1       3.028   4.006  19.676  0.00  0.00    +0.000 A 
ATOM     22  C   UNL     1       4.347   3.709  19.340  0.00  0.00    +0.000 A 
ATOM     23  C   UNL     1       5.099   4.615  18.592  0.00  0.00    +0.000 A 
ATOM     24  C   UNL     1       4.529   5.822  18.178  0.00  0.00    +0.000 A 
ENDBRANCH  18  19
ENDBRANCH  15  17
ENDBRANCH   4  13
BRANCH   1  26
ATOM     25  C   UNL     1       1.478  15.575  18.764  0.00  0.00    +0.000 C 
ATOM     26  N   UNL     1       1.279  15.084  20.127  0.00  0.00    +0.000 NA
ATOM     27  C   UNL     1      -0.049  15.485  20.596  0.00  0.00    +0.000 C 
ENDBRANCH   1  26
BRANCH   1  28
ATOM     28  C   UNL     1       3.158  13.696  21.118  0.00  0.00    +0.000 C 
BRANCH  28  29
ATOM     29  C   UNL     1       3.830  15.037  21.491  0.00  0.00    +0.000 C 
ATOM     30  C   UNL     1       4.495  15.055  22.866  0.00  0.00    +0.000 C 
ATOM     31  C   UNL     1       5.522  16.171  22.778  0.00  0.00    +0.000 C 
ATOM     32  C   UNL     1       6.109  16.016  21.387  0.00  0.00    +0.000 C 
ATOM     33  C   UNL     1       4.989  15.417  20.531  0.00  0.00    +0.000 C 
ENDBRANCH  28  29
ENDBRANCH   1  28
TORSDOF 7
ENDMDL
MODEL 9
REMARK VINA RESULT:      -7.3      3.926      8.407
REMARK  Name = 
REMARK  10 active torsions:
REMARK  status: ('A' for Active; 'I' for Inactive)
REMARK    1  A    between atoms: C_1  and  N_2
REMARK    2  A    between atoms: N_2  and  C_3
REMARK    3  A    between atoms: N_2  and  C_4
REMARK    4  A    between atoms: C_4  and  C_5
REMARK    5  A    between atoms: C_5  and  C_6
REMARK    6  A    between atoms: C_13  and  C_14
REMARK    7  A    between atoms: C_13  and  N_20
REMARK    8  A    between atoms: N_20  and  C_21
REMARK    9  A    between atoms: C_22  and  C_24
REMARK   10  A    between atoms: C_25  and  C_26
REMARK                            x       y       z     vdW  Elec       q    Type
REMARK                         _______ _______ _______ _____ _____    ______ ____
ROOT
ATOM      1  C   UNL     1       1.770  13.748  20.429  0.00  0.00    +0.000 C 
ATOM      2  C   UNL     1       0.790  12.919  21.305  0.00  0.00    +0.000 C 
ATOM      3  C   UNL     1      -0.430  12.303  20.590  0.00  0.00    +0.000 C 
ATOM      4  C   UNL     1      -0.136  11.481  19.277  0.00  0.00    +0.000 C 
ATOM      5  C   UNL     1       0.713  12.473  18.407  0.00  0.00    +0.000 C 
ATOM      6  C   UNL     1       1.980  12.943  19.111  0.00  0.00    +0.000 C 
ENDROOT
BRANCH   4   7
ATOM      7  C   UNL     1      -1.492  11.162  18.568  0.00  0.00    +0.000 A 
ATOM      8  C   UNL     1      -2.671  11.869  18.877  0.00  0.00    +0.000 A 
ATOM      9  C   UNL     1      -3.904  11.539  18.295  0.00  0.00    +0.000 A 
ATOM     10  C   UNL     1      -3.989  10.498  17.381  0.00  0.00    +0.000 A 
ATOM     11  C   UNL     1      -2.843   9.793  17.039  0.00  0.00    +0.000 A 
ATOM     12  C   UNL     1      -1.610  10.130  17.614  0.00  0.00    +0.000 A 
ENDBRANCH   4   7
BRANCH   4  13
ATOM     13  N   UNL     1       0.622  10.192  19.551  0.00  0.00    +0.000 N 
ATOM     14  C   UNL     1       0.282   9.391  20.734  0.00  0.00    +0.000 C 
ATOM     15  C   UNL     1       1.427   9.603  18.561  0.00  0.00    +0.000 C 
ATOM     16  O   UNL     1       1.632  10.066  17.441  0.00  0.00    +0.000 OA
BRANCH  15  17
ATOM     17  C   UNL     1       2.139   8.345  18.924  0.00  0.00    +0.000 C 
ATOM     18  C   UNL     1       2.550   7.510  17.951  0.00  0.00    +0.000 C 
BRANCH  18  19
ATOM     19  C   UNL     1       3.184   6.243  18.277  0.00  0.00    +0.000 A 
ATOM     20  C   UNL     1       4.112   5.686  17.383  0.00  0.00    +0.000 A 
ATOM     21  C   UNL     1       4.706   4.453  17.662  0.00  0.00    +0.000 A 
ATOM     22  C   UNL     1       4.383   3.773  18.835  0.00  0.00    +0.000 A 
ATOM     23  C   UNL     1       3.468   4.322  19.733  0.00  0.00    +0.000 A 
ATOM     24  C   UNL     1       2.873   5.557  19.457  0.00  0.00    +0.000 A 
ENDBRANCH  18  19
ENDBRANCH  15  17
ENDBRANCH   4  13
BRANCH   1  26
ATOM     25  C   UNL     1       0.852  15.494  18.886  0.00  0.00    +0.000 C 
ATOM     26  N   UNL     1       1.280  15.154  20.242  0.00  0.00    +0.000 NA
ATOM     27  C   UNL     1       0.318  15.699  21.202  0.00  0.00    +0.000 C 
ENDBRANCH   1  26
BRANCH   1  28
ATOM     28  C   UNL     1       3.220  13.766  21.107  0.00  0.00    +0.000 C 
BRANCH  28  29
ATOM     29  C   UNL     1       4.142  14.997  20.952  0.00  0.00    +0.000 C 
ATOM     30  C   UNL     1       5.293  15.061  21.955  0.00  0.00    +0.000 C 
ATOM     31  C   UNL     1       6.329  15.951  21.290  0.00  0.00    +0.000 C 
ATOM     32  C   UNL     1       6.296  15.523  19.834  0.00  0.00    +0.000 C 
ATOM     33  C   UNL     1       4.864  15.040  19.579  0.00  0.00    +0.000 C 
ENDBRANCH  28  29
ENDBRANCH   1  28
TORSDOF 7
ENDMDL
