MODEL 1
REMARK VINA RESULT:      -6.8      0.000      0.000
REMARK  Name = 
REMARK  7 active torsions:
REMARK  status: ('A' for Active; 'I' for Inactive)
REMARK    1  A    between atoms: C_1  and  C_2
REMARK    2  A    between atoms: C_2  and  O_3
REMARK    3  A    between atoms: O_3  and  C_4
REMARK    4  A    between atoms: C_4  and  C_6
REMARK    5  A    between atoms: N_9  and  C_10
REMARK    6  A    between atoms: C_13  and  C_14
REMARK    7  A    between atoms: C_19  and  C_20
REMARK                            x       y       z     vdW  Elec       q    Type
REMARK                         _______ _______ _______ _____ _____    ______ ____
ROOT
ATOM      1  C   UNL     1       2.199   3.702  18.518  0.00  0.00    +0.000 A 
ATOM      2  S   UNL     1       3.347   2.446  18.232  0.00  0.00    +0.000 S 
ATOM      3  C   UNL     1       4.341   3.531  17.350  0.00  0.00    +0.000 A 
ATOM      4  N   UNL     1       5.507   3.110  16.811  0.00  0.00    +0.000 N 
ATOM      5  N   UNL     1       3.876   4.754  17.286  0.00  0.00    +0.000 NA
ATOM      6  C   UNL     1       2.684   4.874  17.968  0.00  0.00    +0.000 A 
ATOM      7  H   UNL     1       5.880   2.215  17.088  0.00  0.00    +0.000 HD
ENDROOT
BRANCH   4   8
ATOM      8  C   UNL     1       6.110   3.682  15.675  0.00  0.00    +0.000 A 
ATOM      9  C   UNL     1       7.049   4.704  15.836  0.00  0.00    +0.000 A 
ATOM     10  C   UNL     1       7.607   5.345  14.725  0.00  0.00    +0.000 A 
ATOM     11  C   UNL     1       7.242   4.975  13.423  0.00  0.00    +0.000 A 
ATOM     12  C   UNL     1       7.833   5.690  12.244  0.00  0.00    +0.000 C 
ATOM     13  C   UNL     1       6.309   3.946  13.259  0.00  0.00    +0.000 A 
ATOM     14 CL   UNL     1       5.808   3.409  11.695  0.00  0.00    +0.000 Cl
ATOM     15  C   UNL     1       5.744   3.318  14.371  0.00  0.00    +0.000 A 
ENDBRANCH   4   8
BRANCH   6  16
ATOM     16  C   UNL     1       2.023   6.248  18.087  0.00  0.00    +0.000 C 
ATOM     17  C   UNL     1       2.463   7.132  19.243  0.00  0.00    +0.000 C 
ATOM     18  C   UNL     1       2.883   7.475  17.856  0.00  0.00    +0.000 C 
ENDBRANCH   6  16
BRANCH   1  19
ATOM     19  C   UNL     1       1.001   3.472  19.292  0.00  0.00    +0.000 C 
ATOM     20  O   UNL     1       0.066   2.749  18.967  0.00  0.00    +0.000 OA
BRANCH  19  21
ATOM     21  O   UNL     1       0.999   4.245  20.416  0.00  0.00    +0.000 OA
BRANCH  21  23
ATOM     22  C   UNL     1       1.748   2.559  21.925  0.00  0.00    +0.000 C 
ATOM     23  C   UNL     1       2.017   3.950  21.377  0.00  0.00    +0.000 C 
ENDBRANCH  21  23
ENDBRANCH  19  21
ENDBRANCH   1  19
TORSDOF 5
ENDMDL
MODEL 2
REMARK VINA RESULT:      -6.4      5.849      8.045
REMARK  Name = 
REMARK  7 active torsions:
REMARK  status: ('A' for Active; 'I' for Inactive)
REMARK    1  A    between atoms: C_1  and  C_2
REMARK    2  A    between atoms: C_2  and  O_3
REMARK    3  A    between atoms: O_3  and  C_4
REMARK    4  A    between atoms: C_4  and  C_6
REMARK    5  A    between atoms: N_9  and  C_10
REMARK    6  A    between atoms: C_13  and  C_14
REMARK    7  A    between atoms: C_19  and  C_20
REMARK                            x       y       z     vdW  Elec       q    Type
REMARK                         _______ _______ _______ _____ _____    ______ ____
ROOT
ATOM      1  C   UNL     1      -0.453  10.518  22.075  0.00  0.00    +0.000 A 
ATOM      2  S   UNL     1       0.704   9.520  22.879  0.00  0.00    +0.000 S 
ATOM      3  C   UNL     1       1.092   8.746  21.399  0.00  0.00    +0.000 A 
ATOM      4  N   UNL     1       2.024   7.769  21.358  0.00  0.00    +0.000 N 
ATOM      5  N   UNL     1       0.432   9.205  20.363  0.00  0.00    +0.000 NA
ATOM      6  C   UNL     1      -0.419  10.227  20.724  0.00  0.00    +0.000 A 
ATOM      7  H   UNL     1       2.623   7.630  22.158  0.00  0.00    +0.000 HD
ENDROOT
BRANCH   4   8
ATOM      8  C   UNL     1       2.050   6.731  20.407  0.00  0.00    +0.000 A 
ATOM      9  C   UNL     1       2.514   6.994  19.116  0.00  0.00    +0.000 A 
ATOM     10  C   UNL     1       2.478   6.004  18.127  0.00  0.00    +0.000 A 
ATOM     11  C   UNL     1       1.980   4.725  18.409  0.00  0.00    +0.000 A 
ATOM     12  C   UNL     1       1.927   3.684  17.330  0.00  0.00    +0.000 C 
ATOM     13  C   UNL     1       1.523   4.458  19.704  0.00  0.00    +0.000 A 
ATOM     14 CL   UNL     1       0.906   2.906  20.151  0.00  0.00    +0.000 Cl
ATOM     15  C   UNL     1       1.548   5.452  20.683  0.00  0.00    +0.000 A 
ENDBRANCH   4   8
BRANCH   6  16
ATOM     16  C   UNL     1      -1.214  10.958  19.641  0.00  0.00    +0.000 C 
ATOM     17  C   UNL     1      -0.448  11.916  18.744  0.00  0.00    +0.000 C 
ATOM     18  C   UNL     1      -0.926  10.618  18.192  0.00  0.00    +0.000 C 
ENDBRANCH   6  16
BRANCH   1  19
ATOM     19  C   UNL     1      -1.215  11.519  22.786  0.00  0.00    +0.000 C 
ATOM     20  O   UNL     1      -2.395  11.429  23.102  0.00  0.00    +0.000 OA
BRANCH  19  21
ATOM     21  O   UNL     1      -0.463  12.639  22.990  0.00  0.00    +0.000 OA
BRANCH  21  23
ATOM     22  C   UNL     1      -1.234  14.672  23.968  0.00  0.00    +0.000 C 
ATOM     23  C   UNL     1      -1.100  13.882  22.678  0.00  0.00    +0.000 C 
ENDBRANCH  21  23
ENDBRANCH  19  21
ENDBRANCH   1  19
TORSDOF 5
ENDMDL
MODEL 3
REMARK VINA RESULT:      -6.4      4.629      7.814
REMARK  Name = 
REMARK  7 active torsions:
REMARK  status: ('A' for Active; 'I' for Inactive)
REMARK    1  A    between atoms: C_1  and  C_2
REMARK    2  A    between atoms: C_2  and  O_3
REMARK    3  A    between atoms: O_3  and  C_4
REMARK    4  A    between atoms: C_4  and  C_6
REMARK    5  A    between atoms: N_9  and  C_10
REMARK    6  A    between atoms: C_13  and  C_14
REMARK    7  A    between atoms: C_19  and  C_20
REMARK                            x       y       z     vdW  Elec       q    Type
REMARK                         _______ _______ _______ _____ _____    ______ ____
ROOT
ATOM      1  C   UNL     1       3.839   5.593  18.394  0.00  0.00    +0.000 A 
ATOM      2  S   UNL     1       4.022   7.033  17.460  0.00  0.00    +0.000 S 
ATOM      3  C   UNL     1       2.793   7.803  18.373  0.00  0.00    +0.000 A 
ATOM      4  N   UNL     1       2.433   9.078  18.102  0.00  0.00    +0.000 N 
ATOM      5  N   UNL     1       2.287   7.062  19.328  0.00  0.00    +0.000 NA
ATOM      6  C   UNL     1       2.890   5.823  19.373  0.00  0.00    +0.000 A 
ATOM      7  H   UNL     1       3.016   9.633  17.495  0.00  0.00    +0.000 HD
ENDROOT
BRANCH   4   8
ATOM      8  C   UNL     1       1.159   9.618  18.363  0.00  0.00    +0.000 A 
ATOM      9  C   UNL     1       0.115   9.381  17.465  0.00  0.00    +0.000 A 
ATOM     10  C   UNL     1      -1.140   9.970  17.656  0.00  0.00    +0.000 A 
ATOM     11  C   UNL     1      -1.381  10.808  18.753  0.00  0.00    +0.000 A 
ATOM     12  C   UNL     1      -2.727  11.449  18.928  0.00  0.00    +0.000 C 
ATOM     13  C   UNL     1      -0.340  11.040  19.658  0.00  0.00    +0.000 A 
ATOM     14 CL   UNL     1      -0.546  12.044  21.049  0.00  0.00    +0.000 Cl
ATOM     15  C   UNL     1       0.915  10.461  19.456  0.00  0.00    +0.000 A 
ENDBRANCH   4   8
BRANCH   6  16
ATOM     16  C   UNL     1       2.503   4.840  20.479  0.00  0.00    +0.000 C 
ATOM     17  C   UNL     1       1.059   4.367  20.513  0.00  0.00    +0.000 C 
ATOM     18  C   UNL     1       2.128   3.427  20.078  0.00  0.00    +0.000 C 
ENDBRANCH   6  16
BRANCH   1  19
ATOM     19  C   UNL     1       4.656   4.425  18.156  0.00  0.00    +0.000 C 
ATOM     20  O   UNL     1       5.476   3.955  18.937  0.00  0.00    +0.000 OA
BRANCH  19  21
ATOM     21  O   UNL     1       4.461   3.950  16.893  0.00  0.00    +0.000 OA
BRANCH  21  23
ATOM     22  C   UNL     1       5.543   4.692  14.903  0.00  0.00    +0.000 C 
ATOM     23  C   UNL     1       5.642   3.770  16.105  0.00  0.00    +0.000 C 
ENDBRANCH  21  23
ENDBRANCH  19  21
ENDBRANCH   1  19
TORSDOF 5
ENDMDL
MODEL 4
REMARK VINA RESULT:      -6.4      4.280      7.386
REMARK  Name = 
REMARK  7 active torsions:
REMARK  status: ('A' for Active; 'I' for Inactive)
REMARK    1  A    between atoms: C_1  and  C_2
REMARK    2  A    between atoms: C_2  and  O_3
REMARK    3  A    between atoms: O_3  and  C_4
REMARK    4  A    between atoms: C_4  and  C_6
REMARK    5  A    between atoms: N_9  and  C_10
REMARK    6  A    between atoms: C_13  and  C_14
REMARK    7  A    between atoms: C_19  and  C_20
REMARK                            x       y       z     vdW  Elec       q    Type
REMARK                         _______ _______ _______ _____ _____    ______ ____
ROOT
ATOM      1  C   UNL     1       3.716   5.534  18.392  0.00  0.00    +0.000 A 
ATOM      2  S   UNL     1       3.963   6.901  17.368  0.00  0.00    +0.000 S 
ATOM      3  C   UNL     1       2.829   7.810  18.277  0.00  0.00    +0.000 A 
ATOM      4  N   UNL     1       2.549   9.090  17.944  0.00  0.00    +0.000 N 
ATOM      5  N   UNL     1       2.311   7.163  19.292  0.00  0.00    +0.000 NA
ATOM      6  C   UNL     1       2.827   5.888  19.389  0.00  0.00    +0.000 A 
ATOM      7  H   UNL     1       3.145   9.566  17.284  0.00  0.00    +0.000 HD
ENDROOT
BRANCH   4   8
ATOM      8  C   UNL     1       1.328   9.736  18.218  0.00  0.00    +0.000 A 
ATOM      9  C   UNL     1       1.250  10.632  19.287  0.00  0.00    +0.000 A 
ATOM     10  C   UNL     1       0.032  11.229  19.633  0.00  0.00    +0.000 A 
ATOM     11  C   UNL     1      -1.137  10.946  18.912  0.00  0.00    +0.000 A 
ATOM     12  C   UNL     1      -2.437  11.577  19.312  0.00  0.00    +0.000 C 
ATOM     13  C   UNL     1      -1.058  10.055  17.837  0.00  0.00    +0.000 A 
ATOM     14 CL   UNL     1      -2.441   9.657  16.880  0.00  0.00    +0.000 Cl
ATOM     15  C   UNL     1       0.156   9.452  17.504  0.00  0.00    +0.000 A 
ENDBRANCH   4   8
BRANCH   6  16
ATOM     16  C   UNL     1       2.416   5.001  20.565  0.00  0.00    +0.000 C 
ATOM     17  C   UNL     1       1.016   4.409  20.533  0.00  0.00    +0.000 C 
ATOM     18  C   UNL     1       2.192   3.525  20.301  0.00  0.00    +0.000 C 
ENDBRANCH   6  16
BRANCH   1  19
ATOM     19  C   UNL     1       4.439   4.299  18.195  0.00  0.00    +0.000 C 
ATOM     20  O   UNL     1       4.150   3.420  17.392  0.00  0.00    +0.000 OA
BRANCH  19  21
ATOM     21  O   UNL     1       5.459   4.190  19.096  0.00  0.00    +0.000 OA
BRANCH  21  23
ATOM     22  C   UNL     1       7.409   4.741  17.842  0.00  0.00    +0.000 C 
ATOM     23  C   UNL     1       6.498   5.166  18.981  0.00  0.00    +0.000 C 
ENDBRANCH  21  23
ENDBRANCH  19  21
ENDBRANCH   1  19
TORSDOF 5
ENDMDL
MODEL 5
REMARK VINA RESULT:      -6.4      4.390      7.508
REMARK  Name = 
REMARK  7 active torsions:
REMARK  status: ('A' for Active; 'I' for Inactive)
REMARK    1  A    between atoms: C_1  and  C_2
REMARK    2  A    between atoms: C_2  and  O_3
REMARK    3  A    between atoms: O_3  and  C_4
REMARK    4  A    between atoms: C_4  and  C_6
REMARK    5  A    between atoms: N_9  and  C_10
REMARK    6  A    between atoms: C_13  and  C_14
REMARK    7  A    between atoms: C_19  and  C_20
REMARK                            x       y       z     vdW  Elec       q    Type
REMARK                         _______ _______ _______ _____ _____    ______ ____
ROOT
ATOM      1  C   UNL     1       6.368   5.391  17.630  0.00  0.00    +0.000 A 
ATOM      2  S   UNL     1       4.821   4.687  17.930  0.00  0.00    +0.000 S 
ATOM      3  C   UNL     1       4.090   6.238  17.899  0.00  0.00    +0.000 A 
ATOM      4  N   UNL     1       2.759   6.373  18.089  0.00  0.00    +0.000 N 
ATOM      5  N   UNL     1       4.923   7.220  17.657  0.00  0.00    +0.000 NA
ATOM      6  C   UNL     1       6.207   6.754  17.471  0.00  0.00    +0.000 A 
ATOM      7  H   UNL     1       2.174   5.552  18.059  0.00  0.00    +0.000 HD
ENDROOT
BRANCH   4   8
ATOM      8  C   UNL     1       2.142   7.525  18.613  0.00  0.00    +0.000 A 
ATOM      9  C   UNL     1       1.842   8.592  17.762  0.00  0.00    +0.000 A 
ATOM     10  C   UNL     1       1.302   9.780  18.266  0.00  0.00    +0.000 A 
ATOM     11  C   UNL     1       1.045   9.928  19.636  0.00  0.00    +0.000 A 
ATOM     12  C   UNL     1       0.488  11.218  20.161  0.00  0.00    +0.000 C 
ATOM     13  C   UNL     1       1.337   8.858  20.489  0.00  0.00    +0.000 A 
ATOM     14 CL   UNL     1       1.040   8.940  22.189  0.00  0.00    +0.000 Cl
ATOM     15  C   UNL     1       1.888   7.680  19.983  0.00  0.00    +0.000 A 
ENDBRANCH   4   8
BRANCH   6  16
ATOM     16  C   UNL     1       7.313   7.738  17.087  0.00  0.00    +0.000 C 
ATOM     17  C   UNL     1       7.295   9.101  17.760  0.00  0.00    +0.000 C 
ATOM     18  C   UNL     1       8.337   8.108  18.143  0.00  0.00    +0.000 C 
ENDBRANCH   6  16
BRANCH   1  19
ATOM     19  C   UNL     1       7.558   4.580  17.501  0.00  0.00    +0.000 C 
ATOM     20  O   UNL     1       8.268   4.200  18.424  0.00  0.00    +0.000 OA
BRANCH  19  21
ATOM     21  O   UNL     1       7.848   4.358  16.186  0.00  0.00    +0.000 OA
BRANCH  21  23
ATOM     22  C   UNL     1       6.905   4.772  14.037  0.00  0.00    +0.000 C 
ATOM     23  C   UNL     1       6.735   4.029  15.350  0.00  0.00    +0.000 C 
ENDBRANCH  21  23
ENDBRANCH  19  21
ENDBRANCH   1  19
TORSDOF 5
ENDMDL
MODEL 6
REMARK VINA RESULT:      -6.4      5.198      7.476
REMARK  Name = 
REMARK  7 active torsions:
REMARK  status: ('A' for Active; 'I' for Inactive)
REMARK    1  A    between atoms: C_1  and  C_2
REMARK    2  A    between atoms: C_2  and  O_3
REMARK    3  A    between atoms: O_3  and  C_4
REMARK    4  A    between atoms: C_4  and  C_6
REMARK    5  A    between atoms: N_9  and  C_10
REMARK    6  A    between atoms: C_13  and  C_14
REMARK    7  A    between atoms: C_19  and  C_20
REMARK                            x       y       z     vdW  Elec       q    Type
REMARK                         _______ _______ _______ _____ _____    ______ ____
ROOT
ATOM      1  C   UNL     1       0.192  10.400  21.384  0.00  0.00    +0.000 A 
ATOM      2  S   UNL     1       0.997   9.246  22.382  0.00  0.00    +0.000 S 
ATOM      3  C   UNL     1       1.453   8.340  21.000  0.00  0.00    +0.000 A 
ATOM      4  N   UNL     1       2.175   7.205  21.129  0.00  0.00    +0.000 N 
ATOM      5  N   UNL     1       1.062   8.862  19.863  0.00  0.00    +0.000 NA
ATOM      6  C   UNL     1       0.378  10.041  20.061  0.00  0.00    +0.000 A 
ATOM      7  H   UNL     1       2.605   6.997  22.018  0.00  0.00    +0.000 HD
ENDROOT
BRANCH   4   8
ATOM      8  C   UNL     1       2.148   6.135  20.215  0.00  0.00    +0.000 A 
ATOM      9  C   UNL     1       1.276   5.066  20.435  0.00  0.00    +0.000 A 
ATOM     10  C   UNL     1       1.282   3.951  19.588  0.00  0.00    +0.000 A 
ATOM     11  C   UNL     1       2.161   3.883  18.498  0.00  0.00    +0.000 A 
ATOM     12  C   UNL     1       2.169   2.670  17.615  0.00  0.00    +0.000 C 
ATOM     13  C   UNL     1       3.029   4.956  18.272  0.00  0.00    +0.000 A 
ATOM     14 CL   UNL     1       4.136   4.969  16.945  0.00  0.00    +0.000 Cl
ATOM     15  C   UNL     1       3.028   6.059  19.127  0.00  0.00    +0.000 A 
ENDBRANCH   4   8
BRANCH   6  16
ATOM     16  C   UNL     1      -0.085  10.853  18.850  0.00  0.00    +0.000 C 
ATOM     17  C   UNL     1      -1.158  10.236  17.969  0.00  0.00    +0.000 C 
ATOM     18  C   UNL     1      -1.504  11.386  18.849  0.00  0.00    +0.000 C 
ENDBRANCH   6  16
BRANCH   1  19
ATOM     19  C   UNL     1      -0.465  11.560  21.942  0.00  0.00    +0.000 C 
ATOM     20  O   UNL     1       0.021  12.680  22.038  0.00  0.00    +0.000 OA
BRANCH  19  21
ATOM     21  O   UNL     1      -1.690  11.225  22.441  0.00  0.00    +0.000 OA
BRANCH  21  23
ATOM     22  C   UNL     1      -3.530  12.716  22.172  0.00  0.00    +0.000 C 
ATOM     23  C   UNL     1      -2.405  12.278  23.094  0.00  0.00    +0.000 C 
ENDBRANCH  21  23
ENDBRANCH  19  21
ENDBRANCH   1  19
TORSDOF 5
ENDMDL
MODEL 7
REMARK VINA RESULT:      -6.3      4.415      7.725
REMARK  Name = 
REMARK  7 active torsions:
REMARK  status: ('A' for Active; 'I' for Inactive)
REMARK    1  A    between atoms: C_1  and  C_2
REMARK    2  A    between atoms: C_2  and  O_3
REMARK    3  A    between atoms: O_3  and  C_4
REMARK    4  A    between atoms: C_4  and  C_6
REMARK    5  A    between atoms: N_9  and  C_10
REMARK    6  A    between atoms: C_13  and  C_14
REMARK    7  A    between atoms: C_19  and  C_20
REMARK                            x       y       z     vdW  Elec       q    Type
REMARK                         _______ _______ _______ _____ _____    ______ ____
ROOT
ATOM      1  C   UNL     1       3.479   5.001  17.592  0.00  0.00    +0.000 A 
ATOM      2  S   UNL     1       4.050   6.617  17.395  0.00  0.00    +0.000 S 
ATOM      3  C   UNL     1       2.761   7.209  18.359  0.00  0.00    +0.000 A 
ATOM      4  N   UNL     1       2.639   8.532  18.606  0.00  0.00    +0.000 N 
ATOM      5  N   UNL     1       1.966   6.277  18.824  0.00  0.00    +0.000 NA
ATOM      6  C   UNL     1       2.378   5.023  18.427  0.00  0.00    +0.000 A 
ATOM      7  H   UNL     1       3.409   9.145  18.383  0.00  0.00    +0.000 HD
ENDROOT
BRANCH   4   8
ATOM      8  C   UNL     1       1.421   9.182  18.883  0.00  0.00    +0.000 A 
ATOM      9  C   UNL     1       0.612   9.605  17.825  0.00  0.00    +0.000 A 
ATOM     10  C   UNL     1      -0.565  10.323  18.067  0.00  0.00    +0.000 A 
ATOM     11  C   UNL     1      -0.961  10.631  19.376  0.00  0.00    +0.000 A 
ATOM     12  C   UNL     1      -2.214  11.422  19.614  0.00  0.00    +0.000 C 
ATOM     13  C   UNL     1      -0.157  10.202  20.436  0.00  0.00    +0.000 A 
ATOM     14 CL   UNL     1      -0.572  10.520  22.083  0.00  0.00    +0.000 Cl
ATOM     15  C   UNL     1       1.023   9.497  20.189  0.00  0.00    +0.000 A 
ENDBRANCH   4   8
BRANCH   6  16
ATOM     16  C   UNL     1       1.632   3.791  18.941  0.00  0.00    +0.000 C 
ATOM     17  C   UNL     1       2.135   3.162  20.230  0.00  0.00    +0.000 C 
ATOM     18  C   UNL     1       0.852   3.918  20.236  0.00  0.00    +0.000 C 
ENDBRANCH   6  16
BRANCH   1  19
ATOM     19  C   UNL     1       4.169   3.876  17.003  0.00  0.00    +0.000 C 
ATOM     20  O   UNL     1       4.308   2.772  17.518  0.00  0.00    +0.000 OA
BRANCH  19  21
ATOM     21  O   UNL     1       4.735   4.228  15.813  0.00  0.00    +0.000 OA
BRANCH  21  23
ATOM     22  C   UNL     1       7.020   4.877  15.613  0.00  0.00    +0.000 C 
ATOM     23  C   UNL     1       6.047   3.711  15.570  0.00  0.00    +0.000 C 
ENDBRANCH  21  23
ENDBRANCH  19  21
ENDBRANCH   1  19
TORSDOF 5
ENDMDL
MODEL 8
REMARK VINA RESULT:      -6.3      5.149      7.376
REMARK  Name = 
REMARK  7 active torsions:
REMARK  status: ('A' for Active; 'I' for Inactive)
REMARK    1  A    between atoms: C_1  and  C_2
REMARK    2  A    between atoms: C_2  and  O_3
REMARK    3  A    between atoms: O_3  and  C_4
REMARK    4  A    between atoms: C_4  and  C_6
REMARK    5  A    between atoms: N_9  and  C_10
REMARK    6  A    between atoms: C_13  and  C_14
REMARK    7  A    between atoms: C_19  and  C_20
REMARK                            x       y       z     vdW  Elec       q    Type
REMARK                         _______ _______ _______ _____ _____    ______ ____
ROOT
ATOM      1  C   UNL     1       0.331  10.469  21.150  0.00  0.00    +0.000 A 
ATOM      2  S   UNL     1       0.621   9.169  22.247  0.00  0.00    +0.000 S 
ATOM      3  C   UNL     1       1.351   8.252  20.996  0.00  0.00    +0.000 A 
ATOM      4  N   UNL     1       1.834   7.014  21.244  0.00  0.00    +0.000 N 
ATOM      5  N   UNL     1       1.406   8.867  19.840  0.00  0.00    +0.000 NA
ATOM      6  C   UNL     1       0.864  10.132  19.920  0.00  0.00    +0.000 A 
ATOM      7  H   UNL     1       1.936   6.711  22.200  0.00  0.00    +0.000 HD
ENDROOT
BRANCH   4   8
ATOM      8  C   UNL     1       1.942   5.993  20.280  0.00  0.00    +0.000 A 
ATOM      9  C   UNL     1       1.162   4.841  20.409  0.00  0.00    +0.000 A 
ATOM     10  C   UNL     1       1.305   3.776  19.513  0.00  0.00    +0.000 A 
ATOM     11  C   UNL     1       2.230   3.842  18.461  0.00  0.00    +0.000 A 
ATOM     12  C   UNL     1       2.385   2.681  17.524  0.00  0.00    +0.000 C 
ATOM     13  C   UNL     1       3.005   4.998  18.326  0.00  0.00    +0.000 A 
ATOM     14 CL   UNL     1       4.160   5.177  17.052  0.00  0.00    +0.000 Cl
ATOM     15  C   UNL     1       2.869   6.052  19.231  0.00  0.00    +0.000 A 
ENDBRANCH   4   8
BRANCH   6  16
ATOM     16  C   UNL     1       0.914  11.047  18.696  0.00  0.00    +0.000 C 
ATOM     17  C   UNL     1       1.896  12.207  18.735  0.00  0.00    +0.000 C 
ATOM     18  C   UNL     1       2.173  11.041  17.851  0.00  0.00    +0.000 C 
ENDBRANCH   6  16
BRANCH   1  19
ATOM     19  C   UNL     1      -0.299  11.697  21.579  0.00  0.00    +0.000 C 
ATOM     20  O   UNL     1       0.285  12.714  21.935  0.00  0.00    +0.000 OA
BRANCH  19  21
ATOM     21  O   UNL     1      -1.655  11.553  21.620  0.00  0.00    +0.000 OA
BRANCH  21  23
ATOM     22  C   UNL     1      -2.532  12.192  19.499  0.00  0.00    +0.000 C 
ATOM     23  C   UNL     1      -2.410  12.575  20.963  0.00  0.00    +0.000 C 
ENDBRANCH  21  23
ENDBRANCH  19  21
ENDBRANCH   1  19
TORSDOF 5
ENDMDL
MODEL 9
REMARK VINA RESULT:      -6.3      4.741      7.807
REMARK  Name = 
REMARK  7 active torsions:
REMARK  status: ('A' for Active; 'I' for Inactive)
REMARK    1  A    between atoms: C_1  and  C_2
REMARK    2  A    between atoms: C_2  and  O_3
REMARK    3  A    between atoms: O_3  and  C_4
REMARK    4  A    between atoms: C_4  and  C_6
REMARK    5  A    between atoms: N_9  and  C_10
REMARK    6  A    between atoms: C_13  and  C_14
REMARK    7  A    between atoms: C_19  and  C_20
REMARK                            x       y       z     vdW  Elec       q    Type
REMARK                         _______ _______ _______ _____ _____    ______ ____
ROOT
ATOM      1  C   UNL     1       3.601   5.603  18.392  0.00  0.00    +0.000 A 
ATOM      2  S   UNL     1       3.778   7.018  17.419  0.00  0.00    +0.000 S 
ATOM      3  C   UNL     1       2.660   7.860  18.410  0.00  0.00    +0.000 A 
ATOM      4  N   UNL     1       2.340   9.146  18.143  0.00  0.00    +0.000 N 
ATOM      5  N   UNL     1       2.197   7.158  19.415  0.00  0.00    +0.000 NA
ATOM      6  C   UNL     1       2.744   5.893  19.437  0.00  0.00    +0.000 A 
ATOM      7  H   UNL     1       2.899   9.663  17.482  0.00  0.00    +0.000 HD
ENDROOT
BRANCH   4   8
ATOM      8  C   UNL     1       1.117   9.751  18.491  0.00  0.00    +0.000 A 
ATOM      9  C   UNL     1       0.004   9.574  17.666  0.00  0.00    +0.000 A 
ATOM     10  C   UNL     1      -1.203  10.226  17.943  0.00  0.00    +0.000 A 
ATOM     11  C   UNL     1      -1.325  11.069  19.056  0.00  0.00    +0.000 A 
ATOM     12  C   UNL     1      -2.620  11.778  19.324  0.00  0.00    +0.000 C 
ATOM     13  C   UNL     1      -0.214  11.240  19.888  0.00  0.00    +0.000 A 
ATOM     14 CL   UNL     1      -0.273  12.246  21.293  0.00  0.00    +0.000 Cl
ATOM     15  C   UNL     1       0.992  10.598  19.601  0.00  0.00    +0.000 A 
ENDBRANCH   4   8
BRANCH   6  16
ATOM     16  C   UNL     1       2.399   4.947  20.588  0.00  0.00    +0.000 C 
ATOM     17  C   UNL     1       1.033   4.282  20.555  0.00  0.00    +0.000 C 
ATOM     18  C   UNL     1       2.250   3.470  20.277  0.00  0.00    +0.000 C 
ENDBRANCH   6  16
BRANCH   1  19
ATOM     19  C   UNL     1       4.343   4.394  18.114  0.00  0.00    +0.000 C 
ATOM     20  O   UNL     1       3.979   3.485  17.378  0.00  0.00    +0.000 OA
BRANCH  19  21
ATOM     21  O   UNL     1       5.486   4.350  18.858  0.00  0.00    +0.000 OA
BRANCH  21  23
ATOM     22  C   UNL     1       7.439   5.698  19.079  0.00  0.00    +0.000 C 
ATOM     23  C   UNL     1       6.686   4.733  18.180  0.00  0.00    +0.000 C 
ENDBRANCH  21  23
ENDBRANCH  19  21
ENDBRANCH   1  19
TORSDOF 5
ENDMDL
