MODEL 1
REMARK VINA RESULT:      -7.3      0.000      0.000
REMARK  Name = 
REMARK  10 active torsions:
REMARK  status: ('A' for Active; 'I' for Inactive)
REMARK    1  A    between atoms: C_1  and  C_2
REMARK    2  A    between atoms: C_2  and  C_3
REMARK    3  A    between atoms: C_3  and  O_4
REMARK    4  A    between atoms: O_4  and  C_5
REMARK    5  A    between atoms: C_8  and  C_9
REMARK    6  A    between atoms: C_9  and  N_10
REMARK    7  A    between atoms: C_14  and  C_15
REMARK    8  A    between atoms: C_14  and  C_16
REMARK    9  A    between atoms: C_16  and  C_17
REMARK   10  A    between atoms: C_17  and  C_18
REMARK                            x       y       z     vdW  Elec       q    Type
REMARK                         _______ _______ _______ _____ _____    ______ ____
ROOT
ATOM      1  N   UNL     1       6.344   5.773  16.755  0.00  0.00    +0.000 N 
ATOM      2  C   UNL     1       7.249   4.781  16.958  0.00  0.00    +0.000 C 
ATOM      3  O   UNL     1       7.684   4.379  18.023  0.00  0.00    +0.000 OA
ATOM      4  N   UNL     1       7.604   4.261  15.736  0.00  0.00    +0.000 N 
ATOM      5  C   UNL     1       6.800   4.793  14.657  0.00  0.00    +0.000 C 
ATOM      6  C   UNL     1       7.668   5.456  13.591  0.00  0.00    +0.000 C 
ATOM      7  C   UNL     1       6.022   5.877  15.430  0.00  0.00    +0.000 C 
ATOM      8  O   UNL     1       5.233   6.671  14.934  0.00  0.00    +0.000 OA
ATOM      9  H   UNL     1       8.244   3.479  15.673  0.00  0.00    +0.000 HD
ENDROOT
BRANCH   1  10
ATOM     10  C   UNL     1       5.841   6.623  17.808  0.00  0.00    +0.000 C 
BRANCH  10  14
ATOM     11  C   UNL     1       2.287   5.093  19.552  0.00  0.00    +0.000 A 
ATOM     12  C   UNL     1       2.147   5.876  18.419  0.00  0.00    +0.000 A 
ATOM     13  C   UNL     1       3.304   6.389  17.822  0.00  0.00    +0.000 A 
ATOM     14  C   UNL     1       4.553   6.092  18.379  0.00  0.00    +0.000 A 
ATOM     15  C   UNL     1       4.581   5.251  19.484  0.00  0.00    +0.000 A 
ATOM     16  N   UNL     1       3.483   4.758  20.082  0.00  0.00    +0.000 NA
BRANCH  11  17
ATOM     17  O   UNL     1       1.137   4.628  20.163  0.00  0.00    +0.000 OA
BRANCH  17  18
ATOM     18  C   UNL     1       1.170   3.200  20.285  0.00  0.00    +0.000 C 
BRANCH  18  20
ATOM     19  C   UNL     1       2.048   1.922  18.316  0.00  0.00    +0.000 C 
ATOM     20  C   UNL     1       0.822   2.566  18.943  0.00  0.00    +0.000 C 
ENDBRANCH  18  20
ENDBRANCH  17  18
ENDBRANCH  11  17
ENDBRANCH  10  14
ENDBRANCH   1  10
BRANCH   5  21
ATOM     21  C   UNL     1       5.879   3.707  14.070  0.00  0.00    +0.000 C 
BRANCH  21  22
ATOM     22  C   UNL     1       6.079   3.466  12.565  0.00  0.00    +0.000 C 
ATOM     23  C   UNL     1       4.765   3.316  11.817  0.00  0.00    +0.000 C 
ENDBRANCH  21  22
ENDBRANCH   5  21
TORSDOF 7
ENDMDL
MODEL 2
REMARK VINA RESULT:      -7.3      1.797      6.326
REMARK  Name = 
REMARK  10 active torsions:
REMARK  status: ('A' for Active; 'I' for Inactive)
REMARK    1  A    between atoms: C_1  and  C_2
REMARK    2  A    between atoms: C_2  and  C_3
REMARK    3  A    between atoms: C_3  and  O_4
REMARK    4  A    between atoms: O_4  and  C_5
REMARK    5  A    between atoms: C_8  and  C_9
REMARK    6  A    between atoms: C_9  and  N_10
REMARK    7  A    between atoms: C_14  and  C_15
REMARK    8  A    between atoms: C_14  and  C_16
REMARK    9  A    between atoms: C_16  and  C_17
REMARK   10  A    between atoms: C_17  and  C_18
REMARK                            x       y       z     vdW  Elec       q    Type
REMARK                         _______ _______ _______ _____ _____    ______ ____
ROOT
ATOM      1  N   UNL     1       4.401   4.521  19.696  0.00  0.00    +0.000 N 
ATOM      2  C   UNL     1       3.329   5.348  19.787  0.00  0.00    +0.000 C 
ATOM      3  O   UNL     1       3.281   6.534  19.509  0.00  0.00    +0.000 OA
ATOM      4  N   UNL     1       2.255   4.620  20.240  0.00  0.00    +0.000 N 
ATOM      5  C   UNL     1       2.542   3.203  20.310  0.00  0.00    +0.000 C 
ATOM      6  C   UNL     1       2.326   2.661  21.719  0.00  0.00    +0.000 C 
ATOM      7  C   UNL     1       4.052   3.233  19.999  0.00  0.00    +0.000 C 
ATOM      8  O   UNL     1       4.795   2.260  20.001  0.00  0.00    +0.000 OA
ATOM      9  H   UNL     1       1.343   5.049  20.338  0.00  0.00    +0.000 HD
ENDROOT
BRANCH   1  10
ATOM     10  C   UNL     1       5.733   4.971  19.367  0.00  0.00    +0.000 C 
BRANCH  10  14
ATOM     11  C   UNL     1       6.624   4.668  15.228  0.00  0.00    +0.000 A 
ATOM     12  C   UNL     1       5.289   4.768  15.581  0.00  0.00    +0.000 A 
ATOM     13  C   UNL     1       4.968   4.874  16.939  0.00  0.00    +0.000 A 
ATOM     14  C   UNL     1       5.998   4.882  17.888  0.00  0.00    +0.000 A 
ATOM     15  C   UNL     1       7.304   4.832  17.421  0.00  0.00    +0.000 A 
ATOM     16  N   UNL     1       7.635   4.717  16.123  0.00  0.00    +0.000 NA
BRANCH  11  17
ATOM     17  O   UNL     1       6.930   4.517  13.888  0.00  0.00    +0.000 OA
BRANCH  17  18
ATOM     18  C   UNL     1       5.948   3.705  13.233  0.00  0.00    +0.000 C 
BRANCH  18  20
ATOM     19  C   UNL     1       5.710   1.967  11.443  0.00  0.00    +0.000 C 
ATOM     20  C   UNL     1       6.528   3.148  11.939  0.00  0.00    +0.000 C 
ENDBRANCH  18  20
ENDBRANCH  17  18
ENDBRANCH  11  17
ENDBRANCH  10  14
ENDBRANCH   1  10
BRANCH   5  21
ATOM     21  C   UNL     1       1.736   2.425  19.253  0.00  0.00    +0.000 C 
BRANCH  21  22
ATOM     22  C   UNL     1       2.131   2.749  17.803  0.00  0.00    +0.000 C 
ATOM     23  C   UNL     1       1.386   3.953  17.249  0.00  0.00    +0.000 C 
ENDBRANCH  21  22
ENDBRANCH   5  21
TORSDOF 7
ENDMDL
MODEL 3
REMARK VINA RESULT:      -7.1      0.609      1.031
REMARK  Name = 
REMARK  10 active torsions:
REMARK  status: ('A' for Active; 'I' for Inactive)
REMARK    1  A    between atoms: C_1  and  C_2
REMARK    2  A    between atoms: C_2  and  C_3
REMARK    3  A    between atoms: C_3  and  O_4
REMARK    4  A    between atoms: O_4  and  C_5
REMARK    5  A    between atoms: C_8  and  C_9
REMARK    6  A    between atoms: C_9  and  N_10
REMARK    7  A    between atoms: C_14  and  C_15
REMARK    8  A    between atoms: C_14  and  C_16
REMARK    9  A    between atoms: C_16  and  C_17
REMARK   10  A    between atoms: C_17  and  C_18
REMARK                            x       y       z     vdW  Elec       q    Type
REMARK                         _______ _______ _______ _____ _____    ______ ____
ROOT
ATOM      1  N   UNL     1       6.350   5.793  16.725  0.00  0.00    +0.000 N 
ATOM      2  C   UNL     1       7.244   4.796  16.952  0.00  0.00    +0.000 C 
ATOM      3  O   UNL     1       7.661   4.405  18.028  0.00  0.00    +0.000 OA
ATOM      4  N   UNL     1       7.610   4.257  15.742  0.00  0.00    +0.000 N 
ATOM      5  C   UNL     1       6.824   4.782  14.646  0.00  0.00    +0.000 C 
ATOM      6  C   UNL     1       7.711   5.423  13.583  0.00  0.00    +0.000 C 
ATOM      7  C   UNL     1       6.046   5.883  15.394  0.00  0.00    +0.000 C 
ATOM      8  O   UNL     1       5.270   6.677  14.879  0.00  0.00    +0.000 OA
ATOM      9  H   UNL     1       8.243   3.469  15.697  0.00  0.00    +0.000 HD
ENDROOT
BRANCH   1  10
ATOM     10  C   UNL     1       5.841   6.661  17.761  0.00  0.00    +0.000 C 
BRANCH  10  14
ATOM     11  C   UNL     1       2.250   5.105  19.402  0.00  0.00    +0.000 A 
ATOM     12  C   UNL     1       3.430   4.787  20.052  0.00  0.00    +0.000 A 
ATOM     13  C   UNL     1       4.628   5.292  19.533  0.00  0.00    +0.000 A 
ATOM     14  C   UNL     1       4.595   6.098  18.390  0.00  0.00    +0.000 A 
ATOM     15  C   UNL     1       3.351   6.400  17.851  0.00  0.00    +0.000 A 
ATOM     16  N   UNL     1       2.189   5.917  18.324  0.00  0.00    +0.000 NA
BRANCH  11  17
ATOM     17  O   UNL     1       1.075   4.566  19.893  0.00  0.00    +0.000 OA
BRANCH  17  18
ATOM     18  C   UNL     1       1.183   3.141  20.012  0.00  0.00    +0.000 C 
BRANCH  18  20
ATOM     19  C   UNL     1       2.215   1.898  18.096  0.00  0.00    +0.000 C 
ATOM     20  C   UNL     1       0.934   2.497  18.654  0.00  0.00    +0.000 C 
ENDBRANCH  18  20
ENDBRANCH  17  18
ENDBRANCH  11  17
ENDBRANCH  10  14
ENDBRANCH   1  10
BRANCH   5  21
ATOM     21  C   UNL     1       5.901   3.697  14.061  0.00  0.00    +0.000 C 
BRANCH  21  22
ATOM     22  C   UNL     1       6.073   3.480  12.549  0.00  0.00    +0.000 C 
ATOM     23  C   UNL     1       4.745   3.355  11.821  0.00  0.00    +0.000 C 
ENDBRANCH  21  22
ENDBRANCH   5  21
TORSDOF 7
ENDMDL
MODEL 4
REMARK VINA RESULT:      -7.1      1.658      6.221
REMARK  Name = 
REMARK  10 active torsions:
REMARK  status: ('A' for Active; 'I' for Inactive)
REMARK    1  A    between atoms: C_1  and  C_2
REMARK    2  A    between atoms: C_2  and  C_3
REMARK    3  A    between atoms: C_3  and  O_4
REMARK    4  A    between atoms: O_4  and  C_5
REMARK    5  A    between atoms: C_8  and  C_9
REMARK    6  A    between atoms: C_9  and  N_10
REMARK    7  A    between atoms: C_14  and  C_15
REMARK    8  A    between atoms: C_14  and  C_16
REMARK    9  A    between atoms: C_16  and  C_17
REMARK   10  A    between atoms: C_17  and  C_18
REMARK                            x       y       z     vdW  Elec       q    Type
REMARK                         _______ _______ _______ _____ _____    ______ ____
ROOT
ATOM      1  N   UNL     1       4.041   4.887  19.613  0.00  0.00    +0.000 N 
ATOM      2  C   UNL     1       2.839   5.516  19.664  0.00  0.00    +0.000 C 
ATOM      3  O   UNL     1       2.594   6.674  19.376  0.00  0.00    +0.000 OA
ATOM      4  N   UNL     1       1.893   4.612  20.087  0.00  0.00    +0.000 N 
ATOM      5  C   UNL     1       2.420   3.267  20.177  0.00  0.00    +0.000 C 
ATOM      6  C   UNL     1       2.255   2.697  21.582  0.00  0.00    +0.000 C 
ATOM      7  C   UNL     1       3.911   3.559  19.915  0.00  0.00    +0.000 C 
ATOM      8  O   UNL     1       4.811   2.730  19.947  0.00  0.00    +0.000 OA
ATOM      9  H   UNL     1       0.918   4.876  20.154  0.00  0.00    +0.000 HD
ENDROOT
BRANCH   1  10
ATOM     10  C   UNL     1       5.284   5.562  19.324  0.00  0.00    +0.000 C 
BRANCH  10  14
ATOM     11  C   UNL     1       6.320   5.285  15.217  0.00  0.00    +0.000 A 
ATOM     12  C   UNL     1       6.901   4.369  16.078  0.00  0.00    +0.000 A 
ATOM     13  C   UNL     1       6.572   4.436  17.437  0.00  0.00    +0.000 A 
ATOM     14  C   UNL     1       5.671   5.413  17.877  0.00  0.00    +0.000 A 
ATOM     15  C   UNL     1       5.105   6.244  16.920  0.00  0.00    +0.000 A 
ATOM     16  N   UNL     1       5.415   6.208  15.612  0.00  0.00    +0.000 NA
BRANCH  11  17
ATOM     17  O   UNL     1       6.685   5.242  13.884  0.00  0.00    +0.000 OA
BRANCH  17  18
ATOM     18  C   UNL     1       6.647   3.896  13.392  0.00  0.00    +0.000 C 
BRANCH  18  20
ATOM     19  C   UNL     1       5.493   2.491  11.667  0.00  0.00    +0.000 C 
ATOM     20  C   UNL     1       5.358   3.676  12.609  0.00  0.00    +0.000 C 
ENDBRANCH  18  20
ENDBRANCH  17  18
ENDBRANCH  11  17
ENDBRANCH  10  14
ENDBRANCH   1  10
BRANCH   5  21
ATOM     21  C   UNL     1       1.796   2.359  19.100  0.00  0.00    +0.000 C 
BRANCH  21  22
ATOM     22  C   UNL     1       2.691   2.146  17.868  0.00  0.00    +0.000 C 
ATOM     23  C   UNL     1       2.561   3.267  16.851  0.00  0.00    +0.000 C 
ENDBRANCH  21  22
ENDBRANCH   5  21
TORSDOF 7
ENDMDL
MODEL 5
REMARK VINA RESULT:      -7.0      1.863      6.620
REMARK  Name = 
REMARK  10 active torsions:
REMARK  status: ('A' for Active; 'I' for Inactive)
REMARK    1  A    between atoms: C_1  and  C_2
REMARK    2  A    between atoms: C_2  and  C_3
REMARK    3  A    between atoms: C_3  and  O_4
REMARK    4  A    between atoms: O_4  and  C_5
REMARK    5  A    between atoms: C_8  and  C_9
REMARK    6  A    between atoms: C_9  and  N_10
REMARK    7  A    between atoms: C_14  and  C_15
REMARK    8  A    between atoms: C_14  and  C_16
REMARK    9  A    between atoms: C_16  and  C_17
REMARK   10  A    between atoms: C_17  and  C_18
REMARK                            x       y       z     vdW  Elec       q    Type
REMARK                         _______ _______ _______ _____ _____    ______ ____
ROOT
ATOM      1  N   UNL     1       4.699   5.229  18.441  0.00  0.00    +0.000 N 
ATOM      2  C   UNL     1       3.971   6.334  18.135  0.00  0.00    +0.000 C 
ATOM      3  O   UNL     1       4.317   7.287  17.458  0.00  0.00    +0.000 OA
ATOM      4  N   UNL     1       2.727   6.208  18.707  0.00  0.00    +0.000 N 
ATOM      5  C   UNL     1       2.523   4.900  19.293  0.00  0.00    +0.000 C 
ATOM      6  C   UNL     1       2.176   5.003  20.775  0.00  0.00    +0.000 C 
ATOM      7  C   UNL     1       3.945   4.326  19.138  0.00  0.00    +0.000 C 
ATOM      8  O   UNL     1       4.316   3.234  19.550  0.00  0.00    +0.000 OA
ATOM      9  H   UNL     1       2.017   6.914  18.562  0.00  0.00    +0.000 HD
ENDROOT
BRANCH   1  10
ATOM     10  C   UNL     1       6.094   5.074  18.105  0.00  0.00    +0.000 C 
BRANCH  10  14
ATOM     11  C   UNL     1       6.778   4.481  13.959  0.00  0.00    +0.000 A 
ATOM     12  C   UNL     1       5.741   3.766  14.536  0.00  0.00    +0.000 A 
ATOM     13  C   UNL     1       5.492   3.947  15.901  0.00  0.00    +0.000 A 
ATOM     14  C   UNL     1       6.286   4.841  16.631  0.00  0.00    +0.000 A 
ATOM     15  C   UNL     1       7.262   5.546  15.940  0.00  0.00    +0.000 A 
ATOM     16  N   UNL     1       7.528   5.379  14.633  0.00  0.00    +0.000 NA
BRANCH  11  17
ATOM     17  O   UNL     1       7.047   4.262  12.620  0.00  0.00    +0.000 OA
BRANCH  17  18
ATOM     18  C   UNL     1       6.225   3.207  12.104  0.00  0.00    +0.000 C 
BRANCH  18  20
ATOM     19  C   UNL     1       6.317   0.939  11.041  0.00  0.00    +0.000 C 
ATOM     20  C   UNL     1       7.092   2.212  11.342  0.00  0.00    +0.000 C 
ENDBRANCH  18  20
ENDBRANCH  17  18
ENDBRANCH  11  17
ENDBRANCH  10  14
ENDBRANCH   1  10
BRANCH   5  21
ATOM     21  C   UNL     1       1.471   4.101  18.500  0.00  0.00    +0.000 C 
BRANCH  21  22
ATOM     22  C   UNL     1       0.738   3.036  19.333  0.00  0.00    +0.000 C 
ATOM     23  C   UNL     1       1.323   1.646  19.149  0.00  0.00    +0.000 C 
ENDBRANCH  21  22
ENDBRANCH   5  21
TORSDOF 7
ENDMDL
MODEL 6
REMARK VINA RESULT:      -7.0      2.430      6.781
REMARK  Name = 
REMARK  10 active torsions:
REMARK  status: ('A' for Active; 'I' for Inactive)
REMARK    1  A    between atoms: C_1  and  C_2
REMARK    2  A    between atoms: C_2  and  C_3
REMARK    3  A    between atoms: C_3  and  O_4
REMARK    4  A    between atoms: O_4  and  C_5
REMARK    5  A    between atoms: C_8  and  C_9
REMARK    6  A    between atoms: C_9  and  N_10
REMARK    7  A    between atoms: C_14  and  C_15
REMARK    8  A    between atoms: C_14  and  C_16
REMARK    9  A    between atoms: C_16  and  C_17
REMARK   10  A    between atoms: C_17  and  C_18
REMARK                            x       y       z     vdW  Elec       q    Type
REMARK                         _______ _______ _______ _____ _____    ______ ____
ROOT
ATOM      1  N   UNL     1       3.591   3.089  18.348  0.00  0.00    +0.000 N 
ATOM      2  C   UNL     1       3.861   2.612  19.590  0.00  0.00    +0.000 C 
ATOM      3  O   UNL     1       4.914   2.151  19.995  0.00  0.00    +0.000 OA
ATOM      4  N   UNL     1       2.733   2.746  20.364  0.00  0.00    +0.000 N 
ATOM      5  C   UNL     1       1.692   3.492  19.690  0.00  0.00    +0.000 C 
ATOM      6  C   UNL     1       0.403   2.681  19.588  0.00  0.00    +0.000 C 
ATOM      7  C   UNL     1       2.330   3.617  18.292  0.00  0.00    +0.000 C 
ATOM      8  O   UNL     1       1.799   4.127  17.315  0.00  0.00    +0.000 OA
ATOM      9  H   UNL     1       2.741   2.483  21.341  0.00  0.00    +0.000 HD
ENDROOT
BRANCH   1  10
ATOM     10  C   UNL     1       4.510   2.997  17.239  0.00  0.00    +0.000 C 
BRANCH  10  14
ATOM     11  C   UNL     1       7.108   6.339  16.938  0.00  0.00    +0.000 A 
ATOM     12  C   UNL     1       6.548   6.085  18.178  0.00  0.00    +0.000 A 
ATOM     13  C   UNL     1       5.691   4.986  18.305  0.00  0.00    +0.000 A 
ATOM     14  C   UNL     1       5.436   4.183  17.188  0.00  0.00    +0.000 A 
ATOM     15  C   UNL     1       6.094   4.496  16.006  0.00  0.00    +0.000 A 
ATOM     16  N   UNL     1       6.910   5.553  15.857  0.00  0.00    +0.000 NA
BRANCH  11  17
ATOM     17  O   UNL     1       7.917   7.453  16.809  0.00  0.00    +0.000 OA
BRANCH  17  18
ATOM     18  C   UNL     1       8.183   8.037  18.091  0.00  0.00    +0.000 C 
BRANCH  18  20
ATOM     19  C   UNL     1       9.130  10.144  19.062  0.00  0.00    +0.000 C 
ATOM     20  C   UNL     1       8.279   9.551  17.952  0.00  0.00    +0.000 C 
ENDBRANCH  18  20
ENDBRANCH  17  18
ENDBRANCH  11  17
ENDBRANCH  10  14
ENDBRANCH   1  10
BRANCH   5  21
ATOM     21  C   UNL     1       1.471   4.860  20.364  0.00  0.00    +0.000 C 
BRANCH  21  22
ATOM     22  C   UNL     1       2.676   5.809  20.260  0.00  0.00    +0.000 C 
ATOM     23  C   UNL     1       2.359   7.071  19.474  0.00  0.00    +0.000 C 
ENDBRANCH  21  22
ENDBRANCH   5  21
TORSDOF 7
ENDMDL
MODEL 7
REMARK VINA RESULT:      -6.9      2.328      6.761
REMARK  Name = 
REMARK  10 active torsions:
REMARK  status: ('A' for Active; 'I' for Inactive)
REMARK    1  A    between atoms: C_1  and  C_2
REMARK    2  A    between atoms: C_2  and  C_3
REMARK    3  A    between atoms: C_3  and  O_4
REMARK    4  A    between atoms: O_4  and  C_5
REMARK    5  A    between atoms: C_8  and  C_9
REMARK    6  A    between atoms: C_9  and  N_10
REMARK    7  A    between atoms: C_14  and  C_15
REMARK    8  A    between atoms: C_14  and  C_16
REMARK    9  A    between atoms: C_16  and  C_17
REMARK   10  A    between atoms: C_17  and  C_18
REMARK                            x       y       z     vdW  Elec       q    Type
REMARK                         _______ _______ _______ _____ _____    ______ ____
ROOT
ATOM      1  N   UNL     1       3.363   3.195  18.364  0.00  0.00    +0.000 N 
ATOM      2  C   UNL     1       3.819   2.839  19.593  0.00  0.00    +0.000 C 
ATOM      3  O   UNL     1       4.934   2.445  19.885  0.00  0.00    +0.000 OA
ATOM      4  N   UNL     1       2.803   3.015  20.502  0.00  0.00    +0.000 N 
ATOM      5  C   UNL     1       1.652   3.669  19.918  0.00  0.00    +0.000 C 
ATOM      6  C   UNL     1       0.393   2.820  20.068  0.00  0.00    +0.000 C 
ATOM      7  C   UNL     1       2.087   3.683  18.439  0.00  0.00    +0.000 C 
ATOM      8  O   UNL     1       1.409   4.088  17.505  0.00  0.00    +0.000 OA
ATOM      9  H   UNL     1       2.954   2.841  21.487  0.00  0.00    +0.000 HD
ENDROOT
BRANCH   1  10
ATOM     10  C   UNL     1       4.125   3.026  17.150  0.00  0.00    +0.000 C 
BRANCH  10  14
ATOM     11  C   UNL     1       6.890   6.222  16.759  0.00  0.00    +0.000 A 
ATOM     12  C   UNL     1       7.047   5.143  15.905  0.00  0.00    +0.000 A 
ATOM     13  C   UNL     1       6.146   4.078  16.011  0.00  0.00    +0.000 A 
ATOM     14  C   UNL     1       5.120   4.139  16.962  0.00  0.00    +0.000 A 
ATOM     15  C   UNL     1       5.022   5.292  17.728  0.00  0.00    +0.000 A 
ATOM     16  N   UNL     1       5.883   6.322  17.654  0.00  0.00    +0.000 NA
BRANCH  11  17
ATOM     17  O   UNL     1       7.813   7.249  16.681  0.00  0.00    +0.000 OA
BRANCH  17  18
ATOM     18  C   UNL     1       8.044   7.822  17.974  0.00  0.00    +0.000 C 
BRANCH  18  20
ATOM     19  C   UNL     1       9.075   9.934  18.844  0.00  0.00    +0.000 C 
ATOM     20  C   UNL     1       8.083   9.341  17.858  0.00  0.00    +0.000 C 
ENDBRANCH  18  20
ENDBRANCH  17  18
ENDBRANCH  11  17
ENDBRANCH  10  14
ENDBRANCH   1  10
BRANCH   5  21
ATOM     21  C   UNL     1       1.473   5.086  20.496  0.00  0.00    +0.000 C 
BRANCH  21  22
ATOM     22  C   UNL     1       2.634   6.042  20.174  0.00  0.00    +0.000 C 
ATOM     23  C   UNL     1       2.175   7.293  19.443  0.00  0.00    +0.000 C 
ENDBRANCH  21  22
ENDBRANCH   5  21
TORSDOF 7
ENDMDL
MODEL 8
REMARK VINA RESULT:      -6.9      0.916      1.167
REMARK  Name = 
REMARK  10 active torsions:
REMARK  status: ('A' for Active; 'I' for Inactive)
REMARK    1  A    between atoms: C_1  and  C_2
REMARK    2  A    between atoms: C_2  and  C_3
REMARK    3  A    between atoms: C_3  and  O_4
REMARK    4  A    between atoms: O_4  and  C_5
REMARK    5  A    between atoms: C_8  and  C_9
REMARK    6  A    between atoms: C_9  and  N_10
REMARK    7  A    between atoms: C_14  and  C_15
REMARK    8  A    between atoms: C_14  and  C_16
REMARK    9  A    between atoms: C_16  and  C_17
REMARK   10  A    between atoms: C_17  and  C_18
REMARK                            x       y       z     vdW  Elec       q    Type
REMARK                         _______ _______ _______ _____ _____    ______ ____
ROOT
ATOM      1  N   UNL     1       6.150   5.696  16.710  0.00  0.00    +0.000 N 
ATOM      2  C   UNL     1       7.125   4.798  17.005  0.00  0.00    +0.000 C 
ATOM      3  O   UNL     1       7.492   4.439  18.110  0.00  0.00    +0.000 OA
ATOM      4  N   UNL     1       7.647   4.319  15.827  0.00  0.00    +0.000 N 
ATOM      5  C   UNL     1       6.901   4.772  14.672  0.00  0.00    +0.000 C 
ATOM      6  C   UNL     1       7.797   5.520  13.690  0.00  0.00    +0.000 C 
ATOM      7  C   UNL     1       5.948   5.770  15.358  0.00  0.00    +0.000 C 
ATOM      8  O   UNL     1       5.135   6.483  14.784  0.00  0.00    +0.000 OA
ATOM      9  H   UNL     1       8.364   3.605  15.832  0.00  0.00    +0.000 HD
ENDROOT
BRANCH   1  10
ATOM     10  C   UNL     1       5.465   6.488  17.703  0.00  0.00    +0.000 C 
BRANCH  10  14
ATOM     11  C   UNL     1       1.919   4.681  19.177  0.00  0.00    +0.000 A 
ATOM     12  C   UNL     1       2.413   4.210  17.972  0.00  0.00    +0.000 A 
ATOM     13  C   UNL     1       3.584   4.787  17.467  0.00  0.00    +0.000 A 
ATOM     14  C   UNL     1       4.215   5.805  18.191  0.00  0.00    +0.000 A 
ATOM     15  C   UNL     1       3.665   6.161  19.414  0.00  0.00    +0.000 A 
ATOM     16  N   UNL     1       2.535   5.632  19.914  0.00  0.00    +0.000 NA
BRANCH  11  17
ATOM     17  O   UNL     1       0.737   4.139  19.648  0.00  0.00    +0.000 OA
BRANCH  17  18
ATOM     18  C   UNL     1       0.928   2.775  20.045  0.00  0.00    +0.000 C 
BRANCH  18  20
ATOM     19  C   UNL     1       2.857   2.379  21.595  0.00  0.00    +0.000 C 
ATOM     20  C   UNL     1       1.381   2.726  21.499  0.00  0.00    +0.000 C 
ENDBRANCH  18  20
ENDBRANCH  17  18
ENDBRANCH  11  17
ENDBRANCH  10  14
ENDBRANCH   1  10
BRANCH   5  21
ATOM     21  C   UNL     1       6.153   3.601  14.007  0.00  0.00    +0.000 C 
BRANCH  21  22
ATOM     22  C   UNL     1       6.279   3.571  12.475  0.00  0.00    +0.000 C 
ATOM     23  C   UNL     1       4.980   3.177  11.790  0.00  0.00    +0.000 C 
ENDBRANCH  21  22
ENDBRANCH   5  21
TORSDOF 7
ENDMDL
MODEL 9
REMARK VINA RESULT:      -6.9      3.114      4.213
REMARK  Name = 
REMARK  10 active torsions:
REMARK  status: ('A' for Active; 'I' for Inactive)
REMARK    1  A    between atoms: C_1  and  C_2
REMARK    2  A    between atoms: C_2  and  C_3
REMARK    3  A    between atoms: C_3  and  O_4
REMARK    4  A    between atoms: O_4  and  C_5
REMARK    5  A    between atoms: C_8  and  C_9
REMARK    6  A    between atoms: C_9  and  N_10
REMARK    7  A    between atoms: C_14  and  C_15
REMARK    8  A    between atoms: C_14  and  C_16
REMARK    9  A    between atoms: C_16  and  C_17
REMARK   10  A    between atoms: C_17  and  C_18
REMARK                            x       y       z     vdW  Elec       q    Type
REMARK                         _______ _______ _______ _____ _____    ______ ____
ROOT
ATOM      1  N   UNL     1       4.240   4.872  17.861  0.00  0.00    +0.000 N 
ATOM      2  C   UNL     1       4.919   4.052  18.704  0.00  0.00    +0.000 C 
ATOM      3  O   UNL     1       4.453   3.241  19.485  0.00  0.00    +0.000 OA
ATOM      4  N   UNL     1       6.265   4.266  18.527  0.00  0.00    +0.000 N 
ATOM      5  C   UNL     1       6.540   5.143  17.410  0.00  0.00    +0.000 C 
ATOM      6  C   UNL     1       7.344   6.364  17.846  0.00  0.00    +0.000 C 
ATOM      7  C   UNL     1       5.101   5.574  17.063  0.00  0.00    +0.000 C 
ATOM      8  O   UNL     1       4.794   6.387  16.201  0.00  0.00    +0.000 OA
ATOM      9  H   UNL     1       6.947   3.719  19.039  0.00  0.00    +0.000 HD
ENDROOT
BRANCH   1  10
ATOM     10  C   UNL     1       2.802   5.003  17.860  0.00  0.00    +0.000 C 
BRANCH  10  14
ATOM     11  C   UNL     1       1.567   8.252  20.295  0.00  0.00    +0.000 A 
ATOM     12  C   UNL     1       1.840   8.528  18.966  0.00  0.00    +0.000 A 
ATOM     13  C   UNL     1       2.245   7.473  18.140  0.00  0.00    +0.000 A 
ATOM     14  C   UNL     1       2.353   6.184  18.677  0.00  0.00    +0.000 A 
ATOM     15  C   UNL     1       2.001   6.010  20.009  0.00  0.00    +0.000 A 
ATOM     16  N   UNL     1       1.623   7.010  20.824  0.00  0.00    +0.000 NA
BRANCH  11  17
ATOM     17  O   UNL     1       1.212   9.307  21.115  0.00  0.00    +0.000 OA
BRANCH  17  18
ATOM     18  C   UNL     1      -0.155   9.189  21.530  0.00  0.00    +0.000 C 
BRANCH  18  20
ATOM     19  C   UNL     1      -1.149  10.888  23.081  0.00  0.00    +0.000 C 
ATOM     20  C   UNL     1      -0.288   9.639  22.980  0.00  0.00    +0.000 C 
ENDBRANCH  18  20
ENDBRANCH  17  18
ENDBRANCH  11  17
ENDBRANCH  10  14
ENDBRANCH   1  10
BRANCH   5  21
ATOM     21  C   UNL     1       7.221   4.374  16.261  0.00  0.00    +0.000 C 
BRANCH  21  22
ATOM     22  C   UNL     1       6.236   3.706  15.288  0.00  0.00    +0.000 C 
ATOM     23  C   UNL     1       6.406   4.193  13.859  0.00  0.00    +0.000 C 
ENDBRANCH  21  22
ENDBRANCH   5  21
TORSDOF 7
ENDMDL
