MODEL 1
REMARK VINA RESULT:      -8.3      0.000      0.000
REMARK  Name = 
REMARK  5 active torsions:
REMARK  status: ('A' for Active; 'I' for Inactive)
REMARK    1  A    between atoms: C_1  and  O_2
REMARK    2  A    between atoms: O_2  and  C_3
REMARK    3  A    between atoms: C_6  and  S_7
REMARK    4  A    between atoms: S_7  and  N_10
REMARK    5  A    between atoms: C_15  and  C_16
REMARK                            x       y       z     vdW  Elec       q    Type
REMARK                         _______ _______ _______ _____ _____    ______ ____
ROOT
ATOM      1  N   UNL     1       4.360   5.947  19.014  0.00  0.00    +0.000 N 
ATOM      2  O   UNL     1       4.610   6.993  18.075  0.00  0.00    +0.000 OA
ATOM      3  C   UNL     1       3.382   7.459  17.714  0.00  0.00    +0.000 A 
ATOM      4  O   UNL     1       3.133   8.443  17.045  0.00  0.00    +0.000 OA
ATOM      5  C   UNL     1       2.381   6.542  18.278  0.00  0.00    +0.000 A 
ATOM      6  C   UNL     1       3.004   5.577  18.957  0.00  0.00    +0.000 A 
ENDROOT
BRANCH   6   7
ATOM      7  C   UNL     1       2.355   4.484  19.669  0.00  0.00    +0.000 A 
ATOM      8  C   UNL     1       2.402   4.435  21.068  0.00  0.00    +0.000 A 
ATOM      9  C   UNL     1       1.827   3.366  21.760  0.00  0.00    +0.000 A 
ATOM     10  C   UNL     1       1.201   2.336  21.061  0.00  0.00    +0.000 A 
ATOM     11  C   UNL     1       1.153   2.371  19.669  0.00  0.00    +0.000 A 
ATOM     12  C   UNL     1       1.739   3.434  18.976  0.00  0.00    +0.000 A 
ENDBRANCH   6   7
BRANCH   1  13
ATOM     13  S   UNL     1       5.618   4.820  19.008  0.00  0.00    +0.000 S 
ATOM     14  O   UNL     1       5.107   3.535  19.446  0.00  0.00    +0.000 OA
ATOM     15  O   UNL     1       6.802   5.390  19.612  0.00  0.00    +0.000 OA
BRANCH  13  19
ATOM     16  C   UNL     1       6.416   4.347  14.525  0.00  0.00    +0.000 A 
ATOM     17  C   UNL     1       7.380   4.926  15.346  0.00  0.00    +0.000 A 
ATOM     18  C   UNL     1       7.141   5.087  16.706  0.00  0.00    +0.000 A 
ATOM     19  C   UNL     1       5.943   4.635  17.264  0.00  0.00    +0.000 A 
ATOM     20  C   UNL     1       4.960   4.072  16.447  0.00  0.00    +0.000 A 
ATOM     21  C   UNL     1       5.198   3.936  15.073  0.00  0.00    +0.000 A 
BRANCH  16  23
ATOM     22  C   UNL     1       6.037   3.367  12.408  0.00  0.00    +0.000 C 
ATOM     23  O   UNL     1       6.766   4.289  13.207  0.00  0.00    +0.000 OA
ENDBRANCH  16  23
ENDBRANCH  13  19
ENDBRANCH   1  13
TORSDOF 4
ENDMDL
MODEL 2
REMARK VINA RESULT:      -8.2      0.097      1.011
REMARK  Name = 
REMARK  5 active torsions:
REMARK  status: ('A' for Active; 'I' for Inactive)
REMARK    1  A    between atoms: C_1  and  O_2
REMARK    2  A    between atoms: O_2  and  C_3
REMARK    3  A    between atoms: C_6  and  S_7
REMARK    4  A    between atoms: S_7  and  N_10
REMARK    5  A    between atoms: C_15  and  C_16
REMARK                            x       y       z     vdW  Elec       q    Type
REMARK                         _______ _______ _______ _____ _____    ______ ____
ROOT
ATOM      1  N   UNL     1       4.353   5.955  19.000  0.00  0.00    +0.000 N 
ATOM      2  O   UNL     1       4.595   7.002  18.060  0.00  0.00    +0.000 OA
ATOM      3  C   UNL     1       3.364   7.465  17.707  0.00  0.00    +0.000 A 
ATOM      4  O   UNL     1       3.108   8.449  17.039  0.00  0.00    +0.000 OA
ATOM      5  C   UNL     1       2.368   6.547  18.277  0.00  0.00    +0.000 A 
ATOM      6  C   UNL     1       2.997   5.582  18.952  0.00  0.00    +0.000 A 
ENDROOT
BRANCH   6   7
ATOM      7  C   UNL     1       2.355   4.488  19.668  0.00  0.00    +0.000 A 
ATOM      8  C   UNL     1       2.409   4.441  21.067  0.00  0.00    +0.000 A 
ATOM      9  C   UNL     1       1.840   3.370  21.763  0.00  0.00    +0.000 A 
ATOM     10  C   UNL     1       1.214   2.338  21.067  0.00  0.00    +0.000 A 
ATOM     11  C   UNL     1       1.159   2.372  19.676  0.00  0.00    +0.000 A 
ATOM     12  C   UNL     1       1.739   3.436  18.979  0.00  0.00    +0.000 A 
ENDBRANCH   6   7
BRANCH   1  13
ATOM     13  S   UNL     1       5.613   4.831  18.986  0.00  0.00    +0.000 S 
ATOM     14  O   UNL     1       5.096   3.533  19.376  0.00  0.00    +0.000 OA
ATOM     15  O   UNL     1       6.784   5.384  19.629  0.00  0.00    +0.000 OA
BRANCH  13  19
ATOM     16  C   UNL     1       6.567   4.482  14.521  0.00  0.00    +0.000 A 
ATOM     17  C   UNL     1       5.333   4.056  15.004  0.00  0.00    +0.000 A 
ATOM     18  C   UNL     1       5.040   4.145  16.360  0.00  0.00    +0.000 A 
ATOM     19  C   UNL     1       5.971   4.696  17.243  0.00  0.00    +0.000 A 
ATOM     20  C   UNL     1       7.221   5.107  16.774  0.00  0.00    +0.000 A 
ATOM     21  C   UNL     1       7.518   4.991  15.410  0.00  0.00    +0.000 A 
BRANCH  16  23
ATOM     22  C   UNL     1       5.837   3.390  12.557  0.00  0.00    +0.000 C 
ATOM     23  O   UNL     1       6.736   4.298  13.179  0.00  0.00    +0.000 OA
ENDBRANCH  16  23
ENDBRANCH  13  19
ENDBRANCH   1  13
TORSDOF 4
ENDMDL
MODEL 3
REMARK VINA RESULT:      -8.2      0.059      1.007
REMARK  Name = 
REMARK  5 active torsions:
REMARK  status: ('A' for Active; 'I' for Inactive)
REMARK    1  A    between atoms: C_1  and  O_2
REMARK    2  A    between atoms: O_2  and  C_3
REMARK    3  A    between atoms: C_6  and  S_7
REMARK    4  A    between atoms: S_7  and  N_10
REMARK    5  A    between atoms: C_15  and  C_16
REMARK                            x       y       z     vdW  Elec       q    Type
REMARK                         _______ _______ _______ _____ _____    ______ ____
ROOT
ATOM      1  N   UNL     1       4.403   5.931  19.020  0.00  0.00    +0.000 N 
ATOM      2  O   UNL     1       4.630   6.982  18.081  0.00  0.00    +0.000 OA
ATOM      3  C   UNL     1       3.393   7.424  17.722  0.00  0.00    +0.000 A 
ATOM      4  O   UNL     1       3.124   8.403  17.053  0.00  0.00    +0.000 OA
ATOM      5  C   UNL     1       2.411   6.488  18.287  0.00  0.00    +0.000 A 
ATOM      6  C   UNL     1       3.053   5.535  18.965  0.00  0.00    +0.000 A 
ENDROOT
BRANCH   6   7
ATOM      7  C   UNL     1       2.427   4.429  19.677  0.00  0.00    +0.000 A 
ATOM      8  C   UNL     1       1.749   3.432  18.964  0.00  0.00    +0.000 A 
ATOM      9  C   UNL     1       1.101   2.394  19.638  0.00  0.00    +0.000 A 
ATOM     10  C   UNL     1       1.123   2.342  21.030  0.00  0.00    +0.000 A 
ATOM     11  C   UNL     1       1.790   3.331  21.750  0.00  0.00    +0.000 A 
ATOM     12  C   UNL     1       2.427   4.377  21.078  0.00  0.00    +0.000 A 
ENDBRANCH   6   7
BRANCH   1  13
ATOM     13  S   UNL     1       5.682   4.829  19.012  0.00  0.00    +0.000 S 
ATOM     14  O   UNL     1       5.200   3.538  19.465  0.00  0.00    +0.000 OA
ATOM     15  O   UNL     1       6.860   5.427  19.600  0.00  0.00    +0.000 OA
BRANCH  13  19
ATOM     16  C   UNL     1       6.448   4.333  14.525  0.00  0.00    +0.000 A 
ATOM     17  C   UNL     1       7.401   4.954  15.329  0.00  0.00    +0.000 A 
ATOM     18  C   UNL     1       7.170   5.121  16.690  0.00  0.00    +0.000 A 
ATOM     19  C   UNL     1       5.994   4.635  17.266  0.00  0.00    +0.000 A 
ATOM     20  C   UNL     1       5.022   4.030  16.467  0.00  0.00    +0.000 A 
ATOM     21  C   UNL     1       5.251   3.887  15.091  0.00  0.00    +0.000 A 
BRANCH  16  23
ATOM     22  C   UNL     1       6.013   3.389  12.403  0.00  0.00    +0.000 C 
ATOM     23  O   UNL     1       6.786   4.273  13.204  0.00  0.00    +0.000 OA
ENDBRANCH  16  23
ENDBRANCH  13  19
ENDBRANCH   1  13
TORSDOF 4
ENDMDL
MODEL 4
REMARK VINA RESULT:      -8.2      0.113      1.427
REMARK  Name = 
REMARK  5 active torsions:
REMARK  status: ('A' for Active; 'I' for Inactive)
REMARK    1  A    between atoms: C_1  and  O_2
REMARK    2  A    between atoms: O_2  and  C_3
REMARK    3  A    between atoms: C_6  and  S_7
REMARK    4  A    between atoms: S_7  and  N_10
REMARK    5  A    between atoms: C_15  and  C_16
REMARK                            x       y       z     vdW  Elec       q    Type
REMARK                         _______ _______ _______ _____ _____    ______ ____
ROOT
ATOM      1  N   UNL     1       4.373   5.934  18.997  0.00  0.00    +0.000 N 
ATOM      2  O   UNL     1       4.597   6.981  18.054  0.00  0.00    +0.000 OA
ATOM      3  C   UNL     1       3.358   7.433  17.711  0.00  0.00    +0.000 A 
ATOM      4  O   UNL     1       3.088   8.413  17.045  0.00  0.00    +0.000 OA
ATOM      5  C   UNL     1       2.376   6.506  18.292  0.00  0.00    +0.000 A 
ATOM      6  C   UNL     1       3.020   5.549  18.963  0.00  0.00    +0.000 A 
ENDROOT
BRANCH   6   7
ATOM      7  C   UNL     1       2.394   4.450  19.686  0.00  0.00    +0.000 A 
ATOM      8  C   UNL     1       1.651   3.488  18.991  0.00  0.00    +0.000 A 
ATOM      9  C   UNL     1       1.003   2.458  19.678  0.00  0.00    +0.000 A 
ATOM     10  C   UNL     1       1.093   2.380  21.066  0.00  0.00    +0.000 A 
ATOM     11  C   UNL     1       1.824   3.334  21.769  0.00  0.00    +0.000 A 
ATOM     12  C   UNL     1       2.462   4.372  21.084  0.00  0.00    +0.000 A 
ENDBRANCH   6   7
BRANCH   1  13
ATOM     13  S   UNL     1       5.643   4.820  18.973  0.00  0.00    +0.000 S 
ATOM     14  O   UNL     1       5.139   3.517  19.364  0.00  0.00    +0.000 OA
ATOM     15  O   UNL     1       6.813   5.383  19.610  0.00  0.00    +0.000 OA
BRANCH  13  19
ATOM     16  C   UNL     1       6.572   4.489  14.502  0.00  0.00    +0.000 A 
ATOM     17  C   UNL     1       5.352   4.034  14.995  0.00  0.00    +0.000 A 
ATOM     18  C   UNL     1       5.067   4.117  16.353  0.00  0.00    +0.000 A 
ATOM     19  C   UNL     1       5.991   4.692  17.228  0.00  0.00    +0.000 A 
ATOM     20  C   UNL     1       7.227   5.133  16.750  0.00  0.00    +0.000 A 
ATOM     21  C   UNL     1       7.517   5.022  15.383  0.00  0.00    +0.000 A 
BRANCH  16  23
ATOM     22  C   UNL     1       5.854   3.378  12.544  0.00  0.00    +0.000 C 
ATOM     23  O   UNL     1       6.735   4.308  13.159  0.00  0.00    +0.000 OA
ENDBRANCH  16  23
ENDBRANCH  13  19
ENDBRANCH   1  13
TORSDOF 4
ENDMDL
MODEL 5
REMARK VINA RESULT:      -7.6      1.570      3.548
REMARK  Name = 
REMARK  5 active torsions:
REMARK  status: ('A' for Active; 'I' for Inactive)
REMARK    1  A    between atoms: C_1  and  O_2
REMARK    2  A    between atoms: O_2  and  C_3
REMARK    3  A    between atoms: C_6  and  S_7
REMARK    4  A    between atoms: S_7  and  N_10
REMARK    5  A    between atoms: C_15  and  C_16
REMARK                            x       y       z     vdW  Elec       q    Type
REMARK                         _______ _______ _______ _____ _____    ______ ____
ROOT
ATOM      1  N   UNL     1       3.421   4.271  18.464  0.00  0.00    +0.000 N 
ATOM      2  O   UNL     1       3.277   2.878  18.737  0.00  0.00    +0.000 OA
ATOM      3  C   UNL     1       1.983   2.716  19.132  0.00  0.00    +0.000 A 
ATOM      4  O   UNL     1       1.394   1.669  19.321  0.00  0.00    +0.000 OA
ATOM      5  C   UNL     1       1.404   4.057  19.302  0.00  0.00    +0.000 A 
ATOM      6  C   UNL     1       2.328   4.974  19.005  0.00  0.00    +0.000 A 
ENDROOT
BRANCH   6   7
ATOM      7  C   UNL     1       2.135   6.417  19.044  0.00  0.00    +0.000 A 
ATOM      8  C   UNL     1       1.821   7.049  20.254  0.00  0.00    +0.000 A 
ATOM      9  C   UNL     1       1.584   8.425  20.296  0.00  0.00    +0.000 A 
ATOM     10  C   UNL     1       1.658   9.183  19.129  0.00  0.00    +0.000 A 
ATOM     11  C   UNL     1       1.963   8.564  17.918  0.00  0.00    +0.000 A 
ATOM     12  C   UNL     1       2.188   7.186  17.874  0.00  0.00    +0.000 A 
ENDBRANCH   6   7
BRANCH   1  13
ATOM     13  S   UNL     1       5.022   4.765  18.676  0.00  0.00    +0.000 S 
ATOM     14  O   UNL     1       5.742   3.739  19.406  0.00  0.00    +0.000 OA
ATOM     15  O   UNL     1       5.066   6.146  19.102  0.00  0.00    +0.000 OA
BRANCH  13  19
ATOM     16  C   UNL     1       6.680   4.585  14.412  0.00  0.00    +0.000 A 
ATOM     17  C   UNL     1       5.372   4.180  14.668  0.00  0.00    +0.000 A 
ATOM     18  C   UNL     1       4.865   4.218  15.962  0.00  0.00    +0.000 A 
ATOM     19  C   UNL     1       5.655   4.697  17.009  0.00  0.00    +0.000 A 
ATOM     20  C   UNL     1       6.975   5.085  16.769  0.00  0.00    +0.000 A 
ATOM     21  C   UNL     1       7.487   5.021  15.466  0.00  0.00    +0.000 A 
BRANCH  16  23
ATOM     22  C   UNL     1       6.332   3.508  12.337  0.00  0.00    +0.000 C 
ATOM     23  O   UNL     1       7.059   4.456  13.107  0.00  0.00    +0.000 OA
ENDBRANCH  16  23
ENDBRANCH  13  19
ENDBRANCH   1  13
TORSDOF 4
ENDMDL
MODEL 6
REMARK VINA RESULT:      -7.5      1.622      3.677
REMARK  Name = 
REMARK  5 active torsions:
REMARK  status: ('A' for Active; 'I' for Inactive)
REMARK    1  A    between atoms: C_1  and  O_2
REMARK    2  A    between atoms: O_2  and  C_3
REMARK    3  A    between atoms: C_6  and  S_7
REMARK    4  A    between atoms: S_7  and  N_10
REMARK    5  A    between atoms: C_15  and  C_16
REMARK                            x       y       z     vdW  Elec       q    Type
REMARK                         _______ _______ _______ _____ _____    ______ ____
ROOT
ATOM      1  N   UNL     1       3.282   4.002  18.636  0.00  0.00    +0.000 N 
ATOM      2  O   UNL     1       3.074   2.621  18.929  0.00  0.00    +0.000 OA
ATOM      3  C   UNL     1       1.756   2.511  19.254  0.00  0.00    +0.000 A 
ATOM      4  O   UNL     1       1.122   1.489  19.431  0.00  0.00    +0.000 OA
ATOM      5  C   UNL     1       1.216   3.874  19.365  0.00  0.00    +0.000 A 
ATOM      6  C   UNL     1       2.186   4.753  19.101  0.00  0.00    +0.000 A 
ENDROOT
BRANCH   6   7
ATOM      7  C   UNL     1       2.042   6.202  19.100  0.00  0.00    +0.000 A 
ATOM      8  C   UNL     1       2.276   6.927  17.924  0.00  0.00    +0.000 A 
ATOM      9  C   UNL     1       2.190   8.322  17.922  0.00  0.00    +0.000 A 
ATOM     10  C   UNL     1       1.872   9.004  19.094  0.00  0.00    +0.000 A 
ATOM     11  C   UNL     1       1.643   8.294  20.271  0.00  0.00    +0.000 A 
ATOM     12  C   UNL     1       1.741   6.900  20.277  0.00  0.00    +0.000 A 
ENDBRANCH   6   7
BRANCH   1  13
ATOM     13  S   UNL     1       4.885   4.445  18.927  0.00  0.00    +0.000 S 
ATOM     14  O   UNL     1       5.572   3.346  19.578  0.00  0.00    +0.000 OA
ATOM     15  O   UNL     1       4.941   5.782  19.477  0.00  0.00    +0.000 OA
BRANCH  13  19
ATOM     16  C   UNL     1       6.639   4.613  14.701  0.00  0.00    +0.000 A 
ATOM     17  C   UNL     1       5.272   4.420  14.880  0.00  0.00    +0.000 A 
ATOM     18  C   UNL     1       4.732   4.354  16.159  0.00  0.00    +0.000 A 
ATOM     19  C   UNL     1       5.557   4.516  17.276  0.00  0.00    +0.000 A 
ATOM     20  C   UNL     1       6.932   4.688  17.110  0.00  0.00    +0.000 A 
ATOM     21  C   UNL     1       7.472   4.729  15.817  0.00  0.00    +0.000 A 
BRANCH  16  23
ATOM     22  C   UNL     1       6.436   3.637  12.558  0.00  0.00    +0.000 C 
ATOM     23  O   UNL     1       7.037   4.616  13.396  0.00  0.00    +0.000 OA
ENDBRANCH  16  23
ENDBRANCH  13  19
ENDBRANCH   1  13
TORSDOF 4
ENDMDL
MODEL 7
REMARK VINA RESULT:      -7.5      1.570      3.427
REMARK  Name = 
REMARK  5 active torsions:
REMARK  status: ('A' for Active; 'I' for Inactive)
REMARK    1  A    between atoms: C_1  and  O_2
REMARK    2  A    between atoms: O_2  and  C_3
REMARK    3  A    between atoms: C_6  and  S_7
REMARK    4  A    between atoms: S_7  and  N_10
REMARK    5  A    between atoms: C_15  and  C_16
REMARK                            x       y       z     vdW  Elec       q    Type
REMARK                         _______ _______ _______ _____ _____    ______ ____
ROOT
ATOM      1  N   UNL     1       3.422   4.231  18.519  0.00  0.00    +0.000 N 
ATOM      2  O   UNL     1       3.245   2.851  18.834  0.00  0.00    +0.000 OA
ATOM      3  C   UNL     1       1.944   2.728  19.215  0.00  0.00    +0.000 A 
ATOM      4  O   UNL     1       1.330   1.700  19.428  0.00  0.00    +0.000 OA
ATOM      5  C   UNL     1       1.391   4.084  19.335  0.00  0.00    +0.000 A 
ATOM      6  C   UNL     1       2.337   4.972  19.023  0.00  0.00    +0.000 A 
ENDROOT
BRANCH   6   7
ATOM      7  C   UNL     1       2.174   6.420  19.014  0.00  0.00    +0.000 A 
ATOM      8  C   UNL     1       1.855   7.095  20.200  0.00  0.00    +0.000 A 
ATOM      9  C   UNL     1       1.646   8.477  20.195  0.00  0.00    +0.000 A 
ATOM     10  C   UNL     1       1.754   9.196  19.007  0.00  0.00    +0.000 A 
ATOM     11  C   UNL     1       2.066   8.534  17.821  0.00  0.00    +0.000 A 
ATOM     12  C   UNL     1       2.262   7.151  17.822  0.00  0.00    +0.000 A 
ENDBRANCH   6   7
BRANCH   1  13
ATOM     13  S   UNL     1       5.030   4.698  18.739  0.00  0.00    +0.000 S 
ATOM     14  O   UNL     1       5.741   3.643  19.436  0.00  0.00    +0.000 OA
ATOM     15  O   UNL     1       5.094   6.066  19.204  0.00  0.00    +0.000 OA
BRANCH  13  19
ATOM     16  C   UNL     1       6.604   4.635  14.440  0.00  0.00    +0.000 A 
ATOM     17  C   UNL     1       7.458   4.967  15.489  0.00  0.00    +0.000 A 
ATOM     18  C   UNL     1       6.985   5.003  16.795  0.00  0.00    +0.000 A 
ATOM     19  C   UNL     1       5.656   4.670  17.068  0.00  0.00    +0.000 A 
ATOM     20  C   UNL     1       4.785   4.356  16.023  0.00  0.00    +0.000 A 
ATOM     21  C   UNL     1       5.263   4.346  14.706  0.00  0.00    +0.000 A 
BRANCH  16  23
ATOM     22  C   UNL     1       6.725   3.725  12.262  0.00  0.00    +0.000 C 
ATOM     23  O   UNL     1       7.190   4.679  13.208  0.00  0.00    +0.000 OA
ENDBRANCH  16  23
ENDBRANCH  13  19
ENDBRANCH   1  13
TORSDOF 4
ENDMDL
MODEL 8
REMARK VINA RESULT:      -7.4      1.632      3.548
REMARK  Name = 
REMARK  5 active torsions:
REMARK  status: ('A' for Active; 'I' for Inactive)
REMARK    1  A    between atoms: C_1  and  O_2
REMARK    2  A    between atoms: O_2  and  C_3
REMARK    3  A    between atoms: C_6  and  S_7
REMARK    4  A    between atoms: S_7  and  N_10
REMARK    5  A    between atoms: C_15  and  C_16
REMARK                            x       y       z     vdW  Elec       q    Type
REMARK                         _______ _______ _______ _____ _____    ______ ____
ROOT
ATOM      1  N   UNL     1       3.275   3.955  18.623  0.00  0.00    +0.000 N 
ATOM      2  O   UNL     1       3.055   2.573  18.906  0.00  0.00    +0.000 OA
ATOM      3  C   UNL     1       1.735   2.472  19.223  0.00  0.00    +0.000 A 
ATOM      4  O   UNL     1       1.091   1.455  19.391  0.00  0.00    +0.000 OA
ATOM      5  C   UNL     1       1.205   3.839  19.340  0.00  0.00    +0.000 A 
ATOM      6  C   UNL     1       2.183   4.711  19.087  0.00  0.00    +0.000 A 
ENDROOT
BRANCH   6   7
ATOM      7  C   UNL     1       2.051   6.162  19.094  0.00  0.00    +0.000 A 
ATOM      8  C   UNL     1       2.285   6.891  17.921  0.00  0.00    +0.000 A 
ATOM      9  C   UNL     1       2.210   8.286  17.927  0.00  0.00    +0.000 A 
ATOM     10  C   UNL     1       1.903   8.965  19.104  0.00  0.00    +0.000 A 
ATOM     11  C   UNL     1       1.674   8.251  20.278  0.00  0.00    +0.000 A 
ATOM     12  C   UNL     1       1.760   6.856  20.276  0.00  0.00    +0.000 A 
ENDBRANCH   6   7
BRANCH   1  13
ATOM     13  S   UNL     1       4.880   4.383  18.926  0.00  0.00    +0.000 S 
ATOM     14  O   UNL     1       5.555   3.275  19.575  0.00  0.00    +0.000 OA
ATOM     15  O   UNL     1       4.945   5.717  19.483  0.00  0.00    +0.000 OA
BRANCH  13  19
ATOM     16  C   UNL     1       6.598   4.583  14.687  0.00  0.00    +0.000 A 
ATOM     17  C   UNL     1       7.426   4.807  15.784  0.00  0.00    +0.000 A 
ATOM     18  C   UNL     1       6.910   4.762  17.074  0.00  0.00    +0.000 A 
ATOM     19  C   UNL     1       5.562   4.457  17.279  0.00  0.00    +0.000 A 
ATOM     20  C   UNL     1       4.718   4.252  16.186  0.00  0.00    +0.000 A 
ATOM     21  C   UNL     1       5.240   4.323  14.887  0.00  0.00    +0.000 A 
BRANCH  16  23
ATOM     22  C   UNL     1       6.707   3.896  12.428  0.00  0.00    +0.000 C 
ATOM     23  O   UNL     1       7.227   4.698  13.481  0.00  0.00    +0.000 OA
ENDBRANCH  16  23
ENDBRANCH  13  19
ENDBRANCH   1  13
TORSDOF 4
ENDMDL
MODEL 9
REMARK VINA RESULT:      -7.3      2.079      5.177
REMARK  Name = 
REMARK  5 active torsions:
REMARK  status: ('A' for Active; 'I' for Inactive)
REMARK    1  A    between atoms: C_1  and  O_2
REMARK    2  A    between atoms: O_2  and  C_3
REMARK    3  A    between atoms: C_6  and  S_7
REMARK    4  A    between atoms: S_7  and  N_10
REMARK    5  A    between atoms: C_15  and  C_16
REMARK                            x       y       z     vdW  Elec       q    Type
REMARK                         _______ _______ _______ _____ _____    ______ ____
ROOT
ATOM      1  N   UNL     1       5.715   5.337  15.844  0.00  0.00    +0.000 N 
ATOM      2  O   UNL     1       6.678   5.432  14.794  0.00  0.00    +0.000 OA
ATOM      3  C   UNL     1       6.411   4.390  13.959  0.00  0.00    +0.000 A 
ATOM      4  O   UNL     1       6.896   4.177  12.864  0.00  0.00    +0.000 OA
ATOM      5  C   UNL     1       5.416   3.536  14.625  0.00  0.00    +0.000 A 
ATOM      6  C   UNL     1       5.103   4.070  15.808  0.00  0.00    +0.000 A 
ENDROOT
BRANCH   6   7
ATOM      7  C   UNL     1       4.146   3.523  16.760  0.00  0.00    +0.000 A 
ATOM      8  C   UNL     1       4.548   2.533  17.666  0.00  0.00    +0.000 A 
ATOM      9  C   UNL     1       3.628   1.964  18.550  0.00  0.00    +0.000 A 
ATOM     10  C   UNL     1       2.298   2.378  18.537  0.00  0.00    +0.000 A 
ATOM     11  C   UNL     1       1.885   3.358  17.636  0.00  0.00    +0.000 A 
ATOM     12  C   UNL     1       2.802   3.918  16.743  0.00  0.00    +0.000 A 
ENDBRANCH   6   7
BRANCH   1  13
ATOM     13  S   UNL     1       6.305   6.029  17.267  0.00  0.00    +0.000 S 
ATOM     14  O   UNL     1       6.825   7.351  16.972  0.00  0.00    +0.000 OA
ATOM     15  O   UNL     1       7.099   5.067  17.998  0.00  0.00    +0.000 OA
BRANCH  13  19
ATOM     16  C   UNL     1       2.441   6.739  19.618  0.00  0.00    +0.000 A 
ATOM     17  C   UNL     1       3.387   5.832  20.091  0.00  0.00    +0.000 A 
ATOM     18  C   UNL     1       4.556   5.600  19.376  0.00  0.00    +0.000 A 
ATOM     19  C   UNL     1       4.806   6.303  18.195  0.00  0.00    +0.000 A 
ATOM     20  C   UNL     1       3.856   7.198  17.700  0.00  0.00    +0.000 A 
ATOM     21  C   UNL     1       2.668   7.409  18.413  0.00  0.00    +0.000 A 
BRANCH  16  23
ATOM     22  C   UNL     1       1.155   8.066  21.091  0.00  0.00    +0.000 C 
ATOM     23  O   UNL     1       1.324   6.838  20.397  0.00  0.00    +0.000 OA
ENDBRANCH  16  23
ENDBRANCH  13  19
ENDBRANCH   1  13
TORSDOF 4
ENDMDL
