MODEL 1
REMARK VINA RESULT:      -5.5      0.000      0.000
REMARK  Name = 
REMARK  6 active torsions:
REMARK  status: ('A' for Active; 'I' for Inactive)
REMARK    1  A    between atoms: C_1  and  C_2
REMARK    2  A    between atoms: C_2  and  C_3
REMARK    3  A    between atoms: C_3  and  N_4
REMARK    4  A    between atoms: C_3  and  C_5
REMARK    5  A    between atoms: C_9  and  O_10
REMARK    6  A    between atoms: O_10  and  C_11
REMARK                            x       y       z     vdW  Elec       q    Type
REMARK                         _______ _______ _______ _____ _____    ______ ____
ROOT
ATOM      1  C   UNL     1       3.888   3.613  18.707  0.00  0.00    +0.000 A 
ATOM      2  C   UNL     1       3.493   4.411  17.632  0.00  0.00    +0.000 A 
ATOM      3  C   UNL     1       4.275   5.508  17.281  0.00  0.00    +0.000 A 
ATOM      4  C   UNL     1       5.424   5.788  18.013  0.00  0.00    +0.000 A 
ATOM      5  C   UNL     1       5.738   4.960  19.077  0.00  0.00    +0.000 A 
ATOM      6  N   UNL     1       4.995   3.894  19.442  0.00  0.00    +0.000 NA
ENDROOT
BRANCH   5   7
ATOM      7  O   UNL     1       6.886   5.261  19.781  0.00  0.00    +0.000 OA
ATOM      8  C   UNL     1       7.828   5.993  19.002  0.00  0.00    +0.000 C 
ENDBRANCH   5   7
BRANCH   1   9
ATOM      9  C   UNL     1       3.036   2.420  19.133  0.00  0.00    +0.000 C 
BRANCH   9  10
ATOM     10  N   UNL     1       3.360   1.244  18.311  0.00  0.00    +0.000 NA
ATOM     11  H   UNL     1       4.071   1.527  17.634  0.00  0.00    +0.000 HD
ATOM     12  H   UNL     1       2.546   0.971  17.767  0.00  0.00    +0.000 HD
ENDBRANCH   9  10
BRANCH   9  14
ATOM     13  C   UNL     1       1.014   3.524  20.286  0.00  0.00    +0.000 C 
ATOM     14  C   UNL     1       1.530   2.763  19.072  0.00  0.00    +0.000 C 
ENDBRANCH   9  14
ENDBRANCH   1   9
TORSDOF 4
ENDMDL
MODEL 2
REMARK VINA RESULT:      -5.5      1.121      1.144
REMARK  Name = 
REMARK  6 active torsions:
REMARK  status: ('A' for Active; 'I' for Inactive)
REMARK    1  A    between atoms: C_1  and  C_2
REMARK    2  A    between atoms: C_2  and  C_3
REMARK    3  A    between atoms: C_3  and  N_4
REMARK    4  A    between atoms: C_3  and  C_5
REMARK    5  A    between atoms: C_9  and  O_10
REMARK    6  A    between atoms: O_10  and  C_11
REMARK                            x       y       z     vdW  Elec       q    Type
REMARK                         _______ _______ _______ _____ _____    ______ ____
ROOT
ATOM      1  C   UNL     1       3.241   3.696  18.714  0.00  0.00    +0.000 A 
ATOM      2  C   UNL     1       2.697   4.874  18.202  0.00  0.00    +0.000 A 
ATOM      3  C   UNL     1       3.545   5.936  17.901  0.00  0.00    +0.000 A 
ATOM      4  C   UNL     1       4.911   5.802  18.127  0.00  0.00    +0.000 A 
ATOM      5  C   UNL     1       5.371   4.608  18.654  0.00  0.00    +0.000 A 
ATOM      6  N   UNL     1       4.571   3.566  18.960  0.00  0.00    +0.000 NA
ENDROOT
BRANCH   5   7
ATOM      7  O   UNL     1       6.732   4.505  18.863  0.00  0.00    +0.000 OA
ATOM      8  C   UNL     1       7.482   4.666  17.663  0.00  0.00    +0.000 C 
ENDBRANCH   5   7
BRANCH   1   9
ATOM      9  C   UNL     1       2.334   2.524  19.079  0.00  0.00    +0.000 C 
BRANCH   9  10
ATOM     10  N   UNL     1       1.825   1.875  17.861  0.00  0.00    +0.000 NA
ATOM     11  H   UNL     1       2.515   1.179  17.572  0.00  0.00    +0.000 HD
ATOM     12  H   UNL     1       1.774   2.553  17.106  0.00  0.00    +0.000 HD
ENDBRANCH   9  10
BRANCH   9  14
ATOM     13  C   UNL     1       1.475   2.810  21.491  0.00  0.00    +0.000 C 
ATOM     14  C   UNL     1       1.183   2.980  20.006  0.00  0.00    +0.000 C 
ENDBRANCH   9  14
ENDBRANCH   1   9
TORSDOF 4
ENDMDL
MODEL 3
REMARK VINA RESULT:      -5.5      2.987      4.475
REMARK  Name = 
REMARK  6 active torsions:
REMARK  status: ('A' for Active; 'I' for Inactive)
REMARK    1  A    between atoms: C_1  and  C_2
REMARK    2  A    between atoms: C_2  and  C_3
REMARK    3  A    between atoms: C_3  and  N_4
REMARK    4  A    between atoms: C_3  and  C_5
REMARK    5  A    between atoms: C_9  and  O_10
REMARK    6  A    between atoms: O_10  and  C_11
REMARK                            x       y       z     vdW  Elec       q    Type
REMARK                         _______ _______ _______ _____ _____    ______ ____
ROOT
ATOM      1  C   UNL     1       5.924   4.313  16.336  0.00  0.00    +0.000 A 
ATOM      2  C   UNL     1       4.565   4.010  16.421  0.00  0.00    +0.000 A 
ATOM      3  C   UNL     1       3.924   4.116  17.653  0.00  0.00    +0.000 A 
ATOM      4  C   UNL     1       4.654   4.510  18.769  0.00  0.00    +0.000 A 
ATOM      5  C   UNL     1       6.002   4.775  18.606  0.00  0.00    +0.000 A 
ATOM      6  N   UNL     1       6.649   4.676  17.426  0.00  0.00    +0.000 NA
ENDROOT
BRANCH   5   7
ATOM      7  O   UNL     1       6.698   5.169  19.732  0.00  0.00    +0.000 OA
ATOM      8  C   UNL     1       7.943   5.785  19.416  0.00  0.00    +0.000 C 
ENDBRANCH   5   7
BRANCH   1   9
ATOM      9  C   UNL     1       6.660   4.181  15.005  0.00  0.00    +0.000 C 
BRANCH   9  10
ATOM     10  N   UNL     1       7.526   5.349  14.783  0.00  0.00    +0.000 NA
ATOM     11  H   UNL     1       8.489   5.056  14.954  0.00  0.00    +0.000 HD
ATOM     12  H   UNL     1       7.322   6.064  15.476  0.00  0.00    +0.000 HD
ENDBRANCH   9  10
BRANCH   9  14
ATOM     13  C   UNL     1       6.321   3.570  12.526  0.00  0.00    +0.000 C 
ATOM     14  C   UNL     1       5.666   3.977  13.839  0.00  0.00    +0.000 C 
ENDBRANCH   9  14
ENDBRANCH   1   9
TORSDOF 4
ENDMDL
MODEL 4
REMARK VINA RESULT:      -5.4      3.293      4.954
REMARK  Name = 
REMARK  6 active torsions:
REMARK  status: ('A' for Active; 'I' for Inactive)
REMARK    1  A    between atoms: C_1  and  C_2
REMARK    2  A    between atoms: C_2  and  C_3
REMARK    3  A    between atoms: C_3  and  N_4
REMARK    4  A    between atoms: C_3  and  C_5
REMARK    5  A    between atoms: C_9  and  O_10
REMARK    6  A    between atoms: O_10  and  C_11
REMARK                            x       y       z     vdW  Elec       q    Type
REMARK                         _______ _______ _______ _____ _____    ______ ____
ROOT
ATOM      1  C   UNL     1       6.057   4.939  15.856  0.00  0.00    +0.000 A 
ATOM      2  C   UNL     1       5.289   6.101  15.786  0.00  0.00    +0.000 A 
ATOM      3  C   UNL     1       4.618   6.537  16.926  0.00  0.00    +0.000 A 
ATOM      4  C   UNL     1       4.721   5.801  18.102  0.00  0.00    +0.000 A 
ATOM      5  C   UNL     1       5.488   4.649  18.084  0.00  0.00    +0.000 A 
ATOM      6  N   UNL     1       6.144   4.201  16.993  0.00  0.00    +0.000 NA
ENDROOT
BRANCH   5   7
ATOM      7  O   UNL     1       5.575   3.942  19.267  0.00  0.00    +0.000 OA
ATOM      8  C   UNL     1       4.417   3.152  19.517  0.00  0.00    +0.000 C 
ENDBRANCH   5   7
BRANCH   1   9
ATOM      9  C   UNL     1       6.782   4.421  14.616  0.00  0.00    +0.000 C 
BRANCH   9  10
ATOM     10  N   UNL     1       7.665   5.464  14.070  0.00  0.00    +0.000 NA
ATOM     11  H   UNL     1       7.574   5.442  13.052  0.00  0.00    +0.000 HD
ATOM     12  H   UNL     1       8.634   5.233  14.271  0.00  0.00    +0.000 HD
ENDBRANCH   9  10
BRANCH   9  14
ATOM     13  C   UNL     1       6.420   3.469  12.250  0.00  0.00    +0.000 C 
ATOM     14  C   UNL     1       5.777   3.912  13.558  0.00  0.00    +0.000 C 
ENDBRANCH   9  14
ENDBRANCH   1   9
TORSDOF 4
ENDMDL
MODEL 5
REMARK VINA RESULT:      -5.4      1.728      2.239
REMARK  Name = 
REMARK  6 active torsions:
REMARK  status: ('A' for Active; 'I' for Inactive)
REMARK    1  A    between atoms: C_1  and  C_2
REMARK    2  A    between atoms: C_2  and  C_3
REMARK    3  A    between atoms: C_3  and  N_4
REMARK    4  A    between atoms: C_3  and  C_5
REMARK    5  A    between atoms: C_9  and  O_10
REMARK    6  A    between atoms: O_10  and  C_11
REMARK                            x       y       z     vdW  Elec       q    Type
REMARK                         _______ _______ _______ _____ _____    ______ ____
ROOT
ATOM      1  C   UNL     1       2.881   4.471  19.052  0.00  0.00    +0.000 A 
ATOM      2  C   UNL     1       2.563   4.044  17.762  0.00  0.00    +0.000 A 
ATOM      3  C   UNL     1       3.594   3.744  16.876  0.00  0.00    +0.000 A 
ATOM      4  C   UNL     1       4.913   3.885  17.291  0.00  0.00    +0.000 A 
ATOM      5  C   UNL     1       5.146   4.332  18.580  0.00  0.00    +0.000 A 
ATOM      6  N   UNL     1       4.167   4.634  19.458  0.00  0.00    +0.000 NA
ENDROOT
BRANCH   5   7
ATOM      7  O   UNL     1       6.466   4.458  18.965  0.00  0.00    +0.000 OA
ATOM      8  C   UNL     1       7.316   4.831  17.884  0.00  0.00    +0.000 C 
ENDBRANCH   5   7
BRANCH   1   9
ATOM      9  C   UNL     1       1.773   4.834  20.037  0.00  0.00    +0.000 C 
BRANCH   9  10
ATOM     10  N   UNL     1       2.320   5.628  21.148  0.00  0.00    +0.000 NA
ATOM     11  H   UNL     1       1.531   5.975  21.697  0.00  0.00    +0.000 HD
ATOM     12  H   UNL     1       2.792   6.451  20.783  0.00  0.00    +0.000 HD
ENDBRANCH   9  10
BRANCH   9  14
ATOM     13  C   UNL     1       1.812   2.793  21.608  0.00  0.00    +0.000 C 
ATOM     14  C   UNL     1       1.046   3.568  20.545  0.00  0.00    +0.000 C 
ENDBRANCH   9  14
ENDBRANCH   1   9
TORSDOF 4
ENDMDL
MODEL 6
REMARK VINA RESULT:      -5.3      2.366      4.850
REMARK  Name = 
REMARK  6 active torsions:
REMARK  status: ('A' for Active; 'I' for Inactive)
REMARK    1  A    between atoms: C_1  and  C_2
REMARK    2  A    between atoms: C_2  and  C_3
REMARK    3  A    between atoms: C_3  and  N_4
REMARK    4  A    between atoms: C_3  and  C_5
REMARK    5  A    between atoms: C_9  and  O_10
REMARK    6  A    between atoms: O_10  and  C_11
REMARK                            x       y       z     vdW  Elec       q    Type
REMARK                         _______ _______ _______ _____ _____    ______ ____
ROOT
ATOM      1  C   UNL     1       4.816   5.125  17.429  0.00  0.00    +0.000 A 
ATOM      2  C   UNL     1       4.171   6.285  17.857  0.00  0.00    +0.000 A 
ATOM      3  C   UNL     1       2.805   6.239  18.123  0.00  0.00    +0.000 A 
ATOM      4  C   UNL     1       2.115   5.044  17.947  0.00  0.00    +0.000 A 
ATOM      5  C   UNL     1       2.824   3.942  17.503  0.00  0.00    +0.000 A 
ATOM      6  N   UNL     1       4.146   3.960  17.232  0.00  0.00    +0.000 NA
ENDROOT
BRANCH   5   7
ATOM      7  O   UNL     1       2.113   2.770  17.343  0.00  0.00    +0.000 OA
ATOM      8  C   UNL     1       1.598   2.271  18.573  0.00  0.00    +0.000 C 
ENDBRANCH   5   7
BRANCH   1   9
ATOM      9  C   UNL     1       6.308   5.150  17.103  0.00  0.00    +0.000 C 
BRANCH   9  10
ATOM     10  N   UNL     1       7.041   4.244  18.001  0.00  0.00    +0.000 NA
ATOM     11  H   UNL     1       6.353   3.656  18.474  0.00  0.00    +0.000 HD
ATOM     12  H   UNL     1       7.501   4.782  18.730  0.00  0.00    +0.000 HD
ENDBRANCH   9  10
BRANCH   9  14
ATOM     13  C   UNL     1       7.841   6.832  18.310  0.00  0.00    +0.000 C 
ATOM     14  C   UNL     1       6.865   6.590  17.166  0.00  0.00    +0.000 C 
ENDBRANCH   9  14
ENDBRANCH   1   9
TORSDOF 4
ENDMDL
MODEL 7
REMARK VINA RESULT:      -5.3      1.975      4.886
REMARK  Name = 
REMARK  6 active torsions:
REMARK  status: ('A' for Active; 'I' for Inactive)
REMARK    1  A    between atoms: C_1  and  C_2
REMARK    2  A    between atoms: C_2  and  C_3
REMARK    3  A    between atoms: C_3  and  N_4
REMARK    4  A    between atoms: C_3  and  C_5
REMARK    5  A    between atoms: C_9  and  O_10
REMARK    6  A    between atoms: O_10  and  C_11
REMARK                            x       y       z     vdW  Elec       q    Type
REMARK                         _______ _______ _______ _____ _____    ______ ____
ROOT
ATOM      1  C   UNL     1       6.038   5.281  18.272  0.00  0.00    +0.000 A 
ATOM      2  C   UNL     1       4.996   5.836  17.529  0.00  0.00    +0.000 A 
ATOM      3  C   UNL     1       3.721   5.286  17.636  0.00  0.00    +0.000 A 
ATOM      4  C   UNL     1       3.519   4.192  18.472  0.00  0.00    +0.000 A 
ATOM      5  C   UNL     1       4.608   3.689  19.161  0.00  0.00    +0.000 A 
ATOM      6  N   UNL     1       5.854   4.199  19.072  0.00  0.00    +0.000 NA
ENDROOT
BRANCH   5   7
ATOM      7  O   UNL     1       4.374   2.606  19.986  0.00  0.00    +0.000 OA
ATOM      8  C   UNL     1       3.136   2.707  20.682  0.00  0.00    +0.000 C 
ENDBRANCH   5   7
BRANCH   1   9
ATOM      9  C   UNL     1       7.452   5.846  18.155  0.00  0.00    +0.000 C 
BRANCH   9  10
ATOM     10  N   UNL     1       8.042   6.022  19.491  0.00  0.00    +0.000 NA
ATOM     11  H   UNL     1       8.774   6.730  19.414  0.00  0.00    +0.000 HD
ATOM     12  H   UNL     1       8.509   5.165  19.776  0.00  0.00    +0.000 HD
ENDBRANCH   9  10
BRANCH   9  14
ATOM     13  C   UNL     1       8.153   8.322  18.055  0.00  0.00    +0.000 C 
ATOM     14  C   UNL     1       7.457   7.166  17.351  0.00  0.00    +0.000 C 
ENDBRANCH   9  14
ENDBRANCH   1   9
TORSDOF 4
ENDMDL
MODEL 8
REMARK VINA RESULT:      -5.3      3.768      5.138
REMARK  Name = 
REMARK  6 active torsions:
REMARK  status: ('A' for Active; 'I' for Inactive)
REMARK    1  A    between atoms: C_1  and  C_2
REMARK    2  A    between atoms: C_2  and  C_3
REMARK    3  A    between atoms: C_3  and  N_4
REMARK    4  A    between atoms: C_3  and  C_5
REMARK    5  A    between atoms: C_9  and  O_10
REMARK    6  A    between atoms: O_10  and  C_11
REMARK                            x       y       z     vdW  Elec       q    Type
REMARK                         _______ _______ _______ _____ _____    ______ ____
ROOT
ATOM      1  C   UNL     1       6.597   4.929  15.213  0.00  0.00    +0.000 A 
ATOM      2  C   UNL     1       5.462   5.718  15.401  0.00  0.00    +0.000 A 
ATOM      3  C   UNL     1       5.160   6.173  16.682  0.00  0.00    +0.000 A 
ATOM      4  C   UNL     1       5.988   5.823  17.743  0.00  0.00    +0.000 A 
ATOM      5  C   UNL     1       7.084   5.022  17.477  0.00  0.00    +0.000 A 
ATOM      6  N   UNL     1       7.398   4.563  16.248  0.00  0.00    +0.000 NA
ENDROOT
BRANCH   5   7
ATOM      7  O   UNL     1       7.889   4.695  18.550  0.00  0.00    +0.000 OA
ATOM      8  C   UNL     1       7.940   5.729  19.529  0.00  0.00    +0.000 C 
ENDBRANCH   5   7
BRANCH   1   9
ATOM      9  C   UNL     1       6.940   4.393  13.825  0.00  0.00    +0.000 C 
BRANCH   9  10
ATOM     10  N   UNL     1       7.688   5.402  13.060  0.00  0.00    +0.000 NA
ATOM     11  H   UNL     1       8.683   5.234  13.217  0.00  0.00    +0.000 HD
ATOM     12  H   UNL     1       7.495   6.328  13.433  0.00  0.00    +0.000 HD
ENDBRANCH   9  10
BRANCH   9  14
ATOM     13  C   UNL     1       5.925   2.918  11.974  0.00  0.00    +0.000 C 
ATOM     14  C   UNL     1       5.667   3.936  13.077  0.00  0.00    +0.000 C 
ENDBRANCH   9  14
ENDBRANCH   1   9
TORSDOF 4
ENDMDL
MODEL 9
REMARK VINA RESULT:      -5.2      1.124      1.213
REMARK  Name = 
REMARK  6 active torsions:
REMARK  status: ('A' for Active; 'I' for Inactive)
REMARK    1  A    between atoms: C_1  and  C_2
REMARK    2  A    between atoms: C_2  and  C_3
REMARK    3  A    between atoms: C_3  and  N_4
REMARK    4  A    between atoms: C_3  and  C_5
REMARK    5  A    between atoms: C_9  and  O_10
REMARK    6  A    between atoms: O_10  and  C_11
REMARK                            x       y       z     vdW  Elec       q    Type
REMARK                         _______ _______ _______ _____ _____    ______ ____
ROOT
ATOM      1  C   UNL     1       3.530   3.777  18.554  0.00  0.00    +0.000 A 
ATOM      2  C   UNL     1       3.619   4.055  17.190  0.00  0.00    +0.000 A 
ATOM      3  C   UNL     1       4.750   4.708  16.706  0.00  0.00    +0.000 A 
ATOM      4  C   UNL     1       5.757   5.074  17.592  0.00  0.00    +0.000 A 
ATOM      5  C   UNL     1       5.585   4.778  18.933  0.00  0.00    +0.000 A 
ATOM      6  N   UNL     1       4.498   4.152  19.429  0.00  0.00    +0.000 NA
ENDROOT
BRANCH   5   7
ATOM      7  O   UNL     1       6.605   5.151  19.786  0.00  0.00    +0.000 OA
ATOM      8  C   UNL     1       7.706   5.736  19.099  0.00  0.00    +0.000 C 
ENDBRANCH   5   7
BRANCH   1   9
ATOM      9  C   UNL     1       2.291   3.087  19.119  0.00  0.00    +0.000 C 
BRANCH   9  10
ATOM     10  N   UNL     1       1.209   3.086  18.122  0.00  0.00    +0.000 NA
ATOM     11  H   UNL     1       1.150   2.144  17.732  0.00  0.00    +0.000 HD
ATOM     12  H   UNL     1       1.455   3.698  17.348  0.00  0.00    +0.000 HD
ENDBRANCH   9  10
BRANCH   9  14
ATOM     13  C   UNL     1       1.588   2.757  21.575  0.00  0.00    +0.000 C 
ATOM     14  C   UNL     1       1.845   3.745  20.445  0.00  0.00    +0.000 C 
ENDBRANCH   9  14
ENDBRANCH   1   9
TORSDOF 4
ENDMDL
