MODEL 1
REMARK VINA RESULT:      -7.0      0.000      0.000
REMARK  Name = 
REMARK  4 active torsions:
REMARK  status: ('A' for Active; 'I' for Inactive)
REMARK    1  A    between atoms: C_1  and  N_2
REMARK    2  A    between atoms: N_7  and  C_8
REMARK    3  A    between atoms: N_10  and  C_11
REMARK    4  A    between atoms: C_15  and  N_16
REMARK                            x       y       z     vdW  Elec       q    Type
REMARK                         _______ _______ _______ _____ _____    ______ ____
ROOT
ATOM      1  C   UNL     1       6.285   5.122  16.354  0.00  0.00    +0.000 C 
ATOM      2  O   UNL     1       6.761   4.453  17.264  0.00  0.00    +0.000 OA
ATOM      3  N   UNL     1       4.996   5.609  16.349  0.00  0.00    +0.000 N 
ATOM      4  H   UNL     1       4.752   6.105  15.504  0.00  0.00    +0.000 HD
ENDROOT
BRANCH   1  11
ATOM      5  C   UNL     1       8.559   5.861  12.703  0.00  0.00    +0.000 C 
ATOM      6  N   UNL     1       7.543   4.891  13.000  0.00  0.00    +0.000 N 
ATOM      7  C   UNL     1       7.200   3.846  12.056  0.00  0.00    +0.000 C 
ATOM      8  C   UNL     1       5.741   3.583  12.402  0.00  0.00    +0.000 C 
ATOM      9  C   UNL     1       5.668   3.811  13.913  0.00  0.00    +0.000 C 
ATOM     10  C   UNL     1       6.786   4.824  14.150  0.00  0.00    +0.000 C 
ATOM     11  N   UNL     1       6.995   5.498  15.243  0.00  0.00    +0.000 NA
ENDBRANCH   1  11
BRANCH   3  12
ATOM     12  C   UNL     1       4.019   5.410  17.354  0.00  0.00    +0.000 A 
ATOM     13  C   UNL     1       3.667   6.402  18.280  0.00  0.00    +0.000 A 
ATOM     14  C   UNL     1       2.739   6.163  19.297  0.00  0.00    +0.000 A 
ATOM     15  C   UNL     1       2.134   4.919  19.404  0.00  0.00    +0.000 A 
ATOM     16  C   UNL     1       2.450   3.926  18.468  0.00  0.00    +0.000 A 
ATOM     17  C   UNL     1       3.380   4.167  17.437  0.00  0.00    +0.000 A 
BRANCH  16  18
ATOM     18  N   UNL     1       1.812   2.612  18.588  0.00  0.00    +0.000 N 
ATOM     19  O   UNL     1       0.577   2.553  18.467  0.00  0.00    +0.000 OA
ATOM     20  O   UNL     1       2.540   1.634  18.806  0.00  0.00    +0.000 OA
ENDBRANCH  16  18
ENDBRANCH   3  12
TORSDOF 3
ENDMDL
MODEL 2
REMARK VINA RESULT:      -6.8      1.354      1.502
REMARK  Name = 
REMARK  4 active torsions:
REMARK  status: ('A' for Active; 'I' for Inactive)
REMARK    1  A    between atoms: C_1  and  N_2
REMARK    2  A    between atoms: N_7  and  C_8
REMARK    3  A    between atoms: N_10  and  C_11
REMARK    4  A    between atoms: C_15  and  N_16
REMARK                            x       y       z     vdW  Elec       q    Type
REMARK                         _______ _______ _______ _____ _____    ______ ____
ROOT
ATOM      1  C   UNL     1       6.626   5.132  16.470  0.00  0.00    +0.000 C 
ATOM      2  O   UNL     1       7.196   4.430  17.296  0.00  0.00    +0.000 OA
ATOM      3  N   UNL     1       5.360   5.649  16.638  0.00  0.00    +0.000 N 
ATOM      4  H   UNL     1       5.024   6.172  15.842  0.00  0.00    +0.000 HD
ENDROOT
BRANCH   1  11
ATOM      5  C   UNL     1       8.472   5.912  12.592  0.00  0.00    +0.000 C 
ATOM      6  N   UNL     1       7.529   4.910  13.003  0.00  0.00    +0.000 N 
ATOM      7  C   UNL     1       7.126   3.843  12.107  0.00  0.00    +0.000 C 
ATOM      8  C   UNL     1       5.722   3.533  12.608  0.00  0.00    +0.000 C 
ATOM      9  C   UNL     1       5.801   3.775  14.117  0.00  0.00    +0.000 C 
ATOM     10  C   UNL     1       6.901   4.829  14.227  0.00  0.00    +0.000 C 
ATOM     11  N   UNL     1       7.200   5.522  15.286  0.00  0.00    +0.000 NA
ENDBRANCH   1  11
BRANCH   3  12
ATOM     12  C   UNL     1       4.512   5.446  17.753  0.00  0.00    +0.000 A 
ATOM     13  C   UNL     1       3.611   6.418  18.211  0.00  0.00    +0.000 A 
ATOM     14  C   UNL     1       2.824   6.215  19.348  0.00  0.00    +0.000 A 
ATOM     15  C   UNL     1       2.917   5.022  20.050  0.00  0.00    +0.000 A 
ATOM     16  C   UNL     1       3.789   4.027  19.589  0.00  0.00    +0.000 A 
ATOM     17  C   UNL     1       4.578   4.227  18.439  0.00  0.00    +0.000 A 
BRANCH  16  18
ATOM     18  N   UNL     1       3.889   2.771  20.337  0.00  0.00    +0.000 N 
ATOM     19  O   UNL     1       4.854   2.027  20.096  0.00  0.00    +0.000 OA
ATOM     20  O   UNL     1       3.002   2.519  21.165  0.00  0.00    +0.000 OA
ENDBRANCH  16  18
ENDBRANCH   3  12
TORSDOF 3
ENDMDL
MODEL 3
REMARK VINA RESULT:      -6.8      4.690      6.861
REMARK  Name = 
REMARK  4 active torsions:
REMARK  status: ('A' for Active; 'I' for Inactive)
REMARK    1  A    between atoms: C_1  and  N_2
REMARK    2  A    between atoms: N_7  and  C_8
REMARK    3  A    between atoms: N_10  and  C_11
REMARK    4  A    between atoms: C_15  and  N_16
REMARK                            x       y       z     vdW  Elec       q    Type
REMARK                         _______ _______ _______ _____ _____    ______ ____
ROOT
ATOM      1  C   UNL     1       1.877   5.515  20.450  0.00  0.00    +0.000 C 
ATOM      2  O   UNL     1       0.686   5.298  20.637  0.00  0.00    +0.000 OA
ATOM      3  N   UNL     1       2.415   6.773  20.284  0.00  0.00    +0.000 N 
ATOM      4  H   UNL     1       3.407   6.770  20.099  0.00  0.00    +0.000 HD
ENDROOT
BRANCH   1  11
ATOM      5  C   UNL     1       4.589   2.112  20.116  0.00  0.00    +0.000 C 
ATOM      6  N   UNL     1       3.598   2.619  19.210  0.00  0.00    +0.000 N 
ATOM      7  C   UNL     1       3.258   1.910  17.992  0.00  0.00    +0.000 C 
ATOM      8  C   UNL     1       2.815   3.049  17.084  0.00  0.00    +0.000 C 
ATOM      9  C   UNL     1       2.153   4.049  18.034  0.00  0.00    +0.000 C 
ATOM     10  C   UNL     1       2.881   3.788  19.351  0.00  0.00    +0.000 C 
ATOM     11  N   UNL     1       2.828   4.527  20.420  0.00  0.00    +0.000 NA
ENDBRANCH   1  11
BRANCH   3  12
ATOM     12  C   UNL     1       1.703   7.996  20.279  0.00  0.00    +0.000 A 
ATOM     13  C   UNL     1       1.544   8.780  19.127  0.00  0.00    +0.000 A 
ATOM     14  C   UNL     1       0.885  10.012  19.160  0.00  0.00    +0.000 A 
ATOM     15  C   UNL     1       0.359  10.484  20.354  0.00  0.00    +0.000 A 
ATOM     16  C   UNL     1       0.481   9.699  21.508  0.00  0.00    +0.000 A 
ATOM     17  C   UNL     1       1.139   8.454  21.476  0.00  0.00    +0.000 A 
BRANCH  16  18
ATOM     18  N   UNL     1      -0.071  10.204  22.769  0.00  0.00    +0.000 N 
ATOM     19  O   UNL     1      -0.897  11.131  22.711  0.00  0.00    +0.000 OA
ATOM     20  O   UNL     1       0.319   9.681  23.821  0.00  0.00    +0.000 OA
ENDBRANCH  16  18
ENDBRANCH   3  12
TORSDOF 3
ENDMDL
MODEL 4
REMARK VINA RESULT:      -6.8      2.589      6.462
REMARK  Name = 
REMARK  4 active torsions:
REMARK  status: ('A' for Active; 'I' for Inactive)
REMARK    1  A    between atoms: C_1  and  N_2
REMARK    2  A    between atoms: N_7  and  C_8
REMARK    3  A    between atoms: N_10  and  C_11
REMARK    4  A    between atoms: C_15  and  N_16
REMARK                            x       y       z     vdW  Elec       q    Type
REMARK                         _______ _______ _______ _____ _____    ______ ____
ROOT
ATOM      1  C   UNL     1       5.737   4.687  17.153  0.00  0.00    +0.000 C 
ATOM      2  O   UNL     1       6.873   4.285  17.372  0.00  0.00    +0.000 OA
ATOM      3  N   UNL     1       5.203   4.841  15.892  0.00  0.00    +0.000 N 
ATOM      4  H   UNL     1       4.267   5.222  15.890  0.00  0.00    +0.000 HD
ENDROOT
BRANCH   1  11
ATOM      5  C   UNL     1       2.557   5.481  20.036  0.00  0.00    +0.000 C 
ATOM      6  N   UNL     1       2.753   4.387  19.126  0.00  0.00    +0.000 N 
ATOM      7  C   UNL     1       1.742   3.363  18.951  0.00  0.00    +0.000 C 
ATOM      8  C   UNL     1       2.587   2.159  18.557  0.00  0.00    +0.000 C 
ATOM      9  C   UNL     1       3.741   2.759  17.753  0.00  0.00    +0.000 C 
ATOM     10  C   UNL     1       3.866   4.160  18.346  0.00  0.00    +0.000 C 
ATOM     11  N   UNL     1       4.842   4.997  18.145  0.00  0.00    +0.000 NA
ENDBRANCH   1  11
BRANCH   3  12
ATOM     12  C   UNL     1       5.862   4.591  14.665  0.00  0.00    +0.000 A 
ATOM     13  C   UNL     1       7.057   5.228  14.299  0.00  0.00    +0.000 A 
ATOM     14  C   UNL     1       7.659   5.006  13.058  0.00  0.00    +0.000 A 
ATOM     15  C   UNL     1       7.078   4.128  12.154  0.00  0.00    +0.000 A 
ATOM     16  C   UNL     1       5.902   3.459  12.515  0.00  0.00    +0.000 A 
ATOM     17  C   UNL     1       5.296   3.676  13.769  0.00  0.00    +0.000 A 
BRANCH  16  18
ATOM     18  N   UNL     1       5.288   2.537  11.555  0.00  0.00    +0.000 N 
ATOM     19  O   UNL     1       5.914   1.505  11.260  0.00  0.00    +0.000 OA
ATOM     20  O   UNL     1       4.181   2.841  11.088  0.00  0.00    +0.000 OA
ENDBRANCH  16  18
ENDBRANCH   3  12
TORSDOF 3
ENDMDL
MODEL 5
REMARK VINA RESULT:      -6.7      2.567      6.712
REMARK  Name = 
REMARK  4 active torsions:
REMARK  status: ('A' for Active; 'I' for Inactive)
REMARK    1  A    between atoms: C_1  and  N_2
REMARK    2  A    between atoms: N_7  and  C_8
REMARK    3  A    between atoms: N_10  and  C_11
REMARK    4  A    between atoms: C_15  and  N_16
REMARK                            x       y       z     vdW  Elec       q    Type
REMARK                         _______ _______ _______ _____ _____    ______ ____
ROOT
ATOM      1  C   UNL     1       4.747   4.494  18.148  0.00  0.00    +0.000 C 
ATOM      2  O   UNL     1       4.642   5.706  18.002  0.00  0.00    +0.000 OA
ATOM      3  N   UNL     1       5.396   3.664  17.260  0.00  0.00    +0.000 N 
ATOM      4  H   UNL     1       5.353   2.687  17.511  0.00  0.00    +0.000 HD
ENDROOT
BRANCH   1  11
ATOM      5  C   UNL     1       2.792   2.593  21.556  0.00  0.00    +0.000 C 
ATOM      6  N   UNL     1       2.268   3.032  20.293  0.00  0.00    +0.000 N 
ATOM      7  C   UNL     1       0.845   3.003  20.017  0.00  0.00    +0.000 C 
ATOM      8  C   UNL     1       0.826   2.824  18.505  0.00  0.00    +0.000 C 
ATOM      9  C   UNL     1       2.058   3.593  18.023  0.00  0.00    +0.000 C 
ATOM     10  C   UNL     1       2.998   3.503  19.223  0.00  0.00    +0.000 C 
ATOM     11  N   UNL     1       4.259   3.821  19.239  0.00  0.00    +0.000 NA
ENDBRANCH   1  11
BRANCH   3  12
ATOM     12  C   UNL     1       6.018   4.051  16.049  0.00  0.00    +0.000 A 
ATOM     13  C   UNL     1       7.023   5.028  15.988  0.00  0.00    +0.000 A 
ATOM     14  C   UNL     1       7.583   5.433  14.774  0.00  0.00    +0.000 A 
ATOM     15  C   UNL     1       7.152   4.858  13.587  0.00  0.00    +0.000 A 
ATOM     16  C   UNL     1       6.172   3.858  13.632  0.00  0.00    +0.000 A 
ATOM     17  C   UNL     1       5.611   3.443  14.856  0.00  0.00    +0.000 A 
BRANCH  16  18
ATOM     18  N   UNL     1       5.715   3.257  12.375  0.00  0.00    +0.000 N 
ATOM     19  O   UNL     1       6.510   2.529  11.758  0.00  0.00    +0.000 OA
ATOM     20  O   UNL     1       4.564   3.513  11.997  0.00  0.00    +0.000 OA
ENDBRANCH  16  18
ENDBRANCH   3  12
TORSDOF 3
ENDMDL
MODEL 6
REMARK VINA RESULT:      -6.7      3.243      7.345
REMARK  Name = 
REMARK  4 active torsions:
REMARK  status: ('A' for Active; 'I' for Inactive)
REMARK    1  A    between atoms: C_1  and  N_2
REMARK    2  A    between atoms: N_7  and  C_8
REMARK    3  A    between atoms: N_10  and  C_11
REMARK    4  A    between atoms: C_15  and  N_16
REMARK                            x       y       z     vdW  Elec       q    Type
REMARK                         _______ _______ _______ _____ _____    ______ ____
ROOT
ATOM      1  C   UNL     1       2.803   7.180  17.969  0.00  0.00    +0.000 C 
ATOM      2  O   UNL     1       2.305   6.070  18.112  0.00  0.00    +0.000 OA
ATOM      3  N   UNL     1       4.118   7.396  17.619  0.00  0.00    +0.000 N 
ATOM      4  H   UNL     1       4.375   8.372  17.585  0.00  0.00    +0.000 HD
ENDROOT
BRANCH   1  11
ATOM      5  C   UNL     1       0.257  10.653  18.681  0.00  0.00    +0.000 C 
ATOM      6  N   UNL     1       0.626   9.563  19.540  0.00  0.00    +0.000 N 
ATOM      7  C   UNL     1       0.033   9.406  20.853  0.00  0.00    +0.000 C 
ATOM      8  C   UNL     1       1.144   8.689  21.610  0.00  0.00    +0.000 C 
ATOM      9  C   UNL     1       1.805   7.803  20.553  0.00  0.00    +0.000 C 
ATOM     10  C   UNL     1       1.549   8.578  19.262  0.00  0.00    +0.000 C 
ATOM     11  N   UNL     1       2.095   8.347  18.104  0.00  0.00    +0.000 NA
ENDBRANCH   1  11
BRANCH   3  12
ATOM     12  C   UNL     1       5.101   6.403  17.393  0.00  0.00    +0.000 A 
ATOM     13  C   UNL     1       5.743   5.717  18.434  0.00  0.00    +0.000 A 
ATOM     14  C   UNL     1       6.750   4.780  18.186  0.00  0.00    +0.000 A 
ATOM     15  C   UNL     1       7.131   4.502  16.881  0.00  0.00    +0.000 A 
ATOM     16  C   UNL     1       6.478   5.156  15.828  0.00  0.00    +0.000 A 
ATOM     17  C   UNL     1       5.458   6.095  16.074  0.00  0.00    +0.000 A 
BRANCH  16  18
ATOM     18  N   UNL     1       6.888   4.864  14.451  0.00  0.00    +0.000 N 
ATOM     19  O   UNL     1       6.295   3.952  13.850  0.00  0.00    +0.000 OA
ATOM     20  O   UNL     1       7.805   5.540  13.965  0.00  0.00    +0.000 OA
ENDBRANCH  16  18
ENDBRANCH   3  12
TORSDOF 3
ENDMDL
MODEL 7
REMARK VINA RESULT:      -6.6      5.012      6.978
REMARK  Name = 
REMARK  4 active torsions:
REMARK  status: ('A' for Active; 'I' for Inactive)
REMARK    1  A    between atoms: C_1  and  N_2
REMARK    2  A    between atoms: N_7  and  C_8
REMARK    3  A    between atoms: N_10  and  C_11
REMARK    4  A    between atoms: C_15  and  N_16
REMARK                            x       y       z     vdW  Elec       q    Type
REMARK                         _______ _______ _______ _____ _____    ______ ____
ROOT
ATOM      1  C   UNL     1       3.117   6.409  19.095  0.00  0.00    +0.000 C 
ATOM      2  O   UNL     1       3.270   7.025  18.048  0.00  0.00    +0.000 OA
ATOM      3  N   UNL     1       2.366   6.866  20.156  0.00  0.00    +0.000 N 
ATOM      4  H   UNL     1       2.378   6.253  20.958  0.00  0.00    +0.000 HD
ENDROOT
BRANCH   1  11
ATOM      5  C   UNL     1       4.388   2.335  20.012  0.00  0.00    +0.000 C 
ATOM      6  N   UNL     1       3.111   2.857  19.612  0.00  0.00    +0.000 N 
ATOM      7  C   UNL     1       1.931   2.015  19.579  0.00  0.00    +0.000 C 
ATOM      8  C   UNL     1       1.104   2.685  18.490  0.00  0.00    +0.000 C 
ATOM      9  C   UNL     1       1.430   4.172  18.634  0.00  0.00    +0.000 C 
ATOM     10  C   UNL     1       2.843   4.148  19.214  0.00  0.00    +0.000 C 
ATOM     11  N   UNL     1       3.647   5.164  19.323  0.00  0.00    +0.000 NA
ENDBRANCH   1  11
BRANCH   3  12
ATOM     12  C   UNL     1       1.679   8.102  20.227  0.00  0.00    +0.000 A 
ATOM     13  C   UNL     1       1.468   8.922  19.108  0.00  0.00    +0.000 A 
ATOM     14  C   UNL     1       0.836  10.163  19.215  0.00  0.00    +0.000 A 
ATOM     15  C   UNL     1       0.389  10.609  20.450  0.00  0.00    +0.000 A 
ATOM     16  C   UNL     1       0.563   9.789  21.573  0.00  0.00    +0.000 A 
ATOM     17  C   UNL     1       1.194   8.534  21.468  0.00  0.00    +0.000 A 
BRANCH  16  18
ATOM     18  N   UNL     1       0.095  10.267  22.877  0.00  0.00    +0.000 N 
ATOM     19  O   UNL     1       0.374   9.586  23.879  0.00  0.00    +0.000 OA
ATOM     20  O   UNL     1      -0.555  11.320  22.908  0.00  0.00    +0.000 OA
ENDBRANCH  16  18
ENDBRANCH   3  12
TORSDOF 3
ENDMDL
MODEL 8
REMARK VINA RESULT:      -6.5      4.562      6.708
REMARK  Name = 
REMARK  4 active torsions:
REMARK  status: ('A' for Active; 'I' for Inactive)
REMARK    1  A    between atoms: C_1  and  N_2
REMARK    2  A    between atoms: N_7  and  C_8
REMARK    3  A    between atoms: N_10  and  C_11
REMARK    4  A    between atoms: C_15  and  N_16
REMARK                            x       y       z     vdW  Elec       q    Type
REMARK                         _______ _______ _______ _____ _____    ______ ____
ROOT
ATOM      1  C   UNL     1       2.873   7.100  18.138  0.00  0.00    +0.000 C 
ATOM      2  O   UNL     1       4.080   7.015  17.952  0.00  0.00    +0.000 OA
ATOM      3  N   UNL     1       2.052   6.021  18.385  0.00  0.00    +0.000 N 
ATOM      4  H   UNL     1       1.076   6.263  18.475  0.00  0.00    +0.000 HD
ENDROOT
BRANCH   1  11
ATOM      5  C   UNL     1       0.399  10.679  18.489  0.00  0.00    +0.000 C 
ATOM      6  N   UNL     1       0.680   9.632  19.431  0.00  0.00    +0.000 N 
ATOM      7  C   UNL     1       0.004   9.569  20.711  0.00  0.00    +0.000 C 
ATOM      8  C   UNL     1       1.042   8.867  21.576  0.00  0.00    +0.000 C 
ATOM      9  C   UNL     1       1.739   7.902  20.615  0.00  0.00    +0.000 C 
ATOM     10  C   UNL     1       1.587   8.606  19.268  0.00  0.00    +0.000 C 
ATOM     11  N   UNL     1       2.195   8.292  18.162  0.00  0.00    +0.000 NA
ENDBRANCH   1  11
BRANCH   3  12
ATOM     12  C   UNL     1       2.446   4.662  18.441  0.00  0.00    +0.000 A 
ATOM     13  C   UNL     1       2.331   3.790  17.349  0.00  0.00    +0.000 A 
ATOM     14  C   UNL     1       2.675   2.439  17.446  0.00  0.00    +0.000 A 
ATOM     15  C   UNL     1       3.154   1.931  18.646  0.00  0.00    +0.000 A 
ATOM     16  C   UNL     1       3.305   2.795  19.738  0.00  0.00    +0.000 A 
ATOM     17  C   UNL     1       2.965   4.159  19.640  0.00  0.00    +0.000 A 
BRANCH  16  18
ATOM     18  N   UNL     1       3.805   2.254  21.005  0.00  0.00    +0.000 N 
ATOM     19  O   UNL     1       4.967   1.814  21.029  0.00  0.00    +0.000 OA
ATOM     20  O   UNL     1       3.040   2.260  21.979  0.00  0.00    +0.000 OA
ENDBRANCH  16  18
ENDBRANCH   3  12
TORSDOF 3
ENDMDL
MODEL 9
REMARK VINA RESULT:      -6.5      2.018      2.387
REMARK  Name = 
REMARK  4 active torsions:
REMARK  status: ('A' for Active; 'I' for Inactive)
REMARK    1  A    between atoms: C_1  and  N_2
REMARK    2  A    between atoms: N_7  and  C_8
REMARK    3  A    between atoms: N_10  and  C_11
REMARK    4  A    between atoms: C_15  and  N_16
REMARK                            x       y       z     vdW  Elec       q    Type
REMARK                         _______ _______ _______ _____ _____    ______ ____
ROOT
ATOM      1  C   UNL     1       6.378   4.982  16.276  0.00  0.00    +0.000 C 
ATOM      2  O   UNL     1       6.922   4.414  17.215  0.00  0.00    +0.000 OA
ATOM      3  N   UNL     1       5.035   5.287  16.232  0.00  0.00    +0.000 N 
ATOM      4  H   UNL     1       4.743   5.718  15.367  0.00  0.00    +0.000 HD
ENDROOT
BRANCH   1  11
ATOM      5  C   UNL     1       8.559   5.915  12.612  0.00  0.00    +0.000 C 
ATOM      6  N   UNL     1       7.588   4.896  12.897  0.00  0.00    +0.000 N 
ATOM      7  C   UNL     1       7.272   3.865  11.929  0.00  0.00    +0.000 C 
ATOM      8  C   UNL     1       5.831   3.533  12.290  0.00  0.00    +0.000 C 
ATOM      9  C   UNL     1       5.774   3.716  13.808  0.00  0.00    +0.000 C 
ATOM     10  C   UNL     1       6.853   4.767  14.056  0.00  0.00    +0.000 C 
ATOM     11  N   UNL     1       7.054   5.418  15.164  0.00  0.00    +0.000 NA
ENDBRANCH   1  11
BRANCH   3  12
ATOM     12  C   UNL     1       4.073   4.987  17.226  0.00  0.00    +0.000 A 
ATOM     13  C   UNL     1       3.552   3.698  17.417  0.00  0.00    +0.000 A 
ATOM     14  C   UNL     1       2.563   3.438  18.368  0.00  0.00    +0.000 A 
ATOM     15  C   UNL     1       2.076   4.468  19.161  0.00  0.00    +0.000 A 
ATOM     16  C   UNL     1       2.608   5.755  19.006  0.00  0.00    +0.000 A 
ATOM     17  C   UNL     1       3.611   6.018  18.052  0.00  0.00    +0.000 A 
BRANCH  16  18
ATOM     18  N   UNL     1       2.087   6.841  19.841  0.00  0.00    +0.000 N 
ATOM     19  O   UNL     1       1.587   6.541  20.938  0.00  0.00    +0.000 OA
ATOM     20  O   UNL     1       2.172   7.997  19.405  0.00  0.00    +0.000 OA
ENDBRANCH  16  18
ENDBRANCH   3  12
TORSDOF 3
ENDMDL
