MODEL 1
REMARK VINA RESULT:      -7.3      0.000      0.000
REMARK  Name = 
REMARK  8 active torsions:
REMARK  status: ('A' for Active; 'I' for Inactive)
REMARK    1  A    between atoms: C_1  and  O_2
REMARK    2  A    between atoms: O_2  and  C_3
REMARK    3  A    between atoms: C_3  and  C_5
REMARK    4  A    between atoms: C_5  and  C_6
REMARK    5  A    between atoms: C_5  and  O_7
REMARK    6  A    between atoms: O_7  and  C_8
REMARK    7  A    between atoms: C_11  and  N_12
REMARK    8  A    between atoms: N_12  and  C_13
REMARK                            x       y       z     vdW  Elec       q    Type
REMARK                         _______ _______ _______ _____ _____    ______ ____
ROOT
ATOM      1  C   UNL     1       3.115   6.914  18.321  0.00  0.00    +0.000 A 
ATOM      2  C   UNL     1       2.569   6.754  19.594  0.00  0.00    +0.000 A 
ATOM      3  C   UNL     1       1.714   7.725  20.161  0.00  0.00    +0.000 A 
ATOM      4  C   UNL     1       1.391   8.914  19.496  0.00  0.00    +0.000 A 
ATOM      5  C   UNL     1       1.932   9.025  18.193  0.00  0.00    +0.000 A 
ATOM      6  C   UNL     1       2.790   8.063  17.621  0.00  0.00    +0.000 A 
ENDROOT
BRANCH   4   7
ATOM      7  N   UNL     1       0.572   9.922  20.062  0.00  0.00    +0.000 N 
ATOM      8  C   UNL     1       0.857  10.357  21.442  0.00  0.00    +0.000 C 
ATOM      9  C   UNL     1      -0.689  10.474  19.650  0.00  0.00    +0.000 A 
ATOM     10  N   UNL     1      -1.197  11.514  20.360  0.00  0.00    +0.000 NA
ATOM     11  N   UNL     1      -2.366  12.145  20.016  0.00  0.00    +0.000 NA
ATOM     12  C   UNL     1      -3.039  11.716  18.953  0.00  0.00    +0.000 A 
ATOM     13  C   UNL     1      -4.210  12.360  18.555  0.00  0.00    +0.000 A 
ATOM     14  C   UNL     1      -4.915  11.909  17.447  0.00  0.00    +0.000 A 
ATOM     15 CL   UNL     1      -6.338  12.727  16.939  0.00  0.00    +0.000 Cl
ATOM     16  C   UNL     1      -4.457  10.799  16.753  0.00  0.00    +0.000 A 
ATOM     17  C   UNL     1      -3.279  10.162  17.158  0.00  0.00    +0.000 A 
ATOM     18  C   UNL     1      -2.534  10.620  18.245  0.00  0.00    +0.000 A 
ATOM     19  N   UNL     1      -1.366  10.011  18.581  0.00  0.00    +0.000 NA
ENDBRANCH   4   7
BRANCH   1  20
ATOM     20  O   UNL     1       3.944   5.916  17.891  0.00  0.00    +0.000 OA
BRANCH  20  21
ATOM     21  C   UNL     1       4.739   5.214  18.853  0.00  0.00    +0.000 C 
ATOM     22  C   UNL     1       6.201   5.550  18.539  0.00  0.00    +0.000 C 
BRANCH  21  23
ATOM     23  C   UNL     1       4.583   3.683  18.847  0.00  0.00    +0.000 C 
ATOM     24  O   UNL     1       4.910   2.921  19.748  0.00  0.00    +0.000 OA
BRANCH  23  26
ATOM     25  C   UNL     1       2.793   2.601  17.750  0.00  0.00    +0.000 C 
ATOM     26  O   UNL     1       4.048   3.281  17.653  0.00  0.00    +0.000 OA
ENDBRANCH  23  26
ENDBRANCH  21  23
ENDBRANCH  20  21
ENDBRANCH   1  20
TORSDOF 5
ENDMDL
MODEL 2
REMARK VINA RESULT:      -7.2      0.538      1.297
REMARK  Name = 
REMARK  8 active torsions:
REMARK  status: ('A' for Active; 'I' for Inactive)
REMARK    1  A    between atoms: C_1  and  O_2
REMARK    2  A    between atoms: O_2  and  C_3
REMARK    3  A    between atoms: C_3  and  C_5
REMARK    4  A    between atoms: C_5  and  C_6
REMARK    5  A    between atoms: C_5  and  O_7
REMARK    6  A    between atoms: O_7  and  C_8
REMARK    7  A    between atoms: C_11  and  N_12
REMARK    8  A    between atoms: N_12  and  C_13
REMARK                            x       y       z     vdW  Elec       q    Type
REMARK                         _______ _______ _______ _____ _____    ______ ____
ROOT
ATOM      1  C   UNL     1       3.112   6.932  18.205  0.00  0.00    +0.000 A 
ATOM      2  C   UNL     1       2.802   8.126  17.556  0.00  0.00    +0.000 A 
ATOM      3  C   UNL     1       1.986   9.108  18.161  0.00  0.00    +0.000 A 
ATOM      4  C   UNL     1       1.417   8.928  19.429  0.00  0.00    +0.000 A 
ATOM      5  C   UNL     1       1.784   7.723  20.072  0.00  0.00    +0.000 A 
ATOM      6  C   UNL     1       2.594   6.735  19.473  0.00  0.00    +0.000 A 
ENDROOT
BRANCH   4   7
ATOM      7  N   UNL     1       0.560   9.878  20.037  0.00  0.00    +0.000 N 
ATOM      8  C   UNL     1       0.800  10.227  21.449  0.00  0.00    +0.000 C 
ATOM      9  C   UNL     1      -0.703  10.428  19.629  0.00  0.00    +0.000 A 
ATOM     10  N   UNL     1      -1.253  11.408  20.391  0.00  0.00    +0.000 NA
ATOM     11  N   UNL     1      -2.427  12.034  20.057  0.00  0.00    +0.000 NA
ATOM     12  C   UNL     1      -3.063  11.661  18.951  0.00  0.00    +0.000 A 
ATOM     13  C   UNL     1      -4.239  12.303  18.565  0.00  0.00    +0.000 A 
ATOM     14  C   UNL     1      -4.905  11.910  17.412  0.00  0.00    +0.000 A 
ATOM     15 CL   UNL     1      -6.334  12.728  16.920  0.00  0.00    +0.000 Cl
ATOM     16  C   UNL     1      -4.403  10.859  16.659  0.00  0.00    +0.000 A 
ATOM     17  C   UNL     1      -3.221  10.222  17.054  0.00  0.00    +0.000 A 
ATOM     18  C   UNL     1      -2.515  10.624  18.188  0.00  0.00    +0.000 A 
ATOM     19  N   UNL     1      -1.341  10.021  18.514  0.00  0.00    +0.000 NA
ENDBRANCH   4   7
BRANCH   1  20
ATOM     20  O   UNL     1       3.892   6.053  17.508  0.00  0.00    +0.000 OA
BRANCH  20  21
ATOM     21  C   UNL     1       4.875   5.289  18.213  0.00  0.00    +0.000 C 
ATOM     22  C   UNL     1       6.182   5.423  17.422  0.00  0.00    +0.000 C 
BRANCH  21  23
ATOM     23  C   UNL     1       4.560   3.791  18.372  0.00  0.00    +0.000 C 
ATOM     24  O   UNL     1       3.878   3.113  17.615  0.00  0.00    +0.000 OA
BRANCH  23  26
ATOM     25  C   UNL     1       4.424   2.256  20.162  0.00  0.00    +0.000 C 
ATOM     26  O   UNL     1       5.132   3.322  19.524  0.00  0.00    +0.000 OA
ENDBRANCH  23  26
ENDBRANCH  21  23
ENDBRANCH  20  21
ENDBRANCH   1  20
TORSDOF 5
ENDMDL
MODEL 3
REMARK VINA RESULT:      -7.2      5.579      9.538
REMARK  Name = 
REMARK  8 active torsions:
REMARK  status: ('A' for Active; 'I' for Inactive)
REMARK    1  A    between atoms: C_1  and  O_2
REMARK    2  A    between atoms: O_2  and  C_3
REMARK    3  A    between atoms: C_3  and  C_5
REMARK    4  A    between atoms: C_5  and  C_6
REMARK    5  A    between atoms: C_5  and  O_7
REMARK    6  A    between atoms: O_7  and  C_8
REMARK    7  A    between atoms: C_11  and  N_12
REMARK    8  A    between atoms: N_12  and  C_13
REMARK                            x       y       z     vdW  Elec       q    Type
REMARK                         _______ _______ _______ _____ _____    ______ ____
ROOT
ATOM      1  C   UNL     1      -0.623  10.590  22.468  0.00  0.00    +0.000 A 
ATOM      2  C   UNL     1      -0.747  10.960  21.129  0.00  0.00    +0.000 A 
ATOM      3  C   UNL     1      -0.005  10.321  20.111  0.00  0.00    +0.000 A 
ATOM      4  C   UNL     1       0.918   9.304  20.388  0.00  0.00    +0.000 A 
ATOM      5  C   UNL     1       0.990   8.929  21.750  0.00  0.00    +0.000 A 
ATOM      6  C   UNL     1       0.256   9.565  22.773  0.00  0.00    +0.000 A 
ENDROOT
BRANCH   4   7
ATOM      7  N   UNL     1       1.706   8.678  19.389  0.00  0.00    +0.000 N 
ATOM      8  C   UNL     1       1.826   9.345  18.080  0.00  0.00    +0.000 C 
ATOM      9  C   UNL     1       2.247   7.351  19.289  0.00  0.00    +0.000 A 
ATOM     10  N   UNL     1       3.054   7.065  18.236  0.00  0.00    +0.000 NA
ATOM     11  N   UNL     1       3.663   5.845  18.080  0.00  0.00    +0.000 NA
ATOM     12  C   UNL     1       3.446   4.898  18.986  0.00  0.00    +0.000 A 
ATOM     13  C   UNL     1       4.079   3.661  18.875  0.00  0.00    +0.000 A 
ATOM     14  C   UNL     1       3.850   2.669  19.820  0.00  0.00    +0.000 A 
ATOM     15 CL   UNL     1       4.660   1.159  19.701  0.00  0.00    +0.000 Cl
ATOM     16  C   UNL     1       2.968   2.913  20.863  0.00  0.00    +0.000 A 
ATOM     17  C   UNL     1       2.339   4.159  20.967  0.00  0.00    +0.000 A 
ATOM     18  C   UNL     1       2.583   5.182  20.050  0.00  0.00    +0.000 A 
ATOM     19  N   UNL     1       1.999   6.399  20.209  0.00  0.00    +0.000 NA
ENDBRANCH   4   7
BRANCH   1  20
ATOM     20  O   UNL     1      -1.377  11.297  23.361  0.00  0.00    +0.000 OA
BRANCH  20  21
ATOM     21  C   UNL     1      -2.107  12.438  22.899  0.00  0.00    +0.000 C 
ATOM     22  C   UNL     1      -1.429  13.669  23.513  0.00  0.00    +0.000 C 
BRANCH  21  23
ATOM     23  C   UNL     1      -3.598  12.468  23.282  0.00  0.00    +0.000 C 
ATOM     24  O   UNL     1      -4.090  12.011  24.305  0.00  0.00    +0.000 OA
BRANCH  23  26
ATOM     25  C   UNL     1      -5.198  14.105  22.698  0.00  0.00    +0.000 C 
ATOM     26  O   UNL     1      -4.317  13.059  22.277  0.00  0.00    +0.000 OA
ENDBRANCH  23  26
ENDBRANCH  21  23
ENDBRANCH  20  21
ENDBRANCH   1  20
TORSDOF 5
ENDMDL
MODEL 4
REMARK VINA RESULT:      -7.2      5.649      9.504
REMARK  Name = 
REMARK  8 active torsions:
REMARK  status: ('A' for Active; 'I' for Inactive)
REMARK    1  A    between atoms: C_1  and  O_2
REMARK    2  A    between atoms: O_2  and  C_3
REMARK    3  A    between atoms: C_3  and  C_5
REMARK    4  A    between atoms: C_5  and  C_6
REMARK    5  A    between atoms: C_5  and  O_7
REMARK    6  A    between atoms: O_7  and  C_8
REMARK    7  A    between atoms: C_11  and  N_12
REMARK    8  A    between atoms: N_12  and  C_13
REMARK                            x       y       z     vdW  Elec       q    Type
REMARK                         _______ _______ _______ _____ _____    ______ ____
ROOT
ATOM      1  C   UNL     1      -0.895  10.788  22.298  0.00  0.00    +0.000 A 
ATOM      2  C   UNL     1       0.006   9.789  22.665  0.00  0.00    +0.000 A 
ATOM      3  C   UNL     1       0.853   9.171  21.718  0.00  0.00    +0.000 A 
ATOM      4  C   UNL     1       0.816   9.500  20.357  0.00  0.00    +0.000 A 
ATOM      5  C   UNL     1      -0.083  10.541  20.028  0.00  0.00    +0.000 A 
ATOM      6  C   UNL     1      -0.936  11.160  20.965  0.00  0.00    +0.000 A 
ENDROOT
BRANCH   4   7
ATOM      7  N   UNL     1       1.624   8.863  19.383  0.00  0.00    +0.000 N 
ATOM      8  C   UNL     1       1.772   9.514  18.068  0.00  0.00    +0.000 C 
ATOM      9  C   UNL     1       2.166   7.534  19.309  0.00  0.00    +0.000 A 
ATOM     10  N   UNL     1       2.995   7.236  18.276  0.00  0.00    +0.000 NA
ATOM     11  N   UNL     1       3.606   6.014  18.146  0.00  0.00    +0.000 NA
ATOM     12  C   UNL     1       3.370   5.077  19.058  0.00  0.00    +0.000 A 
ATOM     13  C   UNL     1       4.005   3.838  18.975  0.00  0.00    +0.000 A 
ATOM     14  C   UNL     1       3.755   2.858  19.926  0.00  0.00    +0.000 A 
ATOM     15 CL   UNL     1       4.567   1.346  19.841  0.00  0.00    +0.000 Cl
ATOM     16  C   UNL     1       2.852   3.113  20.948  0.00  0.00    +0.000 A 
ATOM     17  C   UNL     1       2.222   4.361  21.024  0.00  0.00    +0.000 A 
ATOM     18  C   UNL     1       2.485   5.373  20.101  0.00  0.00    +0.000 A 
ATOM     19  N   UNL     1       1.898   6.592  20.235  0.00  0.00    +0.000 NA
ENDBRANCH   4   7
BRANCH   1  20
ATOM     20  O   UNL     1      -1.675  11.293  23.300  0.00  0.00    +0.000 OA
BRANCH  20  21
ATOM     21  C   UNL     1      -2.459  12.463  23.045  0.00  0.00    +0.000 C 
ATOM     22  C   UNL     1      -1.636  13.657  23.543  0.00  0.00    +0.000 C 
BRANCH  21  23
ATOM     23  C   UNL     1      -3.833  12.502  23.737  0.00  0.00    +0.000 C 
ATOM     24  O   UNL     1      -4.033  12.640  24.937  0.00  0.00    +0.000 OA
BRANCH  23  26
ATOM     25  C   UNL     1      -5.968  13.160  22.970  0.00  0.00    +0.000 C 
ATOM     26  O   UNL     1      -4.820  12.322  22.806  0.00  0.00    +0.000 OA
ENDBRANCH  23  26
ENDBRANCH  21  23
ENDBRANCH  20  21
ENDBRANCH   1  20
TORSDOF 5
ENDMDL
MODEL 5
REMARK VINA RESULT:      -7.2      1.358      2.074
REMARK  Name = 
REMARK  8 active torsions:
REMARK  status: ('A' for Active; 'I' for Inactive)
REMARK    1  A    between atoms: C_1  and  O_2
REMARK    2  A    between atoms: O_2  and  C_3
REMARK    3  A    between atoms: C_3  and  C_5
REMARK    4  A    between atoms: C_5  and  C_6
REMARK    5  A    between atoms: C_5  and  O_7
REMARK    6  A    between atoms: O_7  and  C_8
REMARK    7  A    between atoms: C_11  and  N_12
REMARK    8  A    between atoms: N_12  and  C_13
REMARK                            x       y       z     vdW  Elec       q    Type
REMARK                         _______ _______ _______ _____ _____    ______ ____
ROOT
ATOM      1  C   UNL     1       3.308   6.617  18.282  0.00  0.00    +0.000 A 
ATOM      2  C   UNL     1       2.668   6.402  19.503  0.00  0.00    +0.000 A 
ATOM      3  C   UNL     1       1.822   7.376  20.078  0.00  0.00    +0.000 A 
ATOM      4  C   UNL     1       1.600   8.621  19.476  0.00  0.00    +0.000 A 
ATOM      5  C   UNL     1       2.234   8.790  18.223  0.00  0.00    +0.000 A 
ATOM      6  C   UNL     1       3.085   7.825  17.644  0.00  0.00    +0.000 A 
ENDROOT
BRANCH   4   7
ATOM      7  N   UNL     1       0.791   9.630  20.055  0.00  0.00    +0.000 N 
ATOM      8  C   UNL     1       1.065  10.027  21.448  0.00  0.00    +0.000 C 
ATOM      9  C   UNL     1      -0.455  10.213  19.640  0.00  0.00    +0.000 A 
ATOM     10  N   UNL     1      -0.954  11.245  20.367  0.00  0.00    +0.000 NA
ATOM     11  N   UNL     1      -2.107  11.904  20.023  0.00  0.00    +0.000 NA
ATOM     12  C   UNL     1      -2.773  11.512  18.942  0.00  0.00    +0.000 A 
ATOM     13  C   UNL     1      -3.928  12.185  18.544  0.00  0.00    +0.000 A 
ATOM     14  C   UNL     1      -4.626  11.773  17.416  0.00  0.00    +0.000 A 
ATOM     15 CL   UNL     1      -6.027  12.627  16.909  0.00  0.00    +0.000 Cl
ATOM     16  C   UNL     1      -4.177  10.671  16.702  0.00  0.00    +0.000 A 
ATOM     17  C   UNL     1      -3.015  10.004  17.108  0.00  0.00    +0.000 A 
ATOM     18  C   UNL     1      -2.278  10.423  18.215  0.00  0.00    +0.000 A 
ATOM     19  N   UNL     1      -1.124   9.787  18.551  0.00  0.00    +0.000 NA
ENDBRANCH   4   7
BRANCH   1  20
ATOM     20  O   UNL     1       4.118   5.609  17.841  0.00  0.00    +0.000 OA
BRANCH  20  21
ATOM     21  C   UNL     1       5.018   5.868  16.760  0.00  0.00    +0.000 C 
ATOM     22  C   UNL     1       5.064   4.590  15.914  0.00  0.00    +0.000 C 
BRANCH  21  23
ATOM     23  C   UNL     1       6.458   6.227  17.169  0.00  0.00    +0.000 C 
ATOM     24  O   UNL     1       7.151   7.106  16.675  0.00  0.00    +0.000 OA
BRANCH  23  26
ATOM     25  C   UNL     1       7.771   5.964  19.116  0.00  0.00    +0.000 C 
ATOM     26  O   UNL     1       6.875   5.383  18.163  0.00  0.00    +0.000 OA
ENDBRANCH  23  26
ENDBRANCH  21  23
ENDBRANCH  20  21
ENDBRANCH   1  20
TORSDOF 5
ENDMDL
MODEL 6
REMARK VINA RESULT:      -7.2      3.280      4.330
REMARK  Name = 
REMARK  8 active torsions:
REMARK  status: ('A' for Active; 'I' for Inactive)
REMARK    1  A    between atoms: C_1  and  O_2
REMARK    2  A    between atoms: O_2  and  C_3
REMARK    3  A    between atoms: C_3  and  C_5
REMARK    4  A    between atoms: C_5  and  C_6
REMARK    5  A    between atoms: C_5  and  O_7
REMARK    6  A    between atoms: O_7  and  C_8
REMARK    7  A    between atoms: C_11  and  N_12
REMARK    8  A    between atoms: N_12  and  C_13
REMARK                            x       y       z     vdW  Elec       q    Type
REMARK                         _______ _______ _______ _____ _____    ______ ____
ROOT
ATOM      1  C   UNL     1       4.304   5.124  16.685  0.00  0.00    +0.000 A 
ATOM      2  C   UNL     1       3.602   4.288  17.555  0.00  0.00    +0.000 A 
ATOM      3  C   UNL     1       2.853   4.805  18.635  0.00  0.00    +0.000 A 
ATOM      4  C   UNL     1       2.797   6.176  18.916  0.00  0.00    +0.000 A 
ATOM      5  C   UNL     1       3.488   6.995  17.993  0.00  0.00    +0.000 A 
ATOM      6  C   UNL     1       4.243   6.487  16.914  0.00  0.00    +0.000 A 
ENDROOT
BRANCH   4   7
ATOM      7  N   UNL     1       2.089   6.714  20.020  0.00  0.00    +0.000 N 
ATOM      8  C   UNL     1       1.590   5.781  21.047  0.00  0.00    +0.000 C 
ATOM      9  C   UNL     1       1.514   8.011  20.248  0.00  0.00    +0.000 A 
ATOM     10  N   UNL     1       0.966   8.264  21.464  0.00  0.00    +0.000 NA
ATOM     11  N   UNL     1       0.441   9.487  21.799  0.00  0.00    +0.000 NA
ATOM     12  C   UNL     1       0.456  10.463  20.896  0.00  0.00    +0.000 A 
ATOM     13  C   UNL     1      -0.034  11.727  21.218  0.00  0.00    +0.000 A 
ATOM     14  C   UNL     1      -0.022  12.745  20.274  0.00  0.00    +0.000 A 
ATOM     15 CL   UNL     1      -0.594  14.311  20.686  0.00  0.00    +0.000 Cl
ATOM     16  C   UNL     1       0.463  12.487  19.000  0.00  0.00    +0.000 A 
ATOM     17  C   UNL     1       0.956  11.215  18.687  0.00  0.00    +0.000 A 
ATOM     18  C   UNL     1       0.988  10.188  19.631  0.00  0.00    +0.000 A 
ATOM     19  N   UNL     1       1.523   8.980  19.312  0.00  0.00    +0.000 NA
ENDBRANCH   4   7
BRANCH   1  20
ATOM     20  O   UNL     1       5.008   4.503  15.692  0.00  0.00    +0.000 OA
BRANCH  20  21
ATOM     21  C   UNL     1       6.181   5.139  15.175  0.00  0.00    +0.000 C 
ATOM     22  C   UNL     1       6.649   4.290  13.987  0.00  0.00    +0.000 C 
BRANCH  21  23
ATOM     23  C   UNL     1       7.352   5.270  16.165  0.00  0.00    +0.000 C 
ATOM     24  O   UNL     1       7.912   4.351  16.746  0.00  0.00    +0.000 OA
BRANCH  23  26
ATOM     25  C   UNL     1       7.613   7.061  17.684  0.00  0.00    +0.000 C 
ATOM     26  O   UNL     1       7.663   6.593  16.333  0.00  0.00    +0.000 OA
ENDBRANCH  23  26
ENDBRANCH  21  23
ENDBRANCH  20  21
ENDBRANCH   1  20
TORSDOF 5
ENDMDL
MODEL 7
REMARK VINA RESULT:      -7.1      1.752      2.531
REMARK  Name = 
REMARK  8 active torsions:
REMARK  status: ('A' for Active; 'I' for Inactive)
REMARK    1  A    between atoms: C_1  and  O_2
REMARK    2  A    between atoms: O_2  and  C_3
REMARK    3  A    between atoms: C_3  and  C_5
REMARK    4  A    between atoms: C_5  and  C_6
REMARK    5  A    between atoms: C_5  and  O_7
REMARK    6  A    between atoms: O_7  and  C_8
REMARK    7  A    between atoms: C_11  and  N_12
REMARK    8  A    between atoms: N_12  and  C_13
REMARK                            x       y       z     vdW  Elec       q    Type
REMARK                         _______ _______ _______ _____ _____    ______ ____
ROOT
ATOM      1  C   UNL     1       3.751   6.151  17.664  0.00  0.00    +0.000 A 
ATOM      2  C   UNL     1       3.596   7.456  17.196  0.00  0.00    +0.000 A 
ATOM      3  C   UNL     1       2.811   8.404  17.890  0.00  0.00    +0.000 A 
ATOM      4  C   UNL     1       2.119   8.082  19.065  0.00  0.00    +0.000 A 
ATOM      5  C   UNL     1       2.329   6.763  19.529  0.00  0.00    +0.000 A 
ATOM      6  C   UNL     1       3.107   5.809  18.840  0.00  0.00    +0.000 A 
ENDROOT
BRANCH   4   7
ATOM      7  N   UNL     1       1.290   9.003  19.754  0.00  0.00    +0.000 N 
ATOM      8  C   UNL     1       1.513   9.192  21.199  0.00  0.00    +0.000 C 
ATOM      9  C   UNL     1       0.062   9.649  19.382  0.00  0.00    +0.000 A 
ATOM     10  N   UNL     1      -0.462  10.568  20.232  0.00  0.00    +0.000 NA
ATOM     11  N   UNL     1      -1.600  11.279  19.945  0.00  0.00    +0.000 NA
ATOM     12  C   UNL     1      -2.226  11.052  18.794  0.00  0.00    +0.000 A 
ATOM     13  C   UNL     1      -3.364  11.784  18.456  0.00  0.00    +0.000 A 
ATOM     14  C   UNL     1      -4.019  11.544  17.256  0.00  0.00    +0.000 A 
ATOM     15 CL   UNL     1      -5.399  12.473  16.826  0.00  0.00    +0.000 Cl
ATOM     16  C   UNL     1      -3.546  10.555  16.406  0.00  0.00    +0.000 A 
ATOM     17  C   UNL     1      -2.402   9.827  16.754  0.00  0.00    +0.000 A 
ATOM     18  C   UNL     1      -1.706  10.077  17.936  0.00  0.00    +0.000 A 
ATOM     19  N   UNL     1      -0.567   9.390  18.219  0.00  0.00    +0.000 NA
ENDBRANCH   4   7
BRANCH   1  20
ATOM     20  O   UNL     1       4.516   5.323  16.893  0.00  0.00    +0.000 OA
BRANCH  20  21
ATOM     21  C   UNL     1       5.479   5.898  16.004  0.00  0.00    +0.000 C 
ATOM     22  C   UNL     1       5.627   4.922  14.830  0.00  0.00    +0.000 C 
BRANCH  21  23
ATOM     23  C   UNL     1       6.874   6.141  16.607  0.00  0.00    +0.000 C 
ATOM     24  O   UNL     1       7.386   7.231  16.824  0.00  0.00    +0.000 OA
BRANCH  23  26
ATOM     25  C   UNL     1       7.838   4.693  18.206  0.00  0.00    +0.000 C 
ATOM     26  O   UNL     1       7.488   4.940  16.841  0.00  0.00    +0.000 OA
ENDBRANCH  23  26
ENDBRANCH  21  23
ENDBRANCH  20  21
ENDBRANCH   1  20
TORSDOF 5
ENDMDL
MODEL 8
REMARK VINA RESULT:      -7.1      1.061      1.488
REMARK  Name = 
REMARK  8 active torsions:
REMARK  status: ('A' for Active; 'I' for Inactive)
REMARK    1  A    between atoms: C_1  and  O_2
REMARK    2  A    between atoms: O_2  and  C_3
REMARK    3  A    between atoms: C_3  and  C_5
REMARK    4  A    between atoms: C_5  and  C_6
REMARK    5  A    between atoms: C_5  and  O_7
REMARK    6  A    between atoms: O_7  and  C_8
REMARK    7  A    between atoms: C_11  and  N_12
REMARK    8  A    between atoms: N_12  and  C_13
REMARK                            x       y       z     vdW  Elec       q    Type
REMARK                         _______ _______ _______ _____ _____    ______ ____
ROOT
ATOM      1  C   UNL     1       3.000   7.133  18.203  0.00  0.00    +0.000 A 
ATOM      2  C   UNL     1       2.639   8.306  17.540  0.00  0.00    +0.000 A 
ATOM      3  C   UNL     1       1.808   9.274  18.147  0.00  0.00    +0.000 A 
ATOM      4  C   UNL     1       1.274   9.100  19.430  0.00  0.00    +0.000 A 
ATOM      5  C   UNL     1       1.691   7.918  20.086  0.00  0.00    +0.000 A 
ATOM      6  C   UNL     1       2.517   6.944  19.486  0.00  0.00    +0.000 A 
ENDROOT
BRANCH   4   7
ATOM      7  N   UNL     1       0.402  10.036  20.041  0.00  0.00    +0.000 N 
ATOM      8  C   UNL     1       0.633  10.379  21.456  0.00  0.00    +0.000 C 
ATOM      9  C   UNL     1      -0.866  10.572  19.632  0.00  0.00    +0.000 A 
ATOM     10  N   UNL     1      -1.431  11.539  20.398  0.00  0.00    +0.000 NA
ATOM     11  N   UNL     1      -2.613  12.152  20.064  0.00  0.00    +0.000 NA
ATOM     12  C   UNL     1      -3.240  11.777  18.954  0.00  0.00    +0.000 A 
ATOM     13  C   UNL     1      -4.423  12.407  18.567  0.00  0.00    +0.000 A 
ATOM     14  C   UNL     1      -5.080  12.013  17.409  0.00  0.00    +0.000 A 
ATOM     15 CL   UNL     1      -6.517  12.815  16.918  0.00  0.00    +0.000 Cl
ATOM     16  C   UNL     1      -4.562  10.973  16.652  0.00  0.00    +0.000 A 
ATOM     17  C   UNL     1      -3.372  10.349  17.047  0.00  0.00    +0.000 A 
ATOM     18  C   UNL     1      -2.676  10.753  18.186  0.00  0.00    +0.000 A 
ATOM     19  N   UNL     1      -1.495  10.163  18.512  0.00  0.00    +0.000 NA
ENDBRANCH   4   7
BRANCH   1  20
ATOM     20  O   UNL     1       3.790   6.265  17.503  0.00  0.00    +0.000 OA
BRANCH  20  21
ATOM     21  C   UNL     1       5.151   6.087  17.909  0.00  0.00    +0.000 C 
ATOM     22  C   UNL     1       5.997   6.999  17.013  0.00  0.00    +0.000 C 
BRANCH  21  23
ATOM     23  C   UNL     1       5.694   4.652  17.786  0.00  0.00    +0.000 C 
ATOM     24  O   UNL     1       6.553   4.142  18.493  0.00  0.00    +0.000 OA
BRANCH  23  26
ATOM     25  C   UNL     1       5.947   3.766  15.610  0.00  0.00    +0.000 C 
ATOM     26  O   UNL     1       5.092   4.023  16.728  0.00  0.00    +0.000 OA
ENDBRANCH  23  26
ENDBRANCH  21  23
ENDBRANCH  20  21
ENDBRANCH   1  20
TORSDOF 5
ENDMDL
MODEL 9
REMARK VINA RESULT:      -7.0      1.058      1.646
REMARK  Name = 
REMARK  8 active torsions:
REMARK  status: ('A' for Active; 'I' for Inactive)
REMARK    1  A    between atoms: C_1  and  O_2
REMARK    2  A    between atoms: O_2  and  C_3
REMARK    3  A    between atoms: C_3  and  C_5
REMARK    4  A    between atoms: C_5  and  C_6
REMARK    5  A    between atoms: C_5  and  O_7
REMARK    6  A    between atoms: O_7  and  C_8
REMARK    7  A    between atoms: C_11  and  N_12
REMARK    8  A    between atoms: N_12  and  C_13
REMARK                            x       y       z     vdW  Elec       q    Type
REMARK                         _______ _______ _______ _____ _____    ______ ____
ROOT
ATOM      1  C   UNL     1       2.726   6.982  18.597  0.00  0.00    +0.000 A 
ATOM      2  C   UNL     1       2.400   8.069  17.786  0.00  0.00    +0.000 A 
ATOM      3  C   UNL     1       1.653   9.163  18.279  0.00  0.00    +0.000 A 
ATOM      4  C   UNL     1       1.172   9.206  19.593  0.00  0.00    +0.000 A 
ATOM      5  C   UNL     1       1.554   8.106  20.396  0.00  0.00    +0.000 A 
ATOM      6  C   UNL     1       2.295   7.007  19.912  0.00  0.00    +0.000 A 
ENDROOT
BRANCH   4   7
ATOM      7  N   UNL     1       0.384  10.271  20.097  0.00  0.00    +0.000 N 
ATOM      8  C   UNL     1       0.751  10.851  21.402  0.00  0.00    +0.000 C 
ATOM      9  C   UNL     1      -0.903  10.777  19.706  0.00  0.00    +0.000 A 
ATOM     10  N   UNL     1      -1.371  11.888  20.330  0.00  0.00    +0.000 NA
ATOM     11  N   UNL     1      -2.561  12.481  19.992  0.00  0.00    +0.000 NA
ATOM     12  C   UNL     1      -3.296  11.941  19.025  0.00  0.00    +0.000 A 
ATOM     13  C   UNL     1      -4.493  12.540  18.632  0.00  0.00    +0.000 A 
ATOM     14  C   UNL     1      -5.262  11.974  17.625  0.00  0.00    +0.000 A 
ATOM     15 CL   UNL     1      -6.717  12.735  17.119  0.00  0.00    +0.000 Cl
ATOM     16  C   UNL     1      -4.842  10.795  17.027  0.00  0.00    +0.000 A 
ATOM     17  C   UNL     1      -3.638  10.203  17.426  0.00  0.00    +0.000 A 
ATOM     18  C   UNL     1      -2.830  10.774  18.410  0.00  0.00    +0.000 A 
ATOM     19  N   UNL     1      -1.641  10.203  18.736  0.00  0.00    +0.000 NA
ENDBRANCH   4   7
BRANCH   1  20
ATOM     20  O   UNL     1       3.433   5.977  17.999  0.00  0.00    +0.000 OA
BRANCH  20  21
ATOM     21  C   UNL     1       3.474   4.691  18.627  0.00  0.00    +0.000 C 
ATOM     22  C   UNL     1       4.841   4.084  18.290  0.00  0.00    +0.000 C 
BRANCH  21  23
ATOM     23  C   UNL     1       2.383   3.702  18.178  0.00  0.00    +0.000 C 
ATOM     24  O   UNL     1       1.898   3.622  17.057  0.00  0.00    +0.000 OA
BRANCH  23  26
ATOM     25  C   UNL     1       1.081   3.558  20.144  0.00  0.00    +0.000 C 
ATOM     26  O   UNL     1       1.998   2.931  19.243  0.00  0.00    +0.000 OA
ENDBRANCH  23  26
ENDBRANCH  21  23
ENDBRANCH  20  21
ENDBRANCH   1  20
TORSDOF 5
ENDMDL
