MODEL 1
REMARK VINA RESULT:      -7.1      0.000      0.000
REMARK  Name = 
REMARK  7 active torsions:
REMARK  status: ('A' for Active; 'I' for Inactive)
REMARK    1  A    between atoms: C_2  and  C_3
REMARK    2  A    between atoms: C_2  and  C_24
REMARK    3  A    between atoms: C_3  and  S_14
REMARK    4  A    between atoms: C_4  and  C_5
REMARK    5  A    between atoms: C_8  and  N_9
REMARK    6  A    between atoms: S_14  and  C_17
REMARK    7  A    between atoms: C_17  and  C_18
REMARK                            x       y       z     vdW  Elec       q    Type
REMARK                         _______ _______ _______ _____ _____    ______ ____
ROOT
ATOM      1  C   UNL     1      -0.766  12.869  21.435  0.00  0.00    +0.000 C 
ATOM      2  C   UNL     1      -1.669  13.668  22.052  0.00  0.00    +0.000 C 
ENDROOT
BRANCH   2   3
ATOM      3  C   UNL     1      -3.046  13.410  22.498  0.00  0.00    +0.000 A 
ATOM      4  C   UNL     1      -3.238  12.854  23.774  0.00  0.00    +0.000 A 
ATOM      5  C   UNL     1      -4.519  12.570  24.253  0.00  0.00    +0.000 A 
ATOM      6  C   UNL     1      -5.631  12.924  23.484  0.00  0.00    +0.000 A 
ATOM      7  C   UNL     1      -5.461  13.537  22.234  0.00  0.00    +0.000 A 
ATOM      8  C   UNL     1      -4.166  13.766  21.738  0.00  0.00    +0.000 A 
BRANCH   6   9
ATOM      9  N   UNL     1      -6.978  12.668  24.011  0.00  0.00    +0.000 N 
ATOM     10  O   UNL     1      -7.591  13.620  24.513  0.00  0.00    +0.000 OA
ATOM     11  O   UNL     1      -7.422  11.514  23.918  0.00  0.00    +0.000 OA
ENDBRANCH   6   9
ENDBRANCH   2   3
BRANCH   1  12
ATOM     12  S   UNL     1       0.800  13.644  21.056  0.00  0.00    +0.000 S 
ATOM     13  O   UNL     1       0.847  14.998  21.575  0.00  0.00    +0.000 OA
ATOM     14  O   UNL     1       1.849  12.689  21.367  0.00  0.00    +0.000 OA
BRANCH  12  15
ATOM     15  C   UNL     1       0.721  13.796  19.271  0.00  0.00    +0.000 C 
BRANCH  15  16
ATOM     16  C   UNL     1       0.649  15.259  18.870  0.00  0.00    +0.000 A 
ATOM     17  C   UNL     1       1.809  15.967  18.532  0.00  0.00    +0.000 A 
ATOM     18  C   UNL     1       1.739  17.311  18.138  0.00  0.00    +0.000 A 
ATOM     19  C   UNL     1       0.509  17.957  18.083  0.00  0.00    +0.000 A 
ATOM     20  C   UNL     1      -0.652  17.267  18.425  0.00  0.00    +0.000 A 
ATOM     21  C   UNL     1      -0.585  15.928  18.817  0.00  0.00    +0.000 A 
ENDBRANCH  15  16
ENDBRANCH  12  15
ENDBRANCH   1  12
BRANCH   1  23
ATOM     22  O   UNL     1      -0.639  10.513  21.539  0.00  0.00    +0.000 OA
ATOM     23  C   UNL     1      -0.970  11.496  20.879  0.00  0.00    +0.000 C 
BRANCH  23  24
ATOM     24  C   UNL     1      -1.510  11.228  19.519  0.00  0.00    +0.000 A 
ATOM     25  C   UNL     1      -2.653  11.842  19.006  0.00  0.00    +0.000 A 
ATOM     26  C   UNL     1      -3.062  11.597  17.688  0.00  0.00    +0.000 A 
ATOM     27  C   UNL     1      -2.396  10.649  16.917  0.00  0.00    +0.000 A 
ATOM     28 BR   UNL     1      -2.997  10.273  15.166  0.00  0.00    +0.000 Br
ATOM     29  C   UNL     1      -1.314   9.954  17.445  0.00  0.00    +0.000 A 
ATOM     30  C   UNL     1      -0.865  10.254  18.735  0.00  0.00    +0.000 A 
ENDBRANCH  23  24
ENDBRANCH   1  23
TORSDOF 7
ENDMDL
MODEL 2
REMARK VINA RESULT:      -7.0      3.864      7.183
REMARK  Name = 
REMARK  7 active torsions:
REMARK  status: ('A' for Active; 'I' for Inactive)
REMARK    1  A    between atoms: C_2  and  C_3
REMARK    2  A    between atoms: C_2  and  C_24
REMARK    3  A    between atoms: C_3  and  S_14
REMARK    4  A    between atoms: C_4  and  C_5
REMARK    5  A    between atoms: C_8  and  N_9
REMARK    6  A    between atoms: S_14  and  C_17
REMARK    7  A    between atoms: C_17  and  C_18
REMARK                            x       y       z     vdW  Elec       q    Type
REMARK                         _______ _______ _______ _____ _____    ______ ____
ROOT
ATOM      1  C   UNL     1      -0.031  11.107  21.132  0.00  0.00    +0.000 C 
ATOM      2  C   UNL     1       1.197  11.623  20.889  0.00  0.00    +0.000 C 
ENDROOT
BRANCH   2   3
ATOM      3  C   UNL     1       1.613  12.836  20.170  0.00  0.00    +0.000 A 
ATOM      4  C   UNL     1       2.062  12.704  18.846  0.00  0.00    +0.000 A 
ATOM      5  C   UNL     1       2.485  13.814  18.112  0.00  0.00    +0.000 A 
ATOM      6  C   UNL     1       2.380  15.088  18.677  0.00  0.00    +0.000 A 
ATOM      7  C   UNL     1       1.876  15.247  19.976  0.00  0.00    +0.000 A 
ATOM      8  C   UNL     1       1.506  14.117  20.725  0.00  0.00    +0.000 A 
BRANCH   6   9
ATOM      9  N   UNL     1       2.782  16.259  17.885  0.00  0.00    +0.000 N 
ATOM     10  O   UNL     1       3.411  16.057  16.838  0.00  0.00    +0.000 OA
ATOM     11  O   UNL     1       2.463  17.379  18.312  0.00  0.00    +0.000 OA
ENDBRANCH   6   9
ENDBRANCH   2   3
BRANCH   1  12
ATOM     12  S   UNL     1      -0.041   9.567  22.042  0.00  0.00    +0.000 S 
ATOM     13  O   UNL     1      -0.245   9.804  23.459  0.00  0.00    +0.000 OA
ATOM     14  O   UNL     1      -0.880   8.632  21.313  0.00  0.00    +0.000 OA
BRANCH  12  15
ATOM     15  C   UNL     1       1.657   9.018  21.868  0.00  0.00    +0.000 C 
BRANCH  15  16
ATOM     16  C   UNL     1       1.796   8.109  20.659  0.00  0.00    +0.000 A 
ATOM     17  C   UNL     1       1.901   8.645  19.369  0.00  0.00    +0.000 A 
ATOM     18  C   UNL     1       2.053   7.806  18.255  0.00  0.00    +0.000 A 
ATOM     19  C   UNL     1       2.097   6.427  18.423  0.00  0.00    +0.000 A 
ATOM     20  C   UNL     1       1.985   5.880  19.701  0.00  0.00    +0.000 A 
ATOM     21  C   UNL     1       1.834   6.714  20.811  0.00  0.00    +0.000 A 
ENDBRANCH  15  16
ENDBRANCH  12  15
ENDBRANCH   1  12
BRANCH   1  23
ATOM     22  O   UNL     1      -2.121  12.191  21.310  0.00  0.00    +0.000 OA
ATOM     23  C   UNL     1      -1.350  11.557  20.592  0.00  0.00    +0.000 C 
BRANCH  23  24
ATOM     24  C   UNL     1      -1.835  11.236  19.222  0.00  0.00    +0.000 A 
ATOM     25  C   UNL     1      -3.029  11.723  18.690  0.00  0.00    +0.000 A 
ATOM     26  C   UNL     1      -3.386  11.439  17.366  0.00  0.00    +0.000 A 
ATOM     27  C   UNL     1      -2.608  10.570  16.606  0.00  0.00    +0.000 A 
ATOM     28 BR   UNL     1      -3.135  10.136  14.844  0.00  0.00    +0.000 Br
ATOM     29  C   UNL     1      -1.466   9.994  17.152  0.00  0.00    +0.000 A 
ATOM     30  C   UNL     1      -1.075  10.339  18.450  0.00  0.00    +0.000 A 
ENDBRANCH  23  24
ENDBRANCH   1  23
TORSDOF 7
ENDMDL
MODEL 3
REMARK VINA RESULT:      -7.0      0.777      1.356
REMARK  Name = 
REMARK  7 active torsions:
REMARK  status: ('A' for Active; 'I' for Inactive)
REMARK    1  A    between atoms: C_2  and  C_3
REMARK    2  A    between atoms: C_2  and  C_24
REMARK    3  A    between atoms: C_3  and  S_14
REMARK    4  A    between atoms: C_4  and  C_5
REMARK    5  A    between atoms: C_8  and  N_9
REMARK    6  A    between atoms: S_14  and  C_17
REMARK    7  A    between atoms: C_17  and  C_18
REMARK                            x       y       z     vdW  Elec       q    Type
REMARK                         _______ _______ _______ _____ _____    ______ ____
ROOT
ATOM      1  C   UNL     1      -0.891  12.967  21.178  0.00  0.00    +0.000 C 
ATOM      2  C   UNL     1      -1.805  13.764  21.780  0.00  0.00    +0.000 C 
ENDROOT
BRANCH   2   3
ATOM      3  C   UNL     1      -3.151  13.476  22.296  0.00  0.00    +0.000 A 
ATOM      4  C   UNL     1      -3.269  12.974  23.603  0.00  0.00    +0.000 A 
ATOM      5  C   UNL     1      -4.517  12.665  24.148  0.00  0.00    +0.000 A 
ATOM      6  C   UNL     1      -5.673  12.941  23.412  0.00  0.00    +0.000 A 
ATOM      7  C   UNL     1      -5.578  13.500  22.129  0.00  0.00    +0.000 A 
ATOM      8  C   UNL     1      -4.315  13.753  21.569  0.00  0.00    +0.000 A 
BRANCH   6   9
ATOM      9  N   UNL     1      -6.986  12.659  24.007  0.00  0.00    +0.000 N 
ATOM     10  O   UNL     1      -7.373  11.483  24.018  0.00  0.00    +0.000 OA
ATOM     11  O   UNL     1      -7.627  13.616  24.467  0.00  0.00    +0.000 OA
ENDBRANCH   6   9
ENDBRANCH   2   3
BRANCH   1  12
ATOM     12  S   UNL     1       0.624  13.783  20.690  0.00  0.00    +0.000 S 
ATOM     13  O   UNL     1       1.723  13.395  21.554  0.00  0.00    +0.000 OA
ATOM     14  O   UNL     1       0.736  13.675  19.246  0.00  0.00    +0.000 OA
BRANCH  12  15
ATOM     15  C   UNL     1       0.268  15.497  21.077  0.00  0.00    +0.000 C 
BRANCH  15  16
ATOM     16  C   UNL     1       0.317  16.343  19.817  0.00  0.00    +0.000 A 
ATOM     17  C   UNL     1       1.540  16.787  19.300  0.00  0.00    +0.000 A 
ATOM     18  C   UNL     1       1.587  17.548  18.122  0.00  0.00    +0.000 A 
ATOM     19  C   UNL     1       0.411  17.874  17.457  0.00  0.00    +0.000 A 
ATOM     20  C   UNL     1      -0.814  17.446  17.966  0.00  0.00    +0.000 A 
ATOM     21  C   UNL     1      -0.863  16.687  19.138  0.00  0.00    +0.000 A 
ENDBRANCH  15  16
ENDBRANCH  12  15
ENDBRANCH   1  12
BRANCH   1  23
ATOM     22  O   UNL     1      -0.759  10.627  21.465  0.00  0.00    +0.000 OA
ATOM     23  C   UNL     1      -1.053  11.555  20.714  0.00  0.00    +0.000 C 
BRANCH  23  24
ATOM     24  C   UNL     1      -1.507  11.181  19.348  0.00  0.00    +0.000 A 
ATOM     25  C   UNL     1      -0.821  10.292  18.520  0.00  0.00    +0.000 A 
ATOM     26  C   UNL     1      -1.347   9.930  17.274  0.00  0.00    +0.000 A 
ATOM     27  C   UNL     1      -2.502  10.544  16.800  0.00  0.00    +0.000 A 
ATOM     28 BR   UNL     1      -3.167  10.102  15.087  0.00  0.00    +0.000 Br
ATOM     29  C   UNL     1      -3.148  11.507  17.568  0.00  0.00    +0.000 A 
ATOM     30  C   UNL     1      -2.658  11.812  18.843  0.00  0.00    +0.000 A 
ENDBRANCH  23  24
ENDBRANCH   1  23
TORSDOF 7
ENDMDL
MODEL 4
REMARK VINA RESULT:      -7.0      3.976      6.873
REMARK  Name = 
REMARK  7 active torsions:
REMARK  status: ('A' for Active; 'I' for Inactive)
REMARK    1  A    between atoms: C_2  and  C_3
REMARK    2  A    between atoms: C_2  and  C_24
REMARK    3  A    between atoms: C_3  and  S_14
REMARK    4  A    between atoms: C_4  and  C_5
REMARK    5  A    between atoms: C_8  and  N_9
REMARK    6  A    between atoms: S_14  and  C_17
REMARK    7  A    between atoms: C_17  and  C_18
REMARK                            x       y       z     vdW  Elec       q    Type
REMARK                         _______ _______ _______ _____ _____    ______ ____
ROOT
ATOM      1  C   UNL     1      -0.877  11.394  19.931  0.00  0.00    +0.000 C 
ATOM      2  C   UNL     1      -2.057  11.369  19.268  0.00  0.00    +0.000 C 
ENDROOT
BRANCH   2   3
ATOM      3  C   UNL     1      -2.394  10.931  17.906  0.00  0.00    +0.000 A 
ATOM      4  C   UNL     1      -3.419  11.608  17.224  0.00  0.00    +0.000 A 
ATOM      5  C   UNL     1      -3.798  11.233  15.934  0.00  0.00    +0.000 A 
ATOM      6  C   UNL     1      -3.089  10.224  15.278  0.00  0.00    +0.000 A 
ATOM      7  C   UNL     1      -2.022   9.578  15.919  0.00  0.00    +0.000 A 
ATOM      8  C   UNL     1      -1.686   9.925  17.238  0.00  0.00    +0.000 A 
BRANCH   6   9
ATOM      9  N   UNL     1      -3.460   9.864  13.902  0.00  0.00    +0.000 N 
ATOM     10  O   UNL     1      -4.666   9.805  13.628  0.00  0.00    +0.000 OA
ATOM     11  O   UNL     1      -2.542   9.646  13.098  0.00  0.00    +0.000 OA
ENDBRANCH   6   9
ENDBRANCH   2   3
BRANCH   1  12
ATOM     12  S   UNL     1      -0.953  12.048  21.594  0.00  0.00    +0.000 S 
ATOM     13  O   UNL     1      -1.669  11.143  22.474  0.00  0.00    +0.000 OA
ATOM     14  O   UNL     1       0.373  12.530  21.938  0.00  0.00    +0.000 OA
BRANCH  12  15
ATOM     15  C   UNL     1      -2.010  13.481  21.385  0.00  0.00    +0.000 C 
BRANCH  15  16
ATOM     16  C   UNL     1      -3.292  13.310  22.181  0.00  0.00    +0.000 A 
ATOM     17  C   UNL     1      -4.488  12.953  21.546  0.00  0.00    +0.000 A 
ATOM     18  C   UNL     1      -5.666  12.771  22.285  0.00  0.00    +0.000 A 
ATOM     19  C   UNL     1      -5.658  12.952  23.663  0.00  0.00    +0.000 A 
ATOM     20  C   UNL     1      -4.476  13.316  24.307  0.00  0.00    +0.000 A 
ATOM     21  C   UNL     1      -3.302  13.496  23.573  0.00  0.00    +0.000 A 
ENDBRANCH  15  16
ENDBRANCH  12  15
ENDBRANCH   1  12
BRANCH   1  23
ATOM     22  O   UNL     1       1.138  12.019  18.868  0.00  0.00    +0.000 OA
ATOM     23  C   UNL     1       0.493  11.116  19.398  0.00  0.00    +0.000 C 
BRANCH  23  24
ATOM     24  C   UNL     1       1.128   9.771  19.416  0.00  0.00    +0.000 A 
ATOM     25  C   UNL     1       1.157   8.944  20.539  0.00  0.00    +0.000 A 
ATOM     26  C   UNL     1       1.708   7.658  20.462  0.00  0.00    +0.000 A 
ATOM     27  C   UNL     1       2.338   7.240  19.293  0.00  0.00    +0.000 A 
ATOM     28 BR   UNL     1       3.141   5.531  19.220  0.00  0.00    +0.000 Br
ATOM     29  C   UNL     1       2.407   8.088  18.194  0.00  0.00    +0.000 A 
ATOM     30  C   UNL     1       1.792   9.343  18.252  0.00  0.00    +0.000 A 
ENDBRANCH  23  24
ENDBRANCH   1  23
TORSDOF 7
ENDMDL
MODEL 5
REMARK VINA RESULT:      -6.9      0.929      1.557
REMARK  Name = 
REMARK  7 active torsions:
REMARK  status: ('A' for Active; 'I' for Inactive)
REMARK    1  A    between atoms: C_2  and  C_3
REMARK    2  A    between atoms: C_2  and  C_24
REMARK    3  A    between atoms: C_3  and  S_14
REMARK    4  A    between atoms: C_4  and  C_5
REMARK    5  A    between atoms: C_8  and  N_9
REMARK    6  A    between atoms: S_14  and  C_17
REMARK    7  A    between atoms: C_17  and  C_18
REMARK                            x       y       z     vdW  Elec       q    Type
REMARK                         _______ _______ _______ _____ _____    ______ ____
ROOT
ATOM      1  C   UNL     1      -0.745  12.660  21.513  0.00  0.00    +0.000 C 
ATOM      2  C   UNL     1      -1.577  13.471  22.208  0.00  0.00    +0.000 C 
ENDROOT
BRANCH   2   3
ATOM      3  C   UNL     1      -2.935  13.252  22.725  0.00  0.00    +0.000 A 
ATOM      4  C   UNL     1      -4.023  13.610  21.912  0.00  0.00    +0.000 A 
ATOM      5  C   UNL     1      -5.338  13.442  22.349  0.00  0.00    +0.000 A 
ATOM      6  C   UNL     1      -5.577  12.829  23.581  0.00  0.00    +0.000 A 
ATOM      7  C   UNL     1      -4.504  12.407  24.382  0.00  0.00    +0.000 A 
ATOM      8  C   UNL     1      -3.185  12.633  23.956  0.00  0.00    +0.000 A 
BRANCH   6   9
ATOM      9  N   UNL     1      -6.963  12.610  24.018  0.00  0.00    +0.000 N 
ATOM     10  O   UNL     1      -7.575  13.575  24.495  0.00  0.00    +0.000 OA
ATOM     11  O   UNL     1      -7.438  11.473  23.878  0.00  0.00    +0.000 OA
ENDBRANCH   6   9
ENDBRANCH   2   3
BRANCH   1  12
ATOM     12  S   UNL     1       0.829  13.385  21.070  0.00  0.00    +0.000 S 
ATOM     13  O   UNL     1       1.288  14.296  22.101  0.00  0.00    +0.000 OA
ATOM     14  O   UNL     1       1.684  12.316  20.584  0.00  0.00    +0.000 OA
BRANCH  12  15
ATOM     15  C   UNL     1       0.388  14.405  19.663  0.00  0.00    +0.000 C 
BRANCH  15  16
ATOM     16  C   UNL     1       1.615  15.121  19.126  0.00  0.00    +0.000 A 
ATOM     17  C   UNL     1       2.495  14.473  18.250  0.00  0.00    +0.000 A 
ATOM     18  C   UNL     1       3.615  15.143  17.734  0.00  0.00    +0.000 A 
ATOM     19  C   UNL     1       3.865  16.461  18.096  0.00  0.00    +0.000 A 
ATOM     20  C   UNL     1       3.002  17.115  18.974  0.00  0.00    +0.000 A 
ATOM     21  C   UNL     1       1.886  16.450  19.487  0.00  0.00    +0.000 A 
ENDBRANCH  15  16
ENDBRANCH  12  15
ENDBRANCH   1  12
BRANCH   1  23
ATOM     22  O   UNL     1      -0.802  10.299  21.570  0.00  0.00    +0.000 OA
ATOM     23  C   UNL     1      -1.037  11.318  20.922  0.00  0.00    +0.000 C 
BRANCH  23  24
ATOM     24  C   UNL     1      -1.559  11.118  19.543  0.00  0.00    +0.000 A 
ATOM     25  C   UNL     1      -2.688  11.766  19.042  0.00  0.00    +0.000 A 
ATOM     26  C   UNL     1      -3.079  11.586  17.709  0.00  0.00    +0.000 A 
ATOM     27  C   UNL     1      -2.409  10.669  16.904  0.00  0.00    +0.000 A 
ATOM     28 BR   UNL     1      -2.985  10.381  15.128  0.00  0.00    +0.000 Br
ATOM     29  C   UNL     1      -1.341   9.940  17.415  0.00  0.00    +0.000 A 
ATOM     30  C   UNL     1      -0.910  10.176  18.725  0.00  0.00    +0.000 A 
ENDBRANCH  23  24
ENDBRANCH   1  23
TORSDOF 7
ENDMDL
MODEL 6
REMARK VINA RESULT:      -6.9      0.287      1.649
REMARK  Name = 
REMARK  7 active torsions:
REMARK  status: ('A' for Active; 'I' for Inactive)
REMARK    1  A    between atoms: C_2  and  C_3
REMARK    2  A    between atoms: C_2  and  C_24
REMARK    3  A    between atoms: C_3  and  S_14
REMARK    4  A    between atoms: C_4  and  C_5
REMARK    5  A    between atoms: C_8  and  N_9
REMARK    6  A    between atoms: S_14  and  C_17
REMARK    7  A    between atoms: C_17  and  C_18
REMARK                            x       y       z     vdW  Elec       q    Type
REMARK                         _______ _______ _______ _____ _____    ______ ____
ROOT
ATOM      1  C   UNL     1      -0.645  12.893  21.574  0.00  0.00    +0.000 C 
ATOM      2  C   UNL     1      -1.526  13.705  22.204  0.00  0.00    +0.000 C 
ENDROOT
BRANCH   2   3
ATOM      3  C   UNL     1      -2.880  13.452  22.717  0.00  0.00    +0.000 A 
ATOM      4  C   UNL     1      -3.973  13.917  21.967  0.00  0.00    +0.000 A 
ATOM      5  C   UNL     1      -5.285  13.723  22.405  0.00  0.00    +0.000 A 
ATOM      6  C   UNL     1      -5.516  12.980  23.565  0.00  0.00    +0.000 A 
ATOM      7  C   UNL     1      -4.440  12.454  24.295  0.00  0.00    +0.000 A 
ATOM      8  C   UNL     1      -3.122  12.704  23.875  0.00  0.00    +0.000 A 
BRANCH   6   9
ATOM      9  N   UNL     1      -6.899  12.737  23.998  0.00  0.00    +0.000 N 
ATOM     10  O   UNL     1      -7.325  11.576  23.939  0.00  0.00    +0.000 OA
ATOM     11  O   UNL     1      -7.555  13.709  24.400  0.00  0.00    +0.000 OA
ENDBRANCH   6   9
ENDBRANCH   2   3
BRANCH   1  12
ATOM     12  S   UNL     1       0.899  13.666  21.105  0.00  0.00    +0.000 S 
ATOM     13  O   UNL     1       1.008  14.994  21.678  0.00  0.00    +0.000 OA
ATOM     14  O   UNL     1       1.954  12.685  21.288  0.00  0.00    +0.000 OA
BRANCH  12  15
ATOM     15  C   UNL     1       0.680  13.900  19.341  0.00  0.00    +0.000 C 
BRANCH  15  16
ATOM     16  C   UNL     1       0.458  15.369  19.028  0.00  0.00    +0.000 A 
ATOM     17  C   UNL     1      -0.817  15.939  19.130  0.00  0.00    +0.000 A 
ATOM     18  C   UNL     1      -1.017  17.302  18.865  0.00  0.00    +0.000 A 
ATOM     19  C   UNL     1       0.056  18.103  18.491  0.00  0.00    +0.000 A 
ATOM     20  C   UNL     1       1.329  17.547  18.377  0.00  0.00    +0.000 A 
ATOM     21  C   UNL     1       1.531  16.190  18.642  0.00  0.00    +0.000 A 
ENDBRANCH  15  16
ENDBRANCH  12  15
ENDBRANCH   1  12
BRANCH   1  23
ATOM     22  O   UNL     1      -0.619  10.542  21.795  0.00  0.00    +0.000 OA
ATOM     23  C   UNL     1      -0.861  11.503  21.067  0.00  0.00    +0.000 C 
BRANCH  23  24
ATOM     24  C   UNL     1      -1.312  11.189  19.685  0.00  0.00    +0.000 A 
ATOM     25  C   UNL     1      -0.640  10.313  18.832  0.00  0.00    +0.000 A 
ATOM     26  C   UNL     1      -1.163  10.007  17.569  0.00  0.00    +0.000 A 
ATOM     27  C   UNL     1      -2.299  10.667  17.107  0.00  0.00    +0.000 A 
ATOM     28 BR   UNL     1      -2.958  10.301  15.375  0.00  0.00    +0.000 Br
ATOM     29  C   UNL     1      -2.928  11.618  17.904  0.00  0.00    +0.000 A 
ATOM     30  C   UNL     1      -2.443  11.865  19.192  0.00  0.00    +0.000 A 
ENDBRANCH  23  24
ENDBRANCH   1  23
TORSDOF 7
ENDMDL
MODEL 7
REMARK VINA RESULT:      -6.8      7.964     11.121
REMARK  Name = 
REMARK  7 active torsions:
REMARK  status: ('A' for Active; 'I' for Inactive)
REMARK    1  A    between atoms: C_2  and  C_3
REMARK    2  A    between atoms: C_2  and  C_24
REMARK    3  A    between atoms: C_3  and  S_14
REMARK    4  A    between atoms: C_4  and  C_5
REMARK    5  A    between atoms: C_8  and  N_9
REMARK    6  A    between atoms: S_14  and  C_17
REMARK    7  A    between atoms: C_17  and  C_18
REMARK                            x       y       z     vdW  Elec       q    Type
REMARK                         _______ _______ _______ _____ _____    ______ ____
ROOT
ATOM      1  C   UNL     1       3.981   4.642  17.850  0.00  0.00    +0.000 C 
ATOM      2  C   UNL     1       2.772   5.240  17.974  0.00  0.00    +0.000 C 
ENDROOT
BRANCH   2   3
ATOM      3  C   UNL     1       2.353   6.430  18.728  0.00  0.00    +0.000 A 
ATOM      4  C   UNL     1       2.129   6.299  20.108  0.00  0.00    +0.000 A 
ATOM      5  C   UNL     1       1.715   7.386  20.880  0.00  0.00    +0.000 A 
ATOM      6  C   UNL     1       1.604   8.645  20.284  0.00  0.00    +0.000 A 
ATOM      7  C   UNL     1       1.884   8.810  18.920  0.00  0.00    +0.000 A 
ATOM      8  C   UNL     1       2.245   7.697  18.141  0.00  0.00    +0.000 A 
BRANCH   6   9
ATOM      9  N   UNL     1       1.214   9.797  21.109  0.00  0.00    +0.000 N 
ATOM     10  O   UNL     1       1.387   9.714  22.332  0.00  0.00    +0.000 OA
ATOM     11  O   UNL     1       0.740  10.786  20.529  0.00  0.00    +0.000 OA
ENDBRANCH   6   9
ENDBRANCH   2   3
BRANCH   1  12
ATOM     12  S   UNL     1       4.001   3.174  16.828  0.00  0.00    +0.000 S 
ATOM     13  O   UNL     1       2.785   3.072  16.044  0.00  0.00    +0.000 OA
ATOM     14  O   UNL     1       5.306   3.097  16.196  0.00  0.00    +0.000 OA
BRANCH  12  15
ATOM     15  C   UNL     1       3.917   1.866  18.052  0.00  0.00    +0.000 C 
BRANCH  15  16
ATOM     16  C   UNL     1       2.908   2.218  19.131  0.00  0.00    +0.000 A 
ATOM     17  C   UNL     1       3.321   2.446  20.450  0.00  0.00    +0.000 A 
ATOM     18  C   UNL     1       2.393   2.796  21.441  0.00  0.00    +0.000 A 
ATOM     19  C   UNL     1       1.045   2.914  21.122  0.00  0.00    +0.000 A 
ATOM     20  C   UNL     1       0.619   2.682  19.815  0.00  0.00    +0.000 A 
ATOM     21  C   UNL     1       1.543   2.334  18.826  0.00  0.00    +0.000 A 
ENDBRANCH  15  16
ENDBRANCH  12  15
ENDBRANCH   1  12
BRANCH   1  23
ATOM     22  O   UNL     1       5.603   4.216  19.513  0.00  0.00    +0.000 OA
ATOM     23  C   UNL     1       5.246   4.944  18.588  0.00  0.00    +0.000 C 
BRANCH  23  24
ATOM     24  C   UNL     1       6.101   6.129  18.311  0.00  0.00    +0.000 A 
ATOM     25  C   UNL     1       5.742   7.155  17.436  0.00  0.00    +0.000 A 
ATOM     26  C   UNL     1       6.565   8.278  17.280  0.00  0.00    +0.000 A 
ATOM     27  C   UNL     1       7.805   8.326  17.910  0.00  0.00    +0.000 A 
ATOM     28 BR   UNL     1       8.939   9.812  17.639  0.00  0.00    +0.000 Br
ATOM     29  C   UNL     1       8.224   7.268  18.709  0.00  0.00    +0.000 A 
ATOM     30  C   UNL     1       7.368   6.182  18.919  0.00  0.00    +0.000 A 
ENDBRANCH  23  24
ENDBRANCH   1  23
TORSDOF 7
ENDMDL
MODEL 8
REMARK VINA RESULT:      -6.8      3.942      6.390
REMARK  Name = 
REMARK  7 active torsions:
REMARK  status: ('A' for Active; 'I' for Inactive)
REMARK    1  A    between atoms: C_2  and  C_3
REMARK    2  A    between atoms: C_2  and  C_24
REMARK    3  A    between atoms: C_3  and  S_14
REMARK    4  A    between atoms: C_4  and  C_5
REMARK    5  A    between atoms: C_8  and  N_9
REMARK    6  A    between atoms: S_14  and  C_17
REMARK    7  A    between atoms: C_17  and  C_18
REMARK                            x       y       z     vdW  Elec       q    Type
REMARK                         _______ _______ _______ _____ _____    ______ ____
ROOT
ATOM      1  C   UNL     1      -1.124  11.577  20.193  0.00  0.00    +0.000 C 
ATOM      2  C   UNL     1      -2.303  11.511  19.529  0.00  0.00    +0.000 C 
ENDROOT
BRANCH   2   3
ATOM      3  C   UNL     1      -2.611  11.154  18.137  0.00  0.00    +0.000 A 
ATOM      4  C   UNL     1      -1.875  10.121  17.536  0.00  0.00    +0.000 A 
ATOM      5  C   UNL     1      -2.108   9.743  16.212  0.00  0.00    +0.000 A 
ATOM      6  C   UNL     1      -3.149  10.346  15.501  0.00  0.00    +0.000 A 
ATOM      7  C   UNL     1      -3.937  11.337  16.105  0.00  0.00    +0.000 A 
ATOM      8  C   UNL     1      -3.656  11.749  17.419  0.00  0.00    +0.000 A 
BRANCH   6   9
ATOM      9  N   UNL     1      -3.422   9.913  14.124  0.00  0.00    +0.000 N 
ATOM     10  O   UNL     1      -2.456   9.767  13.364  0.00  0.00    +0.000 OA
ATOM     11  O   UNL     1      -4.605   9.716  13.807  0.00  0.00    +0.000 OA
ENDBRANCH   6   9
ENDBRANCH   2   3
BRANCH   1  12
ATOM     12  S   UNL     1      -1.243  12.093  21.902  0.00  0.00    +0.000 S 
ATOM     13  O   UNL     1      -2.565  11.823  22.434  0.00  0.00    +0.000 OA
ATOM     14  O   UNL     1      -0.052  11.622  22.586  0.00  0.00    +0.000 OA
BRANCH  12  15
ATOM     15  C   UNL     1      -1.115  13.876  21.763  0.00  0.00    +0.000 C 
BRANCH  15  16
ATOM     16  C   UNL     1      -1.874  14.548  22.894  0.00  0.00    +0.000 A 
ATOM     17  C   UNL     1      -1.344  14.586  24.189  0.00  0.00    +0.000 A 
ATOM     18  C   UNL     1      -2.034  15.229  25.228  0.00  0.00    +0.000 A 
ATOM     19  C   UNL     1      -3.261  15.832  24.979  0.00  0.00    +0.000 A 
ATOM     20  C   UNL     1      -3.805  15.794  23.696  0.00  0.00    +0.000 A 
ATOM     21  C   UNL     1      -3.119  15.155  22.660  0.00  0.00    +0.000 A 
ENDBRANCH  15  16
ENDBRANCH  12  15
ENDBRANCH   1  12
BRANCH   1  23
ATOM     22  O   UNL     1       0.868  12.452  19.275  0.00  0.00    +0.000 OA
ATOM     23  C   UNL     1       0.260  11.448  19.642  0.00  0.00    +0.000 C 
BRANCH  23  24
ATOM     24  C   UNL     1       0.954  10.146  19.450  0.00  0.00    +0.000 A 
ATOM     25  C   UNL     1       1.077   9.180  20.448  0.00  0.00    +0.000 A 
ATOM     26  C   UNL     1       1.680   7.946  20.174  0.00  0.00    +0.000 A 
ATOM     27  C   UNL     1       2.267   7.718  18.933  0.00  0.00    +0.000 A 
ATOM     28 BR   UNL     1       3.139   6.077  18.594  0.00  0.00    +0.000 Br
ATOM     29  C   UNL     1       2.241   8.707  17.955  0.00  0.00    +0.000 A 
ATOM     30  C   UNL     1       1.575   9.910  18.210  0.00  0.00    +0.000 A 
ENDBRANCH  23  24
ENDBRANCH   1  23
TORSDOF 7
ENDMDL
MODEL 9
REMARK VINA RESULT:      -6.7      3.036      3.955
REMARK  Name = 
REMARK  7 active torsions:
REMARK  status: ('A' for Active; 'I' for Inactive)
REMARK    1  A    between atoms: C_2  and  C_3
REMARK    2  A    between atoms: C_2  and  C_24
REMARK    3  A    between atoms: C_3  and  S_14
REMARK    4  A    between atoms: C_4  and  C_5
REMARK    5  A    between atoms: C_8  and  N_9
REMARK    6  A    between atoms: S_14  and  C_17
REMARK    7  A    between atoms: C_17  and  C_18
REMARK                            x       y       z     vdW  Elec       q    Type
REMARK                         _______ _______ _______ _____ _____    ______ ____
ROOT
ATOM      1  C   UNL     1      -0.209  12.213  20.022  0.00  0.00    +0.000 C 
ATOM      2  C   UNL     1      -1.269  12.775  19.393  0.00  0.00    +0.000 C 
ENDROOT
BRANCH   2   3
ATOM      3  C   UNL     1      -2.630  12.274  19.153  0.00  0.00    +0.000 A 
ATOM      4  C   UNL     1      -3.662  12.720  19.995  0.00  0.00    +0.000 A 
ATOM      5  C   UNL     1      -4.973  12.271  19.830  0.00  0.00    +0.000 A 
ATOM      6  C   UNL     1      -5.280  11.431  18.757  0.00  0.00    +0.000 A 
ATOM      7  C   UNL     1      -4.274  11.023  17.868  0.00  0.00    +0.000 A 
ATOM      8  C   UNL     1      -2.948  11.436  18.077  0.00  0.00    +0.000 A 
BRANCH   6   9
ATOM      9  N   UNL     1      -6.670  10.998  18.558  0.00  0.00    +0.000 N 
ATOM     10  O   UNL     1      -7.456  11.806  18.046  0.00  0.00    +0.000 OA
ATOM     11  O   UNL     1      -6.971   9.849  18.912  0.00  0.00    +0.000 OA
ENDBRANCH   6   9
ENDBRANCH   2   3
BRANCH   1  12
ATOM     12  S   UNL     1       1.277  13.209  20.044  0.00  0.00    +0.000 S 
ATOM     13  O   UNL     1       2.202  12.736  21.056  0.00  0.00    +0.000 OA
ATOM     14  O   UNL     1       1.704  13.390  18.668  0.00  0.00    +0.000 OA
BRANCH  12  15
ATOM     15  C   UNL     1       0.661  14.787  20.630  0.00  0.00    +0.000 C 
BRANCH  15  16
ATOM     16  C   UNL     1       0.726  15.823  19.521  0.00  0.00    +0.000 A 
ATOM     17  C   UNL     1      -0.441  16.271  18.890  0.00  0.00    +0.000 A 
ATOM     18  C   UNL     1      -0.382  17.245  17.883  0.00  0.00    +0.000 A 
ATOM     19  C   UNL     1       0.844  17.775  17.497  0.00  0.00    +0.000 A 
ATOM     20  C   UNL     1       2.014  17.332  18.111  0.00  0.00    +0.000 A 
ATOM     21  C   UNL     1       1.957  16.362  19.115  0.00  0.00    +0.000 A 
ENDBRANCH  15  16
ENDBRANCH  12  15
ENDBRANCH   1  12
BRANCH   1  23
ATOM     22  O   UNL     1      -0.602  10.498  21.597  0.00  0.00    +0.000 OA
ATOM     23  C   UNL     1      -0.069  10.816  20.536  0.00  0.00    +0.000 C 
BRANCH  23  24
ATOM     24  C   UNL     1       0.740   9.765  19.861  0.00  0.00    +0.000 A 
ATOM     25  C   UNL     1       1.005   9.753  18.492  0.00  0.00    +0.000 A 
ATOM     26  C   UNL     1       1.837   8.772  17.937  0.00  0.00    +0.000 A 
ATOM     27  C   UNL     1       2.312   7.731  18.729  0.00  0.00    +0.000 A 
ATOM     28 BR   UNL     1       3.375   6.374  17.958  0.00  0.00    +0.000 Br
ATOM     29  C   UNL     1       1.976   7.671  20.078  0.00  0.00    +0.000 A 
ATOM     30  C   UNL     1       1.206   8.692  20.642  0.00  0.00    +0.000 A 
ENDBRANCH  23  24
ENDBRANCH   1  23
TORSDOF 7
ENDMDL
