MODEL 1
REMARK VINA RESULT:      -9.1      0.000      0.000
REMARK  Name = 
REMARK  11 active torsions:
REMARK  status: ('A' for Active; 'I' for Inactive)
REMARK    1  A    between atoms: C_1  and  C_2
REMARK    2  A    between atoms: C_2  and  C_3
REMARK    3  A    between atoms: C_2  and  C_4
REMARK    4  A    between atoms: C_2  and  C_34
REMARK    5  A    between atoms: C_4  and  C_5
REMARK    6  A    between atoms: C_9  and  O_10
REMARK    7  A    between atoms: O_10  and  C_11
REMARK    8  A    between atoms: C_11  and  C_12
REMARK    9  A    between atoms: N_25  and  C_26
REMARK   10  A    between atoms: C_26  and  C_27
REMARK   11  A    between atoms: C_34  and  O_36
REMARK                            x       y       z     vdW  Elec       q    Type
REMARK                         _______ _______ _______ _____ _____    ______ ____
ROOT
ATOM      1  C   UNL     1       2.646   5.728  20.003  0.00  0.00    +0.000 A 
ATOM      2  N   UNL     1       1.966   6.621  20.707  0.00  0.00    +0.000 NA
ATOM      3  C   UNL     1       1.781   7.730  19.896  0.00  0.00    +0.000 A 
ATOM      4  C   UNL     1       1.145   8.981  20.124  0.00  0.00    +0.000 A 
ATOM      5  C   UNL     1       1.181  10.002  19.133  0.00  0.00    +0.000 A 
ATOM      6  C   UNL     1       1.781   9.725  17.911  0.00  0.00    +0.000 A 
ATOM      7  C   UNL     1       2.374   8.472  17.648  0.00  0.00    +0.000 A 
ATOM      8  C   UNL     1       2.381   7.512  18.658  0.00  0.00    +0.000 A 
ATOM      9  N   UNL     1       2.901   6.218  18.736  0.00  0.00    +0.000 N 
ENDROOT
BRANCH   1  10
ATOM     10  C   UNL     1       3.068   4.351  20.503  0.00  0.00    +0.000 C 
BRANCH  10  12
ATOM     11  C   UNL     1       1.660   2.515  21.603  0.00  0.00    +0.000 C 
ATOM     12  C   UNL     1       2.040   3.205  20.283  0.00  0.00    +0.000 C 
ATOM     13  C   UNL     1       0.728   3.804  19.704  0.00  0.00    +0.000 C 
BRANCH  12  14
ATOM     14  C   UNL     1       2.571   2.230  19.230  0.00  0.00    +0.000 C 
ATOM     15  O   UNL     1       3.748   1.911  19.127  0.00  0.00    +0.000 OA
BRANCH  14  16
ATOM     16  O   UNL     1       1.636   1.620  18.471  0.00  0.00    +0.000 OA
ATOM     17  H   UNL     1       1.764   1.686  17.505  0.00  0.00    +0.000 HD
ENDBRANCH  14  16
ENDBRANCH  12  14
ENDBRANCH  10  12
ENDBRANCH   1  10
BRANCH   5  18
ATOM     18  O   UNL     1       0.589  11.224  19.429  0.00  0.00    +0.000 OA
BRANCH  18  19
ATOM     19  C   UNL     1       0.462  11.710  20.838  0.00  0.00    +0.000 C 
BRANCH  19  20
ATOM     20  C   UNL     1      -1.002  11.917  21.280  0.00  0.00    +0.000 A 
ATOM     21  C   UNL     1      -1.713  12.674  20.376  0.00  0.00    +0.000 A 
ATOM     22  C   UNL     1      -3.047  12.584  20.518  0.00  0.00    +0.000 A 
ATOM     23  C   UNL     1      -3.337  13.033  21.770  0.00  0.00    +0.000 A 
ATOM     24  C   UNL     1      -3.992  14.254  21.896  0.00  0.00    +0.000 A 
ATOM     25  C   UNL     1      -4.545  14.578  23.107  0.00  0.00    +0.000 A 
ATOM     26  C   UNL     1      -4.505  13.613  24.106  0.00  0.00    +0.000 A 
ATOM     27  C   UNL     1      -3.635  12.488  23.979  0.00  0.00    +0.000 A 
ATOM     28  C   UNL     1      -2.824  12.299  22.804  0.00  0.00    +0.000 A 
ATOM     29  N   UNL     1      -1.612  11.596  22.500  0.00  0.00    +0.000 NA
ENDBRANCH  19  20
ENDBRANCH  18  19
ENDBRANCH   5  18
BRANCH   9  30
ATOM     30  C   UNL     1       3.765   5.607  17.732  0.00  0.00    +0.000 C 
BRANCH  30  31
ATOM     31  C   UNL     1       5.248   5.848  17.870  0.00  0.00    +0.000 A 
ATOM     32  C   UNL     1       6.007   4.885  18.566  0.00  0.00    +0.000 A 
ATOM     33  C   UNL     1       7.336   5.128  18.916  0.00  0.00    +0.000 A 
ATOM     34  C   UNL     1       7.927   6.342  18.580  0.00  0.00    +0.000 A 
ATOM     35  C   UNL     1       7.200   7.286  17.859  0.00  0.00    +0.000 A 
ATOM     36 CL   UNL     1       7.921   8.801  17.472  0.00  0.00    +0.000 Cl
ATOM     37  C   UNL     1       5.875   7.041  17.489  0.00  0.00    +0.000 A 
ENDBRANCH  30  31
ENDBRANCH   9  30
TORSDOF 9
ENDMDL
MODEL 2
REMARK VINA RESULT:      -9.1      2.792      3.925
REMARK  Name = 
REMARK  11 active torsions:
REMARK  status: ('A' for Active; 'I' for Inactive)
REMARK    1  A    between atoms: C_1  and  C_2
REMARK    2  A    between atoms: C_2  and  C_3
REMARK    3  A    between atoms: C_2  and  C_4
REMARK    4  A    between atoms: C_2  and  C_34
REMARK    5  A    between atoms: C_4  and  C_5
REMARK    6  A    between atoms: C_9  and  O_10
REMARK    7  A    between atoms: O_10  and  C_11
REMARK    8  A    between atoms: C_11  and  C_12
REMARK    9  A    between atoms: N_25  and  C_26
REMARK   10  A    between atoms: C_26  and  C_27
REMARK   11  A    between atoms: C_34  and  O_36
REMARK                            x       y       z     vdW  Elec       q    Type
REMARK                         _______ _______ _______ _____ _____    ______ ____
ROOT
ATOM      1  C   UNL     1       3.007   5.470  19.385  0.00  0.00    +0.000 A 
ATOM      2  N   UNL     1       2.211   6.113  20.227  0.00  0.00    +0.000 NA
ATOM      3  C   UNL     1       1.931   7.348  19.664  0.00  0.00    +0.000 A 
ATOM      4  C   UNL     1       1.154   8.448  20.120  0.00  0.00    +0.000 A 
ATOM      5  C   UNL     1       1.108   9.660  19.375  0.00  0.00    +0.000 A 
ATOM      6  C   UNL     1       1.773   9.720  18.156  0.00  0.00    +0.000 A 
ATOM      7  C   UNL     1       2.508   8.620  17.663  0.00  0.00    +0.000 A 
ATOM      8  C   UNL     1       2.590   7.468  18.442  0.00  0.00    +0.000 A 
ATOM      9  N   UNL     1       3.246   6.248  18.269  0.00  0.00    +0.000 N 
ENDROOT
BRANCH   1  10
ATOM     10  C   UNL     1       3.563   4.066  19.601  0.00  0.00    +0.000 C 
BRANCH  10  12
ATOM     11  C   UNL     1       1.377   3.189  18.593  0.00  0.00    +0.000 C 
ATOM     12  C   UNL     1       2.519   2.914  19.584  0.00  0.00    +0.000 C 
ATOM     13  C   UNL     1       3.212   1.606  19.109  0.00  0.00    +0.000 C 
BRANCH  12  14
ATOM     14  C   UNL     1       2.022   2.646  21.007  0.00  0.00    +0.000 C 
ATOM     15  O   UNL     1       2.761   2.429  21.958  0.00  0.00    +0.000 OA
BRANCH  14  16
ATOM     16  O   UNL     1       0.693   2.785  21.200  0.00  0.00    +0.000 OA
ATOM     17  H   UNL     1       0.148   2.824  20.391  0.00  0.00    +0.000 HD
ENDBRANCH  14  16
ENDBRANCH  12  14
ENDBRANCH  10  12
ENDBRANCH   1  10
BRANCH   5  18
ATOM     18  O   UNL     1       0.377  10.722  19.894  0.00  0.00    +0.000 OA
BRANCH  18  19
ATOM     19  C   UNL     1      -0.142  11.816  19.016  0.00  0.00    +0.000 C 
BRANCH  19  20
ATOM     20  C   UNL     1       0.710  13.101  19.077  0.00  0.00    +0.000 A 
ATOM     21  C   UNL     1       0.012  14.158  19.617  0.00  0.00    +0.000 A 
ATOM     22  C   UNL     1       0.792  15.177  20.022  0.00  0.00    +0.000 A 
ATOM     23  C   UNL     1       1.454  15.623  18.920  0.00  0.00    +0.000 A 
ATOM     24  C   UNL     1       1.104  16.865  18.400  0.00  0.00    +0.000 A 
ATOM     25  C   UNL     1       1.941  17.451  17.487  0.00  0.00    +0.000 A 
ATOM     26  C   UNL     1       3.144  16.809  17.220  0.00  0.00    +0.000 A 
ATOM     27  C   UNL     1       3.334  15.450  17.614  0.00  0.00    +0.000 A 
ATOM     28  C   UNL     1       2.314  14.733  18.336  0.00  0.00    +0.000 A 
ATOM     29  N   UNL     1       1.971  13.353  18.522  0.00  0.00    +0.000 NA
ENDBRANCH  19  20
ENDBRANCH  18  19
ENDBRANCH   5  18
BRANCH   9  30
ATOM     30  C   UNL     1       4.203   5.962  17.206  0.00  0.00    +0.000 C 
BRANCH  30  31
ATOM     31  C   UNL     1       5.657   6.231  17.506  0.00  0.00    +0.000 A 
ATOM     32  C   UNL     1       6.392   5.215  18.151  0.00  0.00    +0.000 A 
ATOM     33  C   UNL     1       7.675   5.455  18.646  0.00  0.00    +0.000 A 
ATOM     34  C   UNL     1       8.241   6.718  18.511  0.00  0.00    +0.000 A 
ATOM     35  C   UNL     1       7.541   7.720  17.842  0.00  0.00    +0.000 A 
ATOM     36 CL   UNL     1       8.229   9.292  17.704  0.00  0.00    +0.000 Cl
ATOM     37  C   UNL     1       6.264   7.480  17.327  0.00  0.00    +0.000 A 
ENDBRANCH  30  31
ENDBRANCH   9  30
TORSDOF 9
ENDMDL
MODEL 3
REMARK VINA RESULT:      -8.9      2.712      3.541
REMARK  Name = 
REMARK  11 active torsions:
REMARK  status: ('A' for Active; 'I' for Inactive)
REMARK    1  A    between atoms: C_1  and  C_2
REMARK    2  A    between atoms: C_2  and  C_3
REMARK    3  A    between atoms: C_2  and  C_4
REMARK    4  A    between atoms: C_2  and  C_34
REMARK    5  A    between atoms: C_4  and  C_5
REMARK    6  A    between atoms: C_9  and  O_10
REMARK    7  A    between atoms: O_10  and  C_11
REMARK    8  A    between atoms: C_11  and  C_12
REMARK    9  A    between atoms: N_25  and  C_26
REMARK   10  A    between atoms: C_26  and  C_27
REMARK   11  A    between atoms: C_34  and  O_36
REMARK                            x       y       z     vdW  Elec       q    Type
REMARK                         _______ _______ _______ _____ _____    ______ ____
ROOT
ATOM      1  C   UNL     1       3.055   5.432  19.377  0.00  0.00    +0.000 A 
ATOM      2  N   UNL     1       2.253   6.023  20.251  0.00  0.00    +0.000 NA
ATOM      3  C   UNL     1       1.935   7.271  19.738  0.00  0.00    +0.000 A 
ATOM      4  C   UNL     1       1.136   8.333  20.243  0.00  0.00    +0.000 A 
ATOM      5  C   UNL     1       1.052   9.570  19.545  0.00  0.00    +0.000 A 
ATOM      6  C   UNL     1       1.701   9.693  18.323  0.00  0.00    +0.000 A 
ATOM      7  C   UNL     1       2.458   8.632  17.781  0.00  0.00    +0.000 A 
ATOM      8  C   UNL     1       2.577   7.454  18.515  0.00  0.00    +0.000 A 
ATOM      9  N   UNL     1       3.262   6.258  18.289  0.00  0.00    +0.000 N 
ENDROOT
BRANCH   1  10
ATOM     10  C   UNL     1       3.648   4.036  19.534  0.00  0.00    +0.000 C 
BRANCH  10  12
ATOM     11  C   UNL     1       1.526   3.047  18.492  0.00  0.00    +0.000 C 
ATOM     12  C   UNL     1       2.627   2.864  19.550  0.00  0.00    +0.000 C 
ATOM     13  C   UNL     1       3.364   1.542  19.197  0.00  0.00    +0.000 C 
BRANCH  12  14
ATOM     14  C   UNL     1       2.071   2.682  20.964  0.00  0.00    +0.000 C 
ATOM     15  O   UNL     1       2.752   2.362  21.930  0.00  0.00    +0.000 OA
BRANCH  14  16
ATOM     16  O   UNL     1       0.775   3.022  21.133  0.00  0.00    +0.000 OA
ATOM     17  H   UNL     1       0.190   2.860  20.368  0.00  0.00    +0.000 HD
ENDBRANCH  14  16
ENDBRANCH  12  14
ENDBRANCH  10  12
ENDBRANCH   1  10
BRANCH   5  18
ATOM     18  O   UNL     1       0.300  10.593  20.111  0.00  0.00    +0.000 OA
BRANCH  18  19
ATOM     19  C   UNL     1       0.948  11.795  20.718  0.00  0.00    +0.000 C 
BRANCH  19  20
ATOM     20  C   UNL     1       0.989  13.010  19.768  0.00  0.00    +0.000 A 
ATOM     21  C   UNL     1       2.278  13.395  19.476  0.00  0.00    +0.000 A 
ATOM     22  C   UNL     1       2.380  14.191  18.397  0.00  0.00    +0.000 A 
ATOM     23  C   UNL     1       1.654  15.310  18.669  0.00  0.00    +0.000 A 
ATOM     24  C   UNL     1       2.339  16.501  18.888  0.00  0.00    +0.000 A 
ATOM     25  C   UNL     1       1.632  17.674  18.872  0.00  0.00    +0.000 A 
ATOM     26  C   UNL     1       0.286  17.604  18.531  0.00  0.00    +0.000 A 
ATOM     27  C   UNL     1      -0.389  16.347  18.537  0.00  0.00    +0.000 A 
ATOM     28  C   UNL     1       0.310  15.125  18.844  0.00  0.00    +0.000 A 
ATOM     29  N   UNL     1      -0.061  13.829  19.332  0.00  0.00    +0.000 NA
ENDBRANCH  19  20
ENDBRANCH  18  19
ENDBRANCH   5  18
BRANCH   9  30
ATOM     30  C   UNL     1       4.214   6.036  17.206  0.00  0.00    +0.000 C 
BRANCH  30  31
ATOM     31  C   UNL     1       5.668   6.299  17.511  0.00  0.00    +0.000 A 
ATOM     32  C   UNL     1       6.405   5.267  18.127  0.00  0.00    +0.000 A 
ATOM     33  C   UNL     1       7.688   5.495  18.627  0.00  0.00    +0.000 A 
ATOM     34  C   UNL     1       8.253   6.763  18.525  0.00  0.00    +0.000 A 
ATOM     35  C   UNL     1       7.550   7.781  17.885  0.00  0.00    +0.000 A 
ATOM     36 CL   UNL     1       8.236   9.356  17.788  0.00  0.00    +0.000 Cl
ATOM     37  C   UNL     1       6.273   7.553  17.365  0.00  0.00    +0.000 A 
ENDBRANCH  30  31
ENDBRANCH   9  30
TORSDOF 9
ENDMDL
MODEL 4
REMARK VINA RESULT:      -8.7      1.020      1.245
REMARK  Name = 
REMARK  11 active torsions:
REMARK  status: ('A' for Active; 'I' for Inactive)
REMARK    1  A    between atoms: C_1  and  C_2
REMARK    2  A    between atoms: C_2  and  C_3
REMARK    3  A    between atoms: C_2  and  C_4
REMARK    4  A    between atoms: C_2  and  C_34
REMARK    5  A    between atoms: C_4  and  C_5
REMARK    6  A    between atoms: C_9  and  O_10
REMARK    7  A    between atoms: O_10  and  C_11
REMARK    8  A    between atoms: C_11  and  C_12
REMARK    9  A    between atoms: N_25  and  C_26
REMARK   10  A    between atoms: C_26  and  C_27
REMARK   11  A    between atoms: C_34  and  O_36
REMARK                            x       y       z     vdW  Elec       q    Type
REMARK                         _______ _______ _______ _____ _____    ______ ____
ROOT
ATOM      1  C   UNL     1       2.714   5.714  19.772  0.00  0.00    +0.000 A 
ATOM      2  N   UNL     1       2.136   6.532  20.640  0.00  0.00    +0.000 NA
ATOM      3  C   UNL     1       1.836   7.703  19.963  0.00  0.00    +0.000 A 
ATOM      4  C   UNL     1       1.235   8.920  20.385  0.00  0.00    +0.000 A 
ATOM      5  C   UNL     1       1.128  10.023  19.492  0.00  0.00    +0.000 A 
ATOM      6  C   UNL     1       1.551   9.862  18.178  0.00  0.00    +0.000 A 
ATOM      7  C   UNL     1       2.105   8.644  17.727  0.00  0.00    +0.000 A 
ATOM      8  C   UNL     1       2.258   7.602  18.638  0.00  0.00    +0.000 A 
ATOM      9  N   UNL     1       2.787   6.314  18.530  0.00  0.00    +0.000 N 
ENDROOT
BRANCH   1  10
ATOM     10  C   UNL     1       3.207   4.305  20.087  0.00  0.00    +0.000 C 
BRANCH  10  12
ATOM     11  C   UNL     1       0.702   3.783  19.950  0.00  0.00    +0.000 C 
ATOM     12  C   UNL     1       2.106   3.214  20.212  0.00  0.00    +0.000 C 
ATOM     13  C   UNL     1       2.349   2.121  19.133  0.00  0.00    +0.000 C 
BRANCH  12  14
ATOM     14  C   UNL     1       2.223   2.515  21.568  0.00  0.00    +0.000 C 
ATOM     15  O   UNL     1       3.269   2.065  22.016  0.00  0.00    +0.000 OA
BRANCH  14  16
ATOM     16  O   UNL     1       1.109   2.524  22.331  0.00  0.00    +0.000 OA
ATOM     17  H   UNL     1       1.246   2.699  23.282  0.00  0.00    +0.000 HD
ENDBRANCH  14  16
ENDBRANCH  12  14
ENDBRANCH  10  12
ENDBRANCH   1  10
BRANCH   5  18
ATOM     18  O   UNL     1       0.580  11.206  19.973  0.00  0.00    +0.000 OA
BRANCH  18  19
ATOM     19  C   UNL     1      -0.618  11.830  19.331  0.00  0.00    +0.000 C 
BRANCH  19  20
ATOM     20  C   UNL     1      -1.796  12.031  20.308  0.00  0.00    +0.000 A 
ATOM     21  C   UNL     1      -2.852  12.687  19.716  0.00  0.00    +0.000 A 
ATOM     22  C   UNL     1      -4.012  12.571  20.386  0.00  0.00    +0.000 A 
ATOM     23  C   UNL     1      -3.809  13.115  21.616  0.00  0.00    +0.000 A 
ATOM     24  C   UNL     1      -4.433  14.323  21.912  0.00  0.00    +0.000 A 
ATOM     25  C   UNL     1      -4.478  14.733  23.219  0.00  0.00    +0.000 A 
ATOM     26  C   UNL     1      -3.987  13.857  24.180  0.00  0.00    +0.000 A 
ATOM     27  C   UNL     1      -3.172  12.751  23.791  0.00  0.00    +0.000 A 
ATOM     28  C   UNL     1      -2.883  12.488  22.404  0.00  0.00    +0.000 A 
ATOM     29  N   UNL     1      -1.851  11.797  21.688  0.00  0.00    +0.000 NA
ENDBRANCH  19  20
ENDBRANCH  18  19
ENDBRANCH   5  18
BRANCH   9  30
ATOM     30  C   UNL     1       3.503   5.805  17.366  0.00  0.00    +0.000 C 
BRANCH  30  31
ATOM     31  C   UNL     1       5.011   5.871  17.409  0.00  0.00    +0.000 A 
ATOM     32  C   UNL     1       5.712   4.676  17.669  0.00  0.00    +0.000 A 
ATOM     33  C   UNL     1       7.084   4.686  17.929  0.00  0.00    +0.000 A 
ATOM     34  C   UNL     1       7.775   5.893  17.940  0.00  0.00    +0.000 A 
ATOM     35  C   UNL     1       7.101   7.076  17.647  0.00  0.00    +0.000 A 
ATOM     36 CL   UNL     1       7.951   8.572  17.692  0.00  0.00    +0.000 Cl
ATOM     37  C   UNL     1       5.732   7.070  17.367  0.00  0.00    +0.000 A 
ENDBRANCH  30  31
ENDBRANCH   9  30
TORSDOF 9
ENDMDL
MODEL 5
REMARK VINA RESULT:      -8.7      2.946      4.288
REMARK  Name = 
REMARK  11 active torsions:
REMARK  status: ('A' for Active; 'I' for Inactive)
REMARK    1  A    between atoms: C_1  and  C_2
REMARK    2  A    between atoms: C_2  and  C_3
REMARK    3  A    between atoms: C_2  and  C_4
REMARK    4  A    between atoms: C_2  and  C_34
REMARK    5  A    between atoms: C_4  and  C_5
REMARK    6  A    between atoms: C_9  and  O_10
REMARK    7  A    between atoms: O_10  and  C_11
REMARK    8  A    between atoms: C_11  and  C_12
REMARK    9  A    between atoms: N_25  and  C_26
REMARK   10  A    between atoms: C_26  and  C_27
REMARK   11  A    between atoms: C_34  and  O_36
REMARK                            x       y       z     vdW  Elec       q    Type
REMARK                         _______ _______ _______ _____ _____    ______ ____
ROOT
ATOM      1  C   UNL     1       2.944   5.564  19.703  0.00  0.00    +0.000 A 
ATOM      2  N   UNL     1       2.229   6.319  20.524  0.00  0.00    +0.000 NA
ATOM      3  C   UNL     1       1.910   7.481  19.840  0.00  0.00    +0.000 A 
ATOM      4  C   UNL     1       1.184   8.642  20.223  0.00  0.00    +0.000 A 
ATOM      5  C   UNL     1       1.081   9.755  19.342  0.00  0.00    +0.000 A 
ATOM      6  C   UNL     1       1.637   9.655  18.072  0.00  0.00    +0.000 A 
ATOM      7  C   UNL     1       2.319   8.491  17.656  0.00  0.00    +0.000 A 
ATOM      8  C   UNL     1       2.460   7.441  18.561  0.00  0.00    +0.000 A 
ATOM      9  N   UNL     1       3.090   6.197  18.483  0.00  0.00    +0.000 N 
ENDROOT
BRANCH   1  10
ATOM     10  C   UNL     1       3.506   4.188  20.040  0.00  0.00    +0.000 C 
BRANCH  10  12
ATOM     11  C   UNL     1       3.156   1.786  19.220  0.00  0.00    +0.000 C 
ATOM     12  C   UNL     1       2.512   2.999  19.910  0.00  0.00    +0.000 C 
ATOM     13  C   UNL     1       2.093   2.528  21.331  0.00  0.00    +0.000 C 
BRANCH  12  14
ATOM     14  C   UNL     1       1.232   3.470  19.217  0.00  0.00    +0.000 C 
ATOM     15  O   UNL     1       1.068   3.459  18.004  0.00  0.00    +0.000 OA
BRANCH  14  16
ATOM     16  O   UNL     1       0.208   3.796  20.035  0.00  0.00    +0.000 OA
ATOM     17  H   UNL     1      -0.333   3.049  20.358  0.00  0.00    +0.000 HD
ENDBRANCH  14  16
ENDBRANCH  12  14
ENDBRANCH  10  12
ENDBRANCH   1  10
BRANCH   5  18
ATOM     18  O   UNL     1       0.406  10.885  19.787  0.00  0.00    +0.000 OA
BRANCH  18  19
ATOM     19  C   UNL     1       0.465  12.178  19.038  0.00  0.00    +0.000 C 
BRANCH  19  20
ATOM     20  C   UNL     1       1.780  12.953  19.265  0.00  0.00    +0.000 A 
ATOM     21  C   UNL     1       1.863  13.468  20.539  0.00  0.00    +0.000 A 
ATOM     22  C   UNL     1       3.106  13.830  20.903  0.00  0.00    +0.000 A 
ATOM     23  C   UNL     1       3.503  14.793  20.028  0.00  0.00    +0.000 A 
ATOM     24  C   UNL     1       3.616  16.099  20.495  0.00  0.00    +0.000 A 
ATOM     25  C   UNL     1       4.283  17.014  19.723  0.00  0.00    +0.000 A 
ATOM     26  C   UNL     1       4.899  16.547  18.568  0.00  0.00    +0.000 A 
ATOM     27  C   UNL     1       4.558  15.263  18.045  0.00  0.00    +0.000 A 
ATOM     28  C   UNL     1       3.618  14.407  18.721  0.00  0.00    +0.000 A 
ATOM     29  N   UNL     1       2.761  13.323  18.336  0.00  0.00    +0.000 NA
ENDBRANCH  19  20
ENDBRANCH  18  19
ENDBRANCH   5  18
BRANCH   9  30
ATOM     30  C   UNL     1       3.948   5.767  17.385  0.00  0.00    +0.000 C 
BRANCH  30  31
ATOM     31  C   UNL     1       5.430   6.003  17.544  0.00  0.00    +0.000 A 
ATOM     32  C   UNL     1       6.219   4.930  18.007  0.00  0.00    +0.000 A 
ATOM     33  C   UNL     1       7.552   5.120  18.376  0.00  0.00    +0.000 A 
ATOM     34  C   UNL     1       8.115   6.389  18.294  0.00  0.00    +0.000 A 
ATOM     35  C   UNL     1       7.359   7.450  17.802  0.00  0.00    +0.000 A 
ATOM     36 CL   UNL     1       8.047   9.026  17.732  0.00  0.00    +0.000 Cl
ATOM     37  C   UNL     1       6.029   7.262  17.413  0.00  0.00    +0.000 A 
ENDBRANCH  30  31
ENDBRANCH   9  30
TORSDOF 9
ENDMDL
MODEL 6
REMARK VINA RESULT:      -8.7      2.878      4.145
REMARK  Name = 
REMARK  11 active torsions:
REMARK  status: ('A' for Active; 'I' for Inactive)
REMARK    1  A    between atoms: C_1  and  C_2
REMARK    2  A    between atoms: C_2  and  C_3
REMARK    3  A    between atoms: C_2  and  C_4
REMARK    4  A    between atoms: C_2  and  C_34
REMARK    5  A    between atoms: C_4  and  C_5
REMARK    6  A    between atoms: C_9  and  O_10
REMARK    7  A    between atoms: O_10  and  C_11
REMARK    8  A    between atoms: C_11  and  C_12
REMARK    9  A    between atoms: N_25  and  C_26
REMARK   10  A    between atoms: C_26  and  C_27
REMARK   11  A    between atoms: C_34  and  O_36
REMARK                            x       y       z     vdW  Elec       q    Type
REMARK                         _______ _______ _______ _____ _____    ______ ____
ROOT
ATOM      1  C   UNL     1       2.732   5.648  19.875  0.00  0.00    +0.000 A 
ATOM      2  N   UNL     1       2.119   6.496  20.687  0.00  0.00    +0.000 NA
ATOM      3  C   UNL     1       1.835   7.636  19.951  0.00  0.00    +0.000 A 
ATOM      4  C   UNL     1       1.210   8.864  20.301  0.00  0.00    +0.000 A 
ATOM      5  C   UNL     1       1.127   9.928  19.359  0.00  0.00    +0.000 A 
ATOM      6  C   UNL     1       1.598   9.716  18.069  0.00  0.00    +0.000 A 
ATOM      7  C   UNL     1       2.176   8.485  17.688  0.00  0.00    +0.000 A 
ATOM      8  C   UNL     1       2.303   7.483  18.648  0.00  0.00    +0.000 A 
ATOM      9  N   UNL     1       2.845   6.197  18.612  0.00  0.00    +0.000 N 
ENDROOT
BRANCH   1  10
ATOM     10  C   UNL     1       3.224   4.258  20.266  0.00  0.00    +0.000 C 
BRANCH  10  12
ATOM     11  C   UNL     1       1.869   2.288  21.189  0.00  0.00    +0.000 C 
ATOM     12  C   UNL     1       2.263   3.081  19.932  0.00  0.00    +0.000 C 
ATOM     13  C   UNL     1       0.945   3.653  19.339  0.00  0.00    +0.000 C 
BRANCH  12  14
ATOM     14  C   UNL     1       2.882   2.203  18.842  0.00  0.00    +0.000 C 
ATOM     15  O   UNL     1       2.395   2.053  17.729  0.00  0.00    +0.000 OA
BRANCH  14  16
ATOM     16  O   UNL     1       4.093   1.679  19.127  0.00  0.00    +0.000 OA
ATOM     17  H   UNL     1       4.762   1.745  18.419  0.00  0.00    +0.000 HD
ENDBRANCH  14  16
ENDBRANCH  12  14
ENDBRANCH  10  12
ENDBRANCH   1  10
BRANCH   5  18
ATOM     18  O   UNL     1       0.554  11.126  19.770  0.00  0.00    +0.000 OA
BRANCH  18  19
ATOM     19  C   UNL     1       0.743  12.390  18.994  0.00  0.00    +0.000 C 
BRANCH  19  20
ATOM     20  C   UNL     1       1.740  13.366  19.653  0.00  0.00    +0.000 A 
ATOM     21  C   UNL     1       2.194  14.317  18.767  0.00  0.00    +0.000 A 
ATOM     22  C   UNL     1       2.765  15.383  19.355  0.00  0.00    +0.000 A 
ATOM     23  C   UNL     1       3.830  14.916  20.060  0.00  0.00    +0.000 A 
ATOM     24  C   UNL     1       5.108  15.219  19.599  0.00  0.00    +0.000 A 
ATOM     25  C   UNL     1       6.172  15.012  20.438  0.00  0.00    +0.000 A 
ATOM     26  C   UNL     1       5.891  14.610  21.738  0.00  0.00    +0.000 A 
ATOM     27  C   UNL     1       4.595  14.111  22.069  0.00  0.00    +0.000 A 
ATOM     28  C   UNL     1       3.541  14.060  21.087  0.00  0.00    +0.000 A 
ATOM     29  N   UNL     1       2.337  13.300  20.918  0.00  0.00    +0.000 NA
ENDBRANCH  19  20
ENDBRANCH  18  19
ENDBRANCH   5  18
BRANCH   9  30
ATOM     30  C   UNL     1       3.605   5.645  17.496  0.00  0.00    +0.000 C 
BRANCH  30  31
ATOM     31  C   UNL     1       5.106   5.801  17.549  0.00  0.00    +0.000 A 
ATOM     32  C   UNL     1       5.869   4.673  17.913  0.00  0.00    +0.000 A 
ATOM     33  C   UNL     1       7.234   4.783  18.185  0.00  0.00    +0.000 A 
ATOM     34  C   UNL     1       7.856   6.025  18.104  0.00  0.00    +0.000 A 
ATOM     35  C   UNL     1       7.121   7.140  17.709  0.00  0.00    +0.000 A 
ATOM     36 CL   UNL     1       7.884   8.681  17.640  0.00  0.00    +0.000 Cl
ATOM     37  C   UNL     1       5.758   7.032  17.417  0.00  0.00    +0.000 A 
ENDBRANCH  30  31
ENDBRANCH   9  30
TORSDOF 9
ENDMDL
MODEL 7
REMARK VINA RESULT:      -8.7      1.267      1.592
REMARK  Name = 
REMARK  11 active torsions:
REMARK  status: ('A' for Active; 'I' for Inactive)
REMARK    1  A    between atoms: C_1  and  C_2
REMARK    2  A    between atoms: C_2  and  C_3
REMARK    3  A    between atoms: C_2  and  C_4
REMARK    4  A    between atoms: C_2  and  C_34
REMARK    5  A    between atoms: C_4  and  C_5
REMARK    6  A    between atoms: C_9  and  O_10
REMARK    7  A    between atoms: O_10  and  C_11
REMARK    8  A    between atoms: C_11  and  C_12
REMARK    9  A    between atoms: N_25  and  C_26
REMARK   10  A    between atoms: C_26  and  C_27
REMARK   11  A    between atoms: C_34  and  O_36
REMARK                            x       y       z     vdW  Elec       q    Type
REMARK                         _______ _______ _______ _____ _____    ______ ____
ROOT
ATOM      1  C   UNL     1       2.983   5.554  19.458  0.00  0.00    +0.000 A 
ATOM      2  N   UNL     1       2.192   6.243  20.268  0.00  0.00    +0.000 NA
ATOM      3  C   UNL     1       1.936   7.460  19.655  0.00  0.00    +0.000 A 
ATOM      4  C   UNL     1       1.175   8.590  20.061  0.00  0.00    +0.000 A 
ATOM      5  C   UNL     1       1.154   9.771  19.268  0.00  0.00    +0.000 A 
ATOM      6  C   UNL     1       1.827   9.771  18.052  0.00  0.00    +0.000 A 
ATOM      7  C   UNL     1       2.547   8.641  17.608  0.00  0.00    +0.000 A 
ATOM      8  C   UNL     1       2.604   7.520  18.433  0.00  0.00    +0.000 A 
ATOM      9  N   UNL     1       3.241   6.284  18.313  0.00  0.00    +0.000 N 
ENDROOT
BRANCH   1  10
ATOM     10  C   UNL     1       3.513   4.151  19.734  0.00  0.00    +0.000 C 
BRANCH  10  12
ATOM     11  C   UNL     1       1.704   3.184  18.199  0.00  0.00    +0.000 C 
ATOM     12  C   UNL     1       2.510   2.988  19.493  0.00  0.00    +0.000 C 
ATOM     13  C   UNL     1       3.302   1.661  19.323  0.00  0.00    +0.000 C 
BRANCH  12  14
ATOM     14  C   UNL     1       1.624   2.806  20.727  0.00  0.00    +0.000 C 
ATOM     15  O   UNL     1       2.011   2.316  21.779  0.00  0.00    +0.000 OA
BRANCH  14  16
ATOM     16  O   UNL     1       0.386   3.341  20.644  0.00  0.00    +0.000 OA
ATOM     17  H   UNL     1      -0.165   3.263  21.447  0.00  0.00    +0.000 HD
ENDBRANCH  14  16
ENDBRANCH  12  14
ENDBRANCH  10  12
ENDBRANCH   1  10
BRANCH   5  18
ATOM     18  O   UNL     1       0.437  10.865  19.739  0.00  0.00    +0.000 OA
BRANCH  18  19
ATOM     19  C   UNL     1       0.667  11.419  21.109  0.00  0.00    +0.000 C 
BRANCH  19  20
ATOM     20  C   UNL     1      -0.505  12.284  21.620  0.00  0.00    +0.000 A 
ATOM     21  C   UNL     1      -0.104  13.562  21.936  0.00  0.00    +0.000 A 
ATOM     22  C   UNL     1      -1.115  14.443  22.036  0.00  0.00    +0.000 A 
ATOM     23  C   UNL     1      -1.927  13.994  23.031  0.00  0.00    +0.000 A 
ATOM     24  C   UNL     1      -1.960  14.707  24.225  0.00  0.00    +0.000 A 
ATOM     25  C   UNL     1      -2.969  14.447  25.115  0.00  0.00    +0.000 A 
ATOM     26  C   UNL     1      -3.959  13.556  24.715  0.00  0.00    +0.000 A 
ATOM     27  C   UNL     1      -3.744  12.707  23.587  0.00  0.00    +0.000 A 
ATOM     28  C   UNL     1      -2.532  12.787  22.812  0.00  0.00    +0.000 A 
ATOM     29  N   UNL     1      -1.812  11.899  21.947  0.00  0.00    +0.000 NA
ENDBRANCH  19  20
ENDBRANCH  18  19
ENDBRANCH   5  18
BRANCH   9  30
ATOM     30  C   UNL     1       4.200   5.939  17.269  0.00  0.00    +0.000 C 
BRANCH  30  31
ATOM     31  C   UNL     1       5.655   6.210  17.562  0.00  0.00    +0.000 A 
ATOM     32  C   UNL     1       6.391   5.200  18.216  0.00  0.00    +0.000 A 
ATOM     33  C   UNL     1       7.675   5.445  18.705  0.00  0.00    +0.000 A 
ATOM     34  C   UNL     1       8.242   6.706  18.554  0.00  0.00    +0.000 A 
ATOM     35  C   UNL     1       7.541   7.701  17.877  0.00  0.00    +0.000 A 
ATOM     36 CL   UNL     1       8.230   9.270  17.719  0.00  0.00    +0.000 Cl
ATOM     37  C   UNL     1       6.263   7.456  17.368  0.00  0.00    +0.000 A 
ENDBRANCH  30  31
ENDBRANCH   9  30
TORSDOF 9
ENDMDL
MODEL 8
REMARK VINA RESULT:      -8.7      1.625      2.316
REMARK  Name = 
REMARK  11 active torsions:
REMARK  status: ('A' for Active; 'I' for Inactive)
REMARK    1  A    between atoms: C_1  and  C_2
REMARK    2  A    between atoms: C_2  and  C_3
REMARK    3  A    between atoms: C_2  and  C_4
REMARK    4  A    between atoms: C_2  and  C_34
REMARK    5  A    between atoms: C_4  and  C_5
REMARK    6  A    between atoms: C_9  and  O_10
REMARK    7  A    between atoms: O_10  and  C_11
REMARK    8  A    between atoms: C_11  and  C_12
REMARK    9  A    between atoms: N_25  and  C_26
REMARK   10  A    between atoms: C_26  and  C_27
REMARK   11  A    between atoms: C_34  and  O_36
REMARK                            x       y       z     vdW  Elec       q    Type
REMARK                         _______ _______ _______ _____ _____    ______ ____
ROOT
ATOM      1  C   UNL     1       2.686   6.178  19.523  0.00  0.00    +0.000 A 
ATOM      2  N   UNL     1       2.107   6.899  20.472  0.00  0.00    +0.000 NA
ATOM      3  C   UNL     1       1.768   8.120  19.910  0.00  0.00    +0.000 A 
ATOM      4  C   UNL     1       1.147   9.278  20.453  0.00  0.00    +0.000 A 
ATOM      5  C   UNL     1       0.998  10.455  19.667  0.00  0.00    +0.000 A 
ATOM      6  C   UNL     1       1.399  10.425  18.337  0.00  0.00    +0.000 A 
ATOM      7  C   UNL     1       1.972   9.268  17.766  0.00  0.00    +0.000 A 
ATOM      8  C   UNL     1       2.165   8.150  18.575  0.00  0.00    +0.000 A 
ATOM      9  N   UNL     1       2.721   6.891  18.340  0.00  0.00    +0.000 N 
ENDROOT
BRANCH   1  10
ATOM     10  C   UNL     1       3.217   4.759  19.698  0.00  0.00    +0.000 C 
BRANCH  10  12
ATOM     11  C   UNL     1       1.199   3.558  20.725  0.00  0.00    +0.000 C 
ATOM     12  C   UNL     1       2.171   3.619  19.535  0.00  0.00    +0.000 C 
ATOM     13  C   UNL     1       1.308   3.898  18.273  0.00  0.00    +0.000 C 
BRANCH  12  14
ATOM     14  C   UNL     1       2.889   2.292  19.282  0.00  0.00    +0.000 C 
ATOM     15  O   UNL     1       4.046   2.067  19.614  0.00  0.00    +0.000 OA
BRANCH  14  16
ATOM     16  O   UNL     1       2.128   1.302  18.770  0.00  0.00    +0.000 OA
ATOM     17  H   UNL     1       1.187   1.310  19.031  0.00  0.00    +0.000 HD
ENDBRANCH  14  16
ENDBRANCH  12  14
ENDBRANCH  10  12
ENDBRANCH   1  10
BRANCH   5  18
ATOM     18  O   UNL     1       0.433  11.575  20.264  0.00  0.00    +0.000 OA
BRANCH  18  19
ATOM     19  C   UNL     1      -0.811  11.478  21.088  0.00  0.00    +0.000 C 
BRANCH  19  20
ATOM     20  C   UNL     1      -2.073  11.964  20.345  0.00  0.00    +0.000 A 
ATOM     21  C   UNL     1      -2.962  12.590  21.190  0.00  0.00    +0.000 A 
ATOM     22  C   UNL     1      -3.885  13.335  20.557  0.00  0.00    +0.000 A 
ATOM     23  C   UNL     1      -4.586  12.489  19.755  0.00  0.00    +0.000 A 
ATOM     24  C   UNL     1      -5.903  12.198  20.097  0.00  0.00    +0.000 A 
ATOM     25  C   UNL     1      -6.703  11.594  19.164  0.00  0.00    +0.000 A 
ATOM     26  C   UNL     1      -6.173  11.407  17.893  0.00  0.00    +0.000 A 
ATOM     27  C   UNL     1      -4.766  11.524  17.680  0.00  0.00    +0.000 A 
ATOM     28  C   UNL     1      -3.876  11.884  18.754  0.00  0.00    +0.000 A 
ATOM     29  N   UNL     1      -2.480  11.705  19.030  0.00  0.00    +0.000 NA
ENDBRANCH  19  20
ENDBRANCH  18  19
ENDBRANCH   5  18
BRANCH   9  30
ATOM     30  C   UNL     1       3.426   6.507  17.122  0.00  0.00    +0.000 C 
BRANCH  30  31
ATOM     31  C   UNL     1       4.910   6.256  17.242  0.00  0.00    +0.000 A 
ATOM     32  C   UNL     1       5.349   4.917  17.254  0.00  0.00    +0.000 A 
ATOM     33  C   UNL     1       6.670   4.593  17.566  0.00  0.00    +0.000 A 
ATOM     34  C   UNL     1       7.573   5.605  17.879  0.00  0.00    +0.000 A 
ATOM     35  C   UNL     1       7.161   6.934  17.834  0.00  0.00    +0.000 A 
ATOM     36 CL   UNL     1       8.270   8.183  18.252  0.00  0.00    +0.000 Cl
ATOM     37  C   UNL     1       5.844   7.266  17.503  0.00  0.00    +0.000 A 
ENDBRANCH  30  31
ENDBRANCH   9  30
TORSDOF 9
ENDMDL
MODEL 9
REMARK VINA RESULT:      -8.7      2.957      3.981
REMARK  Name = 
REMARK  11 active torsions:
REMARK  status: ('A' for Active; 'I' for Inactive)
REMARK    1  A    between atoms: C_1  and  C_2
REMARK    2  A    between atoms: C_2  and  C_3
REMARK    3  A    between atoms: C_2  and  C_4
REMARK    4  A    between atoms: C_2  and  C_34
REMARK    5  A    between atoms: C_4  and  C_5
REMARK    6  A    between atoms: C_9  and  O_10
REMARK    7  A    between atoms: O_10  and  C_11
REMARK    8  A    between atoms: C_11  and  C_12
REMARK    9  A    between atoms: N_25  and  C_26
REMARK   10  A    between atoms: C_26  and  C_27
REMARK   11  A    between atoms: C_34  and  O_36
REMARK                            x       y       z     vdW  Elec       q    Type
REMARK                         _______ _______ _______ _____ _____    ______ ____
ROOT
ATOM      1  C   UNL     1       2.651   5.432  19.956  0.00  0.00    +0.000 A 
ATOM      2  N   UNL     1       2.187   6.353  20.787  0.00  0.00    +0.000 NA
ATOM      3  C   UNL     1       1.886   7.475  20.031  0.00  0.00    +0.000 A 
ATOM      4  C   UNL     1       1.379   8.755  20.385  0.00  0.00    +0.000 A 
ATOM      5  C   UNL     1       1.249   9.779  19.405  0.00  0.00    +0.000 A 
ATOM      6  C   UNL     1       1.553   9.480  18.083  0.00  0.00    +0.000 A 
ATOM      7  C   UNL     1       2.010   8.199  17.703  0.00  0.00    +0.000 A 
ATOM      8  C   UNL     1       2.189   7.234  18.692  0.00  0.00    +0.000 A 
ATOM      9  N   UNL     1       2.647   5.916  18.662  0.00  0.00    +0.000 N 
ENDROOT
BRANCH   1  10
ATOM     10  C   UNL     1       3.102   4.032  20.360  0.00  0.00    +0.000 C 
BRANCH  10  12
ATOM     11  C   UNL     1       1.899   2.192  21.675  0.00  0.00    +0.000 C 
ATOM     12  C   UNL     1       2.004   2.932  20.332  0.00  0.00    +0.000 C 
ATOM     13  C   UNL     1       0.622   3.599  20.085  0.00  0.00    +0.000 C 
BRANCH  12  14
ATOM     14  C   UNL     1       2.246   1.991  19.149  0.00  0.00    +0.000 C 
ATOM     15  O   UNL     1       3.350   1.572  18.825  0.00  0.00    +0.000 OA
BRANCH  14  16
ATOM     16  O   UNL     1       1.138   1.528  18.531  0.00  0.00    +0.000 OA
ATOM     17  H   UNL     1       0.298   1.657  19.013  0.00  0.00    +0.000 HD
ENDBRANCH  14  16
ENDBRANCH  12  14
ENDBRANCH  10  12
ENDBRANCH   1  10
BRANCH   5  18
ATOM     18  O   UNL     1       0.799  11.028  19.817  0.00  0.00    +0.000 OA
BRANCH  18  19
ATOM     19  C   UNL     1       0.213  12.005  18.849  0.00  0.00    +0.000 C 
BRANCH  19  20
ATOM     20  C   UNL     1       0.889  13.392  18.898  0.00  0.00    +0.000 A 
ATOM     21  C   UNL     1       0.047  14.360  19.397  0.00  0.00    +0.000 A 
ATOM     22  C   UNL     1       0.677  15.479  19.795  0.00  0.00    +0.000 A 
ATOM     23  C   UNL     1       1.304  15.985  18.699  0.00  0.00    +0.000 A 
ATOM     24  C   UNL     1       0.809  17.160  18.142  0.00  0.00    +0.000 A 
ATOM     25  C   UNL     1       1.586  17.832  17.235  0.00  0.00    +0.000 A 
ATOM     26  C   UNL     1       2.869  17.347  17.009  0.00  0.00    +0.000 A 
ATOM     27  C   UNL     1       3.222  16.032  17.440  0.00  0.00    +0.000 A 
ATOM     28  C   UNL     1       2.286  15.203  18.155  0.00  0.00    +0.000 A 
ATOM     29  N   UNL     1       2.121  13.795  18.366  0.00  0.00    +0.000 NA
ENDBRANCH  19  20
ENDBRANCH  18  19
ENDBRANCH   5  18
BRANCH   9  30
ATOM     30  C   UNL     1       3.239   5.267  17.497  0.00  0.00    +0.000 C 
BRANCH  30  31
ATOM     31  C   UNL     1       4.747   5.235  17.426  0.00  0.00    +0.000 A 
ATOM     32  C   UNL     1       5.337   4.631  16.297  0.00  0.00    +0.000 A 
ATOM     33  C   UNL     1       6.709   4.376  16.250  0.00  0.00    +0.000 A 
ATOM     34  C   UNL     1       7.511   4.715  17.334  0.00  0.00    +0.000 A 
ATOM     35  C   UNL     1       6.947   5.348  18.439  0.00  0.00    +0.000 A 
ATOM     36 CL   UNL     1       7.935   5.738  19.792  0.00  0.00    +0.000 Cl
ATOM     37  C   UNL     1       5.577   5.623  18.484  0.00  0.00    +0.000 A 
ENDBRANCH  30  31
ENDBRANCH   9  30
TORSDOF 9
ENDMDL
