MODEL 1
REMARK VINA RESULT:      -7.8      0.000      0.000
REMARK  Name = 
REMARK  6 active torsions:
REMARK  status: ('A' for Active; 'I' for Inactive)
REMARK    1  A    between atoms: C_2  and  C_4
REMARK    2  A    between atoms: C_5  and  N_6
REMARK    3  A    between atoms: C_7  and  C_9
REMARK    4  A    between atoms: C_12  and  C_13
REMARK    5  A    between atoms: N_24  and  C_25
REMARK    6  A    between atoms: C_25  and  C_26
REMARK                            x       y       z     vdW  Elec       q    Type
REMARK                         _______ _______ _______ _____ _____    ______ ____
ROOT
ATOM      1  C   UNL     1       0.851  11.548  20.647  0.00  0.00    +0.000 A 
ATOM      2  C   UNL     1       0.864  10.170  20.797  0.00  0.00    +0.000 A 
ATOM      3  S   UNL     1      -0.361   9.585  21.822  0.00  0.00    +0.000 S 
ATOM      4  C   UNL     1      -0.774  11.161  22.294  0.00  0.00    +0.000 A 
ATOM      5  C   UNL     1      -0.014  12.123  21.652  0.00  0.00    +0.000 A 
ATOM      6  C   UNL     1      -0.249  13.586  21.927  0.00  0.00    +0.000 C 
ATOM      7  C   UNL     1      -1.219  13.780  23.122  0.00  0.00    +0.000 C 
ATOM      8  N   UNL     1      -2.378  12.846  23.140  0.00  0.00    +0.000 NA
ATOM      9  C   UNL     1      -1.870  11.456  23.277  0.00  0.00    +0.000 C 
ENDROOT
BRANCH   1  11
ATOM     10  N   UNL     1       0.943  12.383  18.388  0.00  0.00    +0.000 N 
ATOM     11  C   UNL     1       1.539  12.335  19.617  0.00  0.00    +0.000 C 
ATOM     12  O   UNL     1       2.523  13.034  19.839  0.00  0.00    +0.000 OA
ATOM     13  H   UNL     1       1.386  12.941  17.674  0.00  0.00    +0.000 HD
ATOM     14  H   UNL     1       0.123  11.841  18.167  0.00  0.00    +0.000 HD
ENDBRANCH   1  11
BRANCH   2  15
ATOM     15  N   UNL     1       1.654   9.164  20.271  0.00  0.00    +0.000 N 
ATOM     16  C   UNL     1       1.516   8.835  18.930  0.00  0.00    +0.000 C 
ATOM     17  O   UNL     1       0.727   9.375  18.159  0.00  0.00    +0.000 OA
ATOM     18  H   UNL     1       2.552   9.040  20.715  0.00  0.00    +0.000 HD
BRANCH  16  19
ATOM     19  C   UNL     1       2.379   7.740  18.398  0.00  0.00    +0.000 A 
ATOM     20  C   UNL     1       2.113   6.445  18.870  0.00  0.00    +0.000 A 
ATOM     21  C   UNL     1       2.868   5.354  18.440  0.00  0.00    +0.000 A 
ATOM     22  C   UNL     1       3.906   5.532  17.517  0.00  0.00    +0.000 A 
ATOM     23  C   UNL     1       4.175   6.829  17.046  0.00  0.00    +0.000 A 
ATOM     24  C   UNL     1       3.419   7.927  17.481  0.00  0.00    +0.000 A 
BRANCH  22  25
ATOM     25  C   UNL     1       4.711   4.355  17.022  0.00  0.00    +0.000 C 
ATOM     26  F   UNL     1       5.108   4.471  15.724  0.00  0.00    +0.000 F 
ATOM     27  F   UNL     1       5.848   4.164  17.745  0.00  0.00    +0.000 F 
ATOM     28  F   UNL     1       4.020   3.184  17.096  0.00  0.00    +0.000 F 
ENDBRANCH  22  25
ENDBRANCH  16  19
ENDBRANCH   2  15
BRANCH   8  29
ATOM     29  C   UNL     1      -3.197  13.032  21.921  0.00  0.00    +0.000 C 
BRANCH  29  30
ATOM     30  C   UNL     1      -4.675  12.814  22.125  0.00  0.00    +0.000 A 
ATOM     31  C   UNL     1      -5.267  13.010  23.379  0.00  0.00    +0.000 A 
ATOM     32  C   UNL     1      -6.640  12.818  23.549  0.00  0.00    +0.000 A 
ATOM     33  C   UNL     1      -7.432  12.427  22.469  0.00  0.00    +0.000 A 
ATOM     34  C   UNL     1      -6.856  12.232  21.215  0.00  0.00    +0.000 A 
ATOM     35  C   UNL     1      -5.488  12.427  21.055  0.00  0.00    +0.000 A 
ATOM     36  F   UNL     1      -4.954  12.231  19.838  0.00  0.00    +0.000 F 
ENDBRANCH  29  30
ENDBRANCH   8  29
TORSDOF 6
ENDMDL
MODEL 2
REMARK VINA RESULT:      -7.8      1.580      1.978
REMARK  Name = 
REMARK  6 active torsions:
REMARK  status: ('A' for Active; 'I' for Inactive)
REMARK    1  A    between atoms: C_2  and  C_4
REMARK    2  A    between atoms: C_5  and  N_6
REMARK    3  A    between atoms: C_7  and  C_9
REMARK    4  A    between atoms: C_12  and  C_13
REMARK    5  A    between atoms: N_24  and  C_25
REMARK    6  A    between atoms: C_25  and  C_26
REMARK                            x       y       z     vdW  Elec       q    Type
REMARK                         _______ _______ _______ _____ _____    ______ ____
ROOT
ATOM      1  C   UNL     1      -0.948  10.504  19.381  0.00  0.00    +0.000 A 
ATOM      2  C   UNL     1       0.085   9.782  19.961  0.00  0.00    +0.000 A 
ATOM      3  S   UNL     1       0.461  10.281  21.543  0.00  0.00    +0.000 S 
ATOM      4  C   UNL     1      -0.557  11.629  21.402  0.00  0.00    +0.000 A 
ATOM      5  C   UNL     1      -1.205  11.681  20.181  0.00  0.00    +0.000 A 
ATOM      6  C   UNL     1      -2.168  12.799  19.877  0.00  0.00    +0.000 C 
ATOM      7  C   UNL     1      -2.111  13.897  20.969  0.00  0.00    +0.000 C 
ATOM      8  N   UNL     1      -2.017  13.384  22.363  0.00  0.00    +0.000 NA
ATOM      9  C   UNL     1      -0.746  12.627  22.509  0.00  0.00    +0.000 C 
ENDROOT
BRANCH   1  11
ATOM     10  N   UNL     1      -1.070  10.234  16.990  0.00  0.00    +0.000 N 
ATOM     11  C   UNL     1      -1.722  10.143  18.188  0.00  0.00    +0.000 C 
ATOM     12  O   UNL     1      -2.847   9.655  18.229  0.00  0.00    +0.000 OA
ATOM     13  H   UNL     1      -1.576   9.965  16.160  0.00  0.00    +0.000 HD
ATOM     14  H   UNL     1      -0.140  10.611  16.911  0.00  0.00    +0.000 HD
ENDBRANCH   1  11
BRANCH   2  15
ATOM     15  N   UNL     1       0.865   8.724  19.528  0.00  0.00    +0.000 N 
ATOM     16  C   UNL     1       1.783   8.941  18.511  0.00  0.00    +0.000 C 
ATOM     17  O   UNL     1       1.957  10.019  17.949  0.00  0.00    +0.000 OA
ATOM     18  H   UNL     1       1.061   8.018  20.222  0.00  0.00    +0.000 HD
BRANCH  16  19
ATOM     19  C   UNL     1       2.602   7.776  18.064  0.00  0.00    +0.000 A 
ATOM     20  C   UNL     1       2.107   6.502  18.383  0.00  0.00    +0.000 A 
ATOM     21  C   UNL     1       2.803   5.349  18.017  0.00  0.00    +0.000 A 
ATOM     22  C   UNL     1       4.009   5.445  17.312  0.00  0.00    +0.000 A 
ATOM     23  C   UNL     1       4.505   6.721  16.994  0.00  0.00    +0.000 A 
ATOM     24  C   UNL     1       3.810   7.880  17.366  0.00  0.00    +0.000 A 
BRANCH  22  25
ATOM     25  C   UNL     1       4.755   4.204  16.884  0.00  0.00    +0.000 C 
ATOM     26  F   UNL     1       4.934   4.111  15.537  0.00  0.00    +0.000 F 
ATOM     27  F   UNL     1       5.999   4.133  17.432  0.00  0.00    +0.000 F 
ATOM     28  F   UNL     1       4.117   3.059  17.255  0.00  0.00    +0.000 F 
ENDBRANCH  22  25
ENDBRANCH  16  19
ENDBRANCH   2  15
BRANCH   8  29
ATOM     29  C   UNL     1      -3.205  12.560  22.681  0.00  0.00    +0.000 C 
BRANCH  29  30
ATOM     30  C   UNL     1      -4.495  13.336  22.771  0.00  0.00    +0.000 A 
ATOM     31  C   UNL     1      -4.640  14.391  23.681  0.00  0.00    +0.000 A 
ATOM     32  C   UNL     1      -5.837  15.109  23.743  0.00  0.00    +0.000 A 
ATOM     33  C   UNL     1      -6.897  14.779  22.900  0.00  0.00    +0.000 A 
ATOM     34  C   UNL     1      -6.764  13.734  21.988  0.00  0.00    +0.000 A 
ATOM     35  C   UNL     1      -5.569  13.025  21.931  0.00  0.00    +0.000 A 
ATOM     36  F   UNL     1      -5.464  12.020  21.046  0.00  0.00    +0.000 F 
ENDBRANCH  29  30
ENDBRANCH   8  29
TORSDOF 6
ENDMDL
MODEL 3
REMARK VINA RESULT:      -7.8      0.442      1.170
REMARK  Name = 
REMARK  6 active torsions:
REMARK  status: ('A' for Active; 'I' for Inactive)
REMARK    1  A    between atoms: C_2  and  C_4
REMARK    2  A    between atoms: C_5  and  N_6
REMARK    3  A    between atoms: C_7  and  C_9
REMARK    4  A    between atoms: C_12  and  C_13
REMARK    5  A    between atoms: N_24  and  C_25
REMARK    6  A    between atoms: C_25  and  C_26
REMARK                            x       y       z     vdW  Elec       q    Type
REMARK                         _______ _______ _______ _____ _____    ______ ____
ROOT
ATOM      1  C   UNL     1       0.875  11.318  20.396  0.00  0.00    +0.000 A 
ATOM      2  C   UNL     1       0.927   9.951  20.626  0.00  0.00    +0.000 A 
ATOM      3  S   UNL     1      -0.208   9.409  21.770  0.00  0.00    +0.000 S 
ATOM      4  C   UNL     1      -0.620  11.003  22.176  0.00  0.00    +0.000 A 
ATOM      5  C   UNL     1       0.071  11.937  21.425  0.00  0.00    +0.000 A 
ATOM      6  C   UNL     1      -0.175  13.410  21.630  0.00  0.00    +0.000 C 
ATOM      7  C   UNL     1      -1.060  13.659  22.878  0.00  0.00    +0.000 C 
ATOM      8  N   UNL     1      -2.195  12.709  23.035  0.00  0.00    +0.000 NA
ATOM      9  C   UNL     1      -1.649  11.339  23.217  0.00  0.00    +0.000 C 
ENDROOT
BRANCH   1  11
ATOM     10  N   UNL     1       0.717  12.144  18.138  0.00  0.00    +0.000 N 
ATOM     11  C   UNL     1       1.471  12.052  19.274  0.00  0.00    +0.000 C 
ATOM     12  O   UNL     1       2.523  12.678  19.353  0.00  0.00    +0.000 OA
ATOM     13  H   UNL     1       1.098  12.668  17.364  0.00  0.00    +0.000 HD
ATOM     14  H   UNL     1      -0.162  11.663  18.035  0.00  0.00    +0.000 HD
ENDBRANCH   1  11
BRANCH   2  15
ATOM     15  N   UNL     1       1.699   8.929  20.105  0.00  0.00    +0.000 N 
ATOM     16  C   UNL     1       1.565   8.606  18.762  0.00  0.00    +0.000 C 
ATOM     17  O   UNL     1       0.795   9.164  17.986  0.00  0.00    +0.000 OA
ATOM     18  H   UNL     1       2.591   8.785  20.555  0.00  0.00    +0.000 HD
BRANCH  16  19
ATOM     19  C   UNL     1       2.408   7.492  18.235  0.00  0.00    +0.000 A 
ATOM     20  C   UNL     1       3.588   7.857  17.569  0.00  0.00    +0.000 A 
ATOM     21  C   UNL     1       4.440   6.891  17.034  0.00  0.00    +0.000 A 
ATOM     22  C   UNL     1       4.134   5.530  17.162  0.00  0.00    +0.000 A 
ATOM     23  C   UNL     1       2.951   5.164  17.827  0.00  0.00    +0.000 A 
ATOM     24  C   UNL     1       2.092   6.134  18.361  0.00  0.00    +0.000 A 
BRANCH  22  25
ATOM     25  C   UNL     1       5.063   4.474  16.612  0.00  0.00    +0.000 C 
ATOM     26  F   UNL     1       4.874   3.241  17.162  0.00  0.00    +0.000 F 
ATOM     27  F   UNL     1       4.924   4.310  15.268  0.00  0.00    +0.000 F 
ATOM     28  F   UNL     1       6.375   4.777  16.818  0.00  0.00    +0.000 F 
ENDBRANCH  22  25
ENDBRANCH  16  19
ENDBRANCH   2  15
BRANCH   8  29
ATOM     29  C   UNL     1      -3.103  12.806  21.870  0.00  0.00    +0.000 C 
BRANCH  29  30
ATOM     30  C   UNL     1      -4.569  12.739  22.215  0.00  0.00    +0.000 A 
ATOM     31  C   UNL     1      -5.011  12.941  23.529  0.00  0.00    +0.000 A 
ATOM     32  C   UNL     1      -6.374  12.888  23.830  0.00  0.00    +0.000 A 
ATOM     33  C   UNL     1      -7.305  12.632  22.824  0.00  0.00    +0.000 A 
ATOM     34  C   UNL     1      -6.879  12.432  21.512  0.00  0.00    +0.000 A 
ATOM     35  C   UNL     1      -5.520  12.488  21.221  0.00  0.00    +0.000 A 
ATOM     36  F   UNL     1      -5.131  12.290  19.950  0.00  0.00    +0.000 F 
ENDBRANCH  29  30
ENDBRANCH   8  29
TORSDOF 6
ENDMDL
MODEL 4
REMARK VINA RESULT:      -7.7      1.679      2.035
REMARK  Name = 
REMARK  6 active torsions:
REMARK  status: ('A' for Active; 'I' for Inactive)
REMARK    1  A    between atoms: C_2  and  C_4
REMARK    2  A    between atoms: C_5  and  N_6
REMARK    3  A    between atoms: C_7  and  C_9
REMARK    4  A    between atoms: C_12  and  C_13
REMARK    5  A    between atoms: N_24  and  C_25
REMARK    6  A    between atoms: C_25  and  C_26
REMARK                            x       y       z     vdW  Elec       q    Type
REMARK                         _______ _______ _______ _____ _____    ______ ____
ROOT
ATOM      1  C   UNL     1      -0.488  13.262  20.196  0.00  0.00    +0.000 A 
ATOM      2  C   UNL     1      -0.172  12.036  20.760  0.00  0.00    +0.000 A 
ATOM      3  S   UNL     1      -1.064  11.682  22.165  0.00  0.00    +0.000 S 
ATOM      4  C   UNL     1      -1.702  13.253  22.203  0.00  0.00    +0.000 A 
ATOM      5  C   UNL     1      -1.271  14.026  21.140  0.00  0.00    +0.000 A 
ATOM      6  C   UNL     1      -1.747  15.449  20.992  0.00  0.00    +0.000 C 
ATOM      7  C   UNL     1      -2.522  15.911  22.253  0.00  0.00    +0.000 C 
ATOM      8  N   UNL     1      -3.449  14.895  22.821  0.00  0.00    +0.000 NA
ATOM      9  C   UNL     1      -2.655  13.720  23.266  0.00  0.00    +0.000 C 
ENDROOT
BRANCH   1  11
ATOM     10  N   UNL     1      -0.831  13.139  17.814  0.00  0.00    +0.000 N 
ATOM     11  C   UNL     1      -0.155  13.729  18.845  0.00  0.00    +0.000 C 
ATOM     12  O   UNL     1       0.581  14.684  18.618  0.00  0.00    +0.000 OA
ATOM     13  H   UNL     1      -0.636  13.466  16.879  0.00  0.00    +0.000 HD
ATOM     14  H   UNL     1      -1.459  12.365  17.956  0.00  0.00    +0.000 HD
ENDBRANCH   1  11
BRANCH   2  15
ATOM     15  N   UNL     1       0.706  11.026  20.410  0.00  0.00    +0.000 N 
ATOM     16  C   UNL     1       0.325  10.116  19.434  0.00  0.00    +0.000 C 
ATOM     17  O   UNL     1      -0.754  10.134  18.849  0.00  0.00    +0.000 OA
ATOM     18  H   UNL     1       1.686  11.244  20.519  0.00  0.00    +0.000 HD
BRANCH  16  19
ATOM     19  C   UNL     1       1.294   9.035  19.087  0.00  0.00    +0.000 A 
ATOM     20  C   UNL     1       1.485   8.030  20.047  0.00  0.00    +0.000 A 
ATOM     21  C   UNL     1       2.375   6.980  19.821  0.00  0.00    +0.000 A 
ATOM     22  C   UNL     1       3.091   6.906  18.620  0.00  0.00    +0.000 A 
ATOM     23  C   UNL     1       2.902   7.913  17.659  0.00  0.00    +0.000 A 
ATOM     24  C   UNL     1       2.011   8.972  17.886  0.00  0.00    +0.000 A 
BRANCH  22  25
ATOM     25  C   UNL     1       4.035   5.758  18.352  0.00  0.00    +0.000 C 
ATOM     26  F   UNL     1       5.253   6.150  17.882  0.00  0.00    +0.000 F 
ATOM     27  F   UNL     1       4.285   5.021  19.469  0.00  0.00    +0.000 F 
ATOM     28  F   UNL     1       3.544   4.885  17.430  0.00  0.00    +0.000 F 
ENDBRANCH  22  25
ENDBRANCH  16  19
ENDBRANCH   2  15
BRANCH   8  29
ATOM     29  C   UNL     1      -4.481  14.535  21.822  0.00  0.00    +0.000 C 
BRANCH  29  30
ATOM     30  C   UNL     1      -5.677  13.816  22.393  0.00  0.00    +0.000 A 
ATOM     31  C   UNL     1      -6.275  14.244  23.585  0.00  0.00    +0.000 A 
ATOM     32  C   UNL     1      -7.390  13.576  24.095  0.00  0.00    +0.000 A 
ATOM     33  C   UNL     1      -7.916  12.475  23.420  0.00  0.00    +0.000 A 
ATOM     34  C   UNL     1      -7.332  12.040  22.231  0.00  0.00    +0.000 A 
ATOM     35  C   UNL     1      -6.223  12.713  21.730  0.00  0.00    +0.000 A 
ATOM     36  F   UNL     1      -5.675  12.275  20.585  0.00  0.00    +0.000 F 
ENDBRANCH  29  30
ENDBRANCH   8  29
TORSDOF 6
ENDMDL
MODEL 5
REMARK VINA RESULT:      -7.7      3.758     11.760
REMARK  Name = 
REMARK  6 active torsions:
REMARK  status: ('A' for Active; 'I' for Inactive)
REMARK    1  A    between atoms: C_2  and  C_4
REMARK    2  A    between atoms: C_5  and  N_6
REMARK    3  A    between atoms: C_7  and  C_9
REMARK    4  A    between atoms: C_12  and  C_13
REMARK    5  A    between atoms: N_24  and  C_25
REMARK    6  A    between atoms: C_25  and  C_26
REMARK                            x       y       z     vdW  Elec       q    Type
REMARK                         _______ _______ _______ _____ _____    ______ ____
ROOT
ATOM      1  C   UNL     1       2.947   5.348  17.940  0.00  0.00    +0.000 A 
ATOM      2  C   UNL     1       3.057   6.660  18.375  0.00  0.00    +0.000 A 
ATOM      3  S   UNL     1       4.431   7.464  17.776  0.00  0.00    +0.000 S 
ATOM      4  C   UNL     1       5.046   6.018  17.136  0.00  0.00    +0.000 A 
ATOM      5  C   UNL     1       4.200   4.944  17.344  0.00  0.00    +0.000 A 
ATOM      6  C   UNL     1       4.567   3.576  16.829  0.00  0.00    +0.000 C 
ATOM      7  C   UNL     1       6.026   3.550  16.306  0.00  0.00    +0.000 C 
ATOM      8  N   UNL     1       6.426   4.749  15.519  0.00  0.00    +0.000 NA
ATOM      9  C   UNL     1       6.353   5.944  16.400  0.00  0.00    +0.000 C 
ENDROOT
BRANCH   1  11
ATOM     10  N   UNL     1       1.418   4.007  19.233  0.00  0.00    +0.000 N 
ATOM     11  C   UNL     1       1.758   4.491  18.000  0.00  0.00    +0.000 C 
ATOM     12  O   UNL     1       1.006   4.303  17.049  0.00  0.00    +0.000 OA
ATOM     13  H   UNL     1       0.588   3.438  19.300  0.00  0.00    +0.000 HD
ATOM     14  H   UNL     1       1.994   4.153  20.045  0.00  0.00    +0.000 HD
ENDBRANCH   1  11
BRANCH   2  15
ATOM     15  N   UNL     1       2.272   7.463  19.183  0.00  0.00    +0.000 N 
ATOM     16  C   UNL     1       1.716   8.615  18.644  0.00  0.00    +0.000 C 
ATOM     17  O   UNL     1       1.876   8.988  17.485  0.00  0.00    +0.000 OA
ATOM     18  H   UNL     1       1.783   6.986  19.926  0.00  0.00    +0.000 HD
BRANCH  16  19
ATOM     19  C   UNL     1       0.881   9.462  19.547  0.00  0.00    +0.000 A 
ATOM     20  C   UNL     1       0.726   9.010  20.866  0.00  0.00    +0.000 A 
ATOM     21  C   UNL     1      -0.042   9.727  21.785  0.00  0.00    +0.000 A 
ATOM     22  C   UNL     1      -0.667  10.920  21.405  0.00  0.00    +0.000 A 
ATOM     23  C   UNL     1      -0.514  11.372  20.083  0.00  0.00    +0.000 A 
ATOM     24  C   UNL     1       0.253  10.651  19.157  0.00  0.00    +0.000 A 
BRANCH  22  25
ATOM     25  C   UNL     1      -1.476  11.720  22.399  0.00  0.00    +0.000 C 
ATOM     26  F   UNL     1      -1.909  10.989  23.465  0.00  0.00    +0.000 F 
ATOM     27  F   UNL     1      -0.774  12.762  22.920  0.00  0.00    +0.000 F 
ATOM     28  F   UNL     1      -2.594  12.263  21.841  0.00  0.00    +0.000 F 
ENDBRANCH  22  25
ENDBRANCH  16  19
ENDBRANCH   2  15
BRANCH   8  29
ATOM     29  C   UNL     1       5.569   4.877  14.319  0.00  0.00    +0.000 C 
BRANCH  29  30
ATOM     30  C   UNL     1       5.989   4.011  13.159  0.00  0.00    +0.000 A 
ATOM     31  C   UNL     1       5.162   2.982  12.690  0.00  0.00    +0.000 A 
ATOM     32  C   UNL     1       5.559   2.197  11.605  0.00  0.00    +0.000 A 
ATOM     33  C   UNL     1       6.784   2.432  10.981  0.00  0.00    +0.000 A 
ATOM     34  C   UNL     1       7.615   3.454  11.436  0.00  0.00    +0.000 A 
ATOM     35  C   UNL     1       7.211   4.232  12.515  0.00  0.00    +0.000 A 
ATOM     36  F   UNL     1       8.028   5.211  12.938  0.00  0.00    +0.000 F 
ENDBRANCH  29  30
ENDBRANCH   8  29
TORSDOF 6
ENDMDL
MODEL 6
REMARK VINA RESULT:      -7.7      1.599      2.267
REMARK  Name = 
REMARK  6 active torsions:
REMARK  status: ('A' for Active; 'I' for Inactive)
REMARK    1  A    between atoms: C_2  and  C_4
REMARK    2  A    between atoms: C_5  and  N_6
REMARK    3  A    between atoms: C_7  and  C_9
REMARK    4  A    between atoms: C_12  and  C_13
REMARK    5  A    between atoms: N_24  and  C_25
REMARK    6  A    between atoms: C_25  and  C_26
REMARK                            x       y       z     vdW  Elec       q    Type
REMARK                         _______ _______ _______ _____ _____    ______ ____
ROOT
ATOM      1  C   UNL     1      -0.945  10.474  19.437  0.00  0.00    +0.000 A 
ATOM      2  C   UNL     1       0.059   9.718  20.024  0.00  0.00    +0.000 A 
ATOM      3  S   UNL     1       0.433  10.199  21.612  0.00  0.00    +0.000 S 
ATOM      4  C   UNL     1      -0.542  11.579  21.466  0.00  0.00    +0.000 A 
ATOM      5  C   UNL     1      -1.174  11.655  20.238  0.00  0.00    +0.000 A 
ATOM      6  C   UNL     1      -2.100  12.803  19.928  0.00  0.00    +0.000 C 
ATOM      7  C   UNL     1      -2.020  13.895  21.026  0.00  0.00    +0.000 C 
ATOM      8  N   UNL     1      -1.957  13.374  22.418  0.00  0.00    +0.000 NA
ATOM      9  C   UNL     1      -0.712  12.578  22.575  0.00  0.00    +0.000 C 
ENDROOT
BRANCH   1  11
ATOM     10  N   UNL     1      -1.054  10.232  17.042  0.00  0.00    +0.000 N 
ATOM     11  C   UNL     1      -1.717  10.141  18.234  0.00  0.00    +0.000 C 
ATOM     12  O   UNL     1      -2.851   9.675  18.261  0.00  0.00    +0.000 OA
ATOM     13  H   UNL     1      -1.559   9.981  16.205  0.00  0.00    +0.000 HD
ATOM     14  H   UNL     1      -0.116  10.591  16.974  0.00  0.00    +0.000 HD
ENDBRANCH   1  11
BRANCH   2  15
ATOM     15  N   UNL     1       0.810   8.639  19.596  0.00  0.00    +0.000 N 
ATOM     16  C   UNL     1       1.748   8.831  18.591  0.00  0.00    +0.000 C 
ATOM     17  O   UNL     1       1.962   9.906  18.037  0.00  0.00    +0.000 OA
ATOM     18  H   UNL     1       0.976   7.923  20.289  0.00  0.00    +0.000 HD
BRANCH  16  19
ATOM     19  C   UNL     1       2.535   7.643  18.149  0.00  0.00    +0.000 A 
ATOM     20  C   UNL     1       3.705   7.901  17.419  0.00  0.00    +0.000 A 
ATOM     21  C   UNL     1       4.506   6.857  16.954  0.00  0.00    +0.000 A 
ATOM     22  C   UNL     1       4.158   5.527  17.217  0.00  0.00    +0.000 A 
ATOM     23  C   UNL     1       2.984   5.268  17.946  0.00  0.00    +0.000 A 
ATOM     24  C   UNL     1       2.176   6.315  18.410  0.00  0.00    +0.000 A 
BRANCH  22  25
ATOM     25  C   UNL     1       5.032   4.390  16.744  0.00  0.00    +0.000 C 
ATOM     26  F   UNL     1       4.598   3.163  17.146  0.00  0.00    +0.000 F 
ATOM     27  F   UNL     1       5.116   4.331  15.386  0.00  0.00    +0.000 F 
ATOM     28  F   UNL     1       6.314   4.499  17.193  0.00  0.00    +0.000 F 
ENDBRANCH  22  25
ENDBRANCH  16  19
ENDBRANCH   2  15
BRANCH   8  29
ATOM     29  C   UNL     1      -3.174  12.586  22.720  0.00  0.00    +0.000 C 
BRANCH  29  30
ATOM     30  C   UNL     1      -4.438  13.403  22.811  0.00  0.00    +0.000 A 
ATOM     31  C   UNL     1      -4.540  14.479  23.702  0.00  0.00    +0.000 A 
ATOM     32  C   UNL     1      -5.713  15.234  23.765  0.00  0.00    +0.000 A 
ATOM     33  C   UNL     1      -6.793  14.921  22.939  0.00  0.00    +0.000 A 
ATOM     34  C   UNL     1      -6.704  13.856  22.046  0.00  0.00    +0.000 A 
ATOM     35  C   UNL     1      -5.531  13.110  21.989  0.00  0.00    +0.000 A 
ATOM     36  F   UNL     1      -5.467  12.086  21.122  0.00  0.00    +0.000 F 
ENDBRANCH  29  30
ENDBRANCH   8  29
TORSDOF 6
ENDMDL
MODEL 7
REMARK VINA RESULT:      -7.6      1.856      2.425
REMARK  Name = 
REMARK  6 active torsions:
REMARK  status: ('A' for Active; 'I' for Inactive)
REMARK    1  A    between atoms: C_2  and  C_4
REMARK    2  A    between atoms: C_5  and  N_6
REMARK    3  A    between atoms: C_7  and  C_9
REMARK    4  A    between atoms: C_12  and  C_13
REMARK    5  A    between atoms: N_24  and  C_25
REMARK    6  A    between atoms: C_25  and  C_26
REMARK                            x       y       z     vdW  Elec       q    Type
REMARK                         _______ _______ _______ _____ _____    ______ ____
ROOT
ATOM      1  C   UNL     1      -1.029  10.591  19.615  0.00  0.00    +0.000 A 
ATOM      2  C   UNL     1      -0.077   9.855  20.304  0.00  0.00    +0.000 A 
ATOM      3  S   UNL     1       0.145  10.362  21.912  0.00  0.00    +0.000 S 
ATOM      4  C   UNL     1      -0.825  11.729  21.656  0.00  0.00    +0.000 A 
ATOM      5  C   UNL     1      -1.342  11.780  20.374  0.00  0.00    +0.000 A 
ATOM      6  C   UNL     1      -2.247  12.914  19.963  0.00  0.00    +0.000 C 
ATOM      7  C   UNL     1      -2.279  14.022  21.047  0.00  0.00    +0.000 C 
ATOM      8  N   UNL     1      -2.339  13.522  22.447  0.00  0.00    +0.000 NA
ATOM      9  C   UNL     1      -1.106  12.742  22.729  0.00  0.00    +0.000 C 
ENDROOT
BRANCH   1  11
ATOM     10  N   UNL     1      -0.941  10.393  17.215  0.00  0.00    +0.000 N 
ATOM     11  C   UNL     1      -1.684  10.233  18.352  0.00  0.00    +0.000 C 
ATOM     12  O   UNL     1      -2.783   9.691  18.285  0.00  0.00    +0.000 OA
ATOM     13  H   UNL     1      -1.364  10.127  16.339  0.00  0.00    +0.000 HD
ATOM     14  H   UNL     1      -0.027  10.815  17.225  0.00  0.00    +0.000 HD
ENDBRANCH   1  11
BRANCH   2  15
ATOM     15  N   UNL     1       0.722   8.778  19.963  0.00  0.00    +0.000 N 
ATOM     16  C   UNL     1       1.676   8.939  18.969  0.00  0.00    +0.000 C 
ATOM     17  O   UNL     1       1.867   9.983  18.351  0.00  0.00    +0.000 OA
ATOM     18  H   UNL     1       0.895   8.113  20.703  0.00  0.00    +0.000 HD
BRANCH  16  19
ATOM     19  C   UNL     1       2.514   7.754  18.621  0.00  0.00    +0.000 A 
ATOM     20  C   UNL     1       2.424   6.648  19.480  0.00  0.00    +0.000 A 
ATOM     21  C   UNL     1       3.173   5.494  19.246  0.00  0.00    +0.000 A 
ATOM     22  C   UNL     1       4.025   5.417  18.137  0.00  0.00    +0.000 A 
ATOM     23  C   UNL     1       4.117   6.525  17.278  0.00  0.00    +0.000 A 
ATOM     24  C   UNL     1       3.369   7.687  17.515  0.00  0.00    +0.000 A 
BRANCH  22  25
ATOM     25  C   UNL     1       4.819   4.163  17.857  0.00  0.00    +0.000 C 
ATOM     26  F   UNL     1       4.202   3.022  18.274  0.00  0.00    +0.000 F 
ATOM     27  F   UNL     1       5.065   3.991  16.530  0.00  0.00    +0.000 F 
ATOM     28  F   UNL     1       6.037   4.172  18.466  0.00  0.00    +0.000 F 
ENDBRANCH  22  25
ENDBRANCH  16  19
ENDBRANCH   2  15
BRANCH   8  29
ATOM     29  C   UNL     1      -3.571  12.725  22.648  0.00  0.00    +0.000 C 
BRANCH  29  30
ATOM     30  C   UNL     1      -4.840  13.538  22.683  0.00  0.00    +0.000 A 
ATOM     31  C   UNL     1      -5.831  13.372  21.708  0.00  0.00    +0.000 A 
ATOM     32  C   UNL     1      -7.007  14.123  21.762  0.00  0.00    +0.000 A 
ATOM     33  C   UNL     1      -7.202  15.047  22.788  0.00  0.00    +0.000 A 
ATOM     34  C   UNL     1      -6.225  15.221  23.766  0.00  0.00    +0.000 A 
ATOM     35  C   UNL     1      -5.058  14.467  23.706  0.00  0.00    +0.000 A 
ATOM     36  F   UNL     1      -4.128  14.652  24.658  0.00  0.00    +0.000 F 
ENDBRANCH  29  30
ENDBRANCH   8  29
TORSDOF 6
ENDMDL
MODEL 8
REMARK VINA RESULT:      -7.6      3.681     11.706
REMARK  Name = 
REMARK  6 active torsions:
REMARK  status: ('A' for Active; 'I' for Inactive)
REMARK    1  A    between atoms: C_2  and  C_4
REMARK    2  A    between atoms: C_5  and  N_6
REMARK    3  A    between atoms: C_7  and  C_9
REMARK    4  A    between atoms: C_12  and  C_13
REMARK    5  A    between atoms: N_24  and  C_25
REMARK    6  A    between atoms: C_25  and  C_26
REMARK                            x       y       z     vdW  Elec       q    Type
REMARK                         _______ _______ _______ _____ _____    ______ ____
ROOT
ATOM      1  C   UNL     1       2.937   5.278  18.137  0.00  0.00    +0.000 A 
ATOM      2  C   UNL     1       3.065   6.555  18.661  0.00  0.00    +0.000 A 
ATOM      3  S   UNL     1       4.441   7.386  18.105  0.00  0.00    +0.000 S 
ATOM      4  C   UNL     1       5.035   5.983  17.361  0.00  0.00    +0.000 A 
ATOM      5  C   UNL     1       4.180   4.905  17.501  0.00  0.00    +0.000 A 
ATOM      6  C   UNL     1       4.529   3.573  16.888  0.00  0.00    +0.000 C 
ATOM      7  C   UNL     1       5.983   3.570  16.350  0.00  0.00    +0.000 C 
ATOM      8  N   UNL     1       6.388   4.817  15.645  0.00  0.00    +0.000 NA
ATOM      9  C   UNL     1       6.335   5.948  16.608  0.00  0.00    +0.000 C 
ENDROOT
BRANCH   1  11
ATOM     10  N   UNL     1       1.358   3.933  19.363  0.00  0.00    +0.000 N 
ATOM     11  C   UNL     1       1.740   4.430  18.149  0.00  0.00    +0.000 C 
ATOM     12  O   UNL     1       1.017   4.260  17.172  0.00  0.00    +0.000 OA
ATOM     13  H   UNL     1       0.522   3.369  19.397  0.00  0.00    +0.000 HD
ATOM     14  H   UNL     1       1.911   4.063  20.195  0.00  0.00    +0.000 HD
ENDBRANCH   1  11
BRANCH   2  15
ATOM     15  N   UNL     1       2.295   7.307  19.530  0.00  0.00    +0.000 N 
ATOM     16  C   UNL     1       1.639   8.430  19.045  0.00  0.00    +0.000 C 
ATOM     17  O   UNL     1       1.694   8.818  17.881  0.00  0.00    +0.000 OA
ATOM     18  H   UNL     1       1.887   6.798  20.301  0.00  0.00    +0.000 HD
BRANCH  16  19
ATOM     19  C   UNL     1       0.824   9.222  20.012  0.00  0.00    +0.000 A 
ATOM     20  C   UNL     1       0.439  10.508  19.604  0.00  0.00    +0.000 A 
ATOM     21  C   UNL     1      -0.318  11.330  20.440  0.00  0.00    +0.000 A 
ATOM     22  C   UNL     1      -0.716  10.879  21.704  0.00  0.00    +0.000 A 
ATOM     23  C   UNL     1      -0.329   9.592  22.114  0.00  0.00    +0.000 A 
ATOM     24  C   UNL     1       0.435   8.766  21.277  0.00  0.00    +0.000 A 
BRANCH  22  25
ATOM     25  C   UNL     1      -1.560  11.749  22.605  0.00  0.00    +0.000 C 
ATOM     26  F   UNL     1      -2.585  12.372  21.959  0.00  0.00    +0.000 F 
ATOM     27  F   UNL     1      -2.131  11.044  23.619  0.00  0.00    +0.000 F 
ATOM     28  F   UNL     1      -0.837  12.739  23.198  0.00  0.00    +0.000 F 
ENDBRANCH  22  25
ENDBRANCH  16  19
ENDBRANCH   2  15
BRANCH   8  29
ATOM     29  C   UNL     1       5.521   5.037  14.465  0.00  0.00    +0.000 C 
BRANCH  29  30
ATOM     30  C   UNL     1       5.834   4.148  13.289  0.00  0.00    +0.000 A 
ATOM     31  C   UNL     1       4.892   3.229  12.807  0.00  0.00    +0.000 A 
ATOM     32  C   UNL     1       5.192   2.422  11.708  0.00  0.00    +0.000 A 
ATOM     33  C   UNL     1       6.434   2.524  11.081  0.00  0.00    +0.000 A 
ATOM     34  C   UNL     1       7.379   3.436  11.548  0.00  0.00    +0.000 A 
ATOM     35  C   UNL     1       7.071   4.237  12.643  0.00  0.00    +0.000 A 
ATOM     36  F   UNL     1       7.997   5.107  13.078  0.00  0.00    +0.000 F 
ENDBRANCH  29  30
ENDBRANCH   8  29
TORSDOF 6
ENDMDL
MODEL 9
REMARK VINA RESULT:      -7.6      1.070      1.406
REMARK  Name = 
REMARK  6 active torsions:
REMARK  status: ('A' for Active; 'I' for Inactive)
REMARK    1  A    between atoms: C_2  and  C_4
REMARK    2  A    between atoms: C_5  and  N_6
REMARK    3  A    between atoms: C_7  and  C_9
REMARK    4  A    between atoms: C_12  and  C_13
REMARK    5  A    between atoms: N_24  and  C_25
REMARK    6  A    between atoms: C_25  and  C_26
REMARK                            x       y       z     vdW  Elec       q    Type
REMARK                         _______ _______ _______ _____ _____    ______ ____
ROOT
ATOM      1  C   UNL     1       0.168  12.497  21.183  0.00  0.00    +0.000 A 
ATOM      2  C   UNL     1       0.234  11.128  21.388  0.00  0.00    +0.000 A 
ATOM      3  S   UNL     1      -0.959  10.539  22.448  0.00  0.00    +0.000 S 
ATOM      4  C   UNL     1      -1.428  12.116  22.859  0.00  0.00    +0.000 A 
ATOM      5  C   UNL     1      -0.711  13.079  22.172  0.00  0.00    +0.000 A 
ATOM      6  C   UNL     1      -1.000  14.542  22.390  0.00  0.00    +0.000 C 
ATOM      7  C   UNL     1      -1.967  14.748  23.584  0.00  0.00    +0.000 C 
ATOM      8  N   UNL     1      -3.089  13.773  23.651  0.00  0.00    +0.000 NA
ATOM      9  C   UNL     1      -2.527  12.410  23.840  0.00  0.00    +0.000 C 
ENDROOT
BRANCH   1  11
ATOM     10  N   UNL     1       0.227  13.216  18.884  0.00  0.00    +0.000 N 
ATOM     11  C   UNL     1       0.817  13.266  20.115  0.00  0.00    +0.000 C 
ATOM     12  O   UNL     1       1.758  14.031  20.304  0.00  0.00    +0.000 OA
ATOM     13  H   UNL     1       0.642  13.760  18.142  0.00  0.00    +0.000 HD
ATOM     14  H   UNL     1      -0.559  12.617  18.688  0.00  0.00    +0.000 HD
ENDBRANCH   1  11
BRANCH   2  15
ATOM     15  N   UNL     1       1.058  10.131  20.897  0.00  0.00    +0.000 N 
ATOM     16  C   UNL     1       0.837   9.652  19.613  0.00  0.00    +0.000 C 
ATOM     17  O   UNL     1      -0.055  10.047  18.867  0.00  0.00    +0.000 OA
ATOM     18  H   UNL     1       1.998  10.122  21.267  0.00  0.00    +0.000 HD
BRANCH  16  19
ATOM     19  C   UNL     1       1.740   8.572  19.118  0.00  0.00    +0.000 A 
ATOM     20  C   UNL     1       1.922   7.468  19.965  0.00  0.00    +0.000 A 
ATOM     21  C   UNL     1       2.753   6.409  19.597  0.00  0.00    +0.000 A 
ATOM     22  C   UNL     1       3.416   6.427  18.364  0.00  0.00    +0.000 A 
ATOM     23  C   UNL     1       3.236   7.533  17.516  0.00  0.00    +0.000 A 
ATOM     24  C   UNL     1       2.405   8.600  17.887  0.00  0.00    +0.000 A 
BRANCH  22  25
ATOM     25  C   UNL     1       4.295   5.273  17.942  0.00  0.00    +0.000 C 
ATOM     26  F   UNL     1       3.859   4.062  18.389  0.00  0.00    +0.000 F 
ATOM     27  F   UNL     1       4.388   5.160  16.589  0.00  0.00    +0.000 F 
ATOM     28  F   UNL     1       5.573   5.400  18.396  0.00  0.00    +0.000 F 
ENDBRANCH  22  25
ENDBRANCH  16  19
ENDBRANCH   2  15
BRANCH   8  29
ATOM     29  C   UNL     1      -3.924  13.877  22.433  0.00  0.00    +0.000 C 
BRANCH  29  30
ATOM     30  C   UNL     1      -5.291  13.253  22.561  0.00  0.00    +0.000 A 
ATOM     31  C   UNL     1      -6.034  13.377  23.742  0.00  0.00    +0.000 A 
ATOM     32  C   UNL     1      -7.304  12.804  23.840  0.00  0.00    +0.000 A 
ATOM     33  C   UNL     1      -7.843  12.105  22.760  0.00  0.00    +0.000 A 
ATOM     34  C   UNL     1      -7.116  11.977  21.578  0.00  0.00    +0.000 A 
ATOM     35  C   UNL     1      -5.852  12.551  21.489  0.00  0.00    +0.000 A 
ATOM     36  F   UNL     1      -5.168  12.414  20.341  0.00  0.00    +0.000 F 
ENDBRANCH  29  30
ENDBRANCH   8  29
TORSDOF 6
ENDMDL
