MODEL 1
REMARK VINA RESULT:      -7.2      0.000      0.000
REMARK  Name = 
REMARK  10 active torsions:
REMARK  status: ('A' for Active; 'I' for Inactive)
REMARK    1  A    between atoms: C_1  and  O_2
REMARK    2  A    between atoms: O_2  and  C_3
REMARK    3  A    between atoms: C_7  and  O_8
REMARK    4  A    between atoms: O_8  and  C_9
REMARK    5  A    between atoms: C_10  and  C_11
REMARK    6  A    between atoms: N_13  and  C_14
REMARK    7  A    between atoms: C_14  and  C_15
REMARK    8  A    between atoms: C_14  and  C_16
REMARK    9  A    between atoms: C_16  and  C_17
REMARK   10  A    between atoms: C_17  and  C_18
REMARK                            x       y       z     vdW  Elec       q    Type
REMARK                         _______ _______ _______ _____ _____    ______ ____
ROOT
ATOM      1  C   UNL     1       4.245   5.684  18.367  0.00  0.00    +0.000 C 
ATOM      2  O   UNL     1       4.169   6.715  17.714  0.00  0.00    +0.000 OA
ATOM      3  N   UNL     1       5.483   5.081  18.457  0.00  0.00    +0.000 N 
ATOM      4  H   UNL     1       5.588   4.270  19.058  0.00  0.00    +0.000 HD
ENDROOT
BRANCH   1  10
ATOM      5  C   UNL     1       2.644   3.721  18.743  0.00  0.00    +0.000 A 
ATOM      6  C   UNL     1       1.507   3.139  19.337  0.00  0.00    +0.000 A 
ATOM      7  C   UNL     1       0.768   3.829  20.278  0.00  0.00    +0.000 A 
ATOM      8  C   UNL     1       1.154   5.111  20.619  0.00  0.00    +0.000 A 
ATOM      9  C   UNL     1       2.270   5.756  20.035  0.00  0.00    +0.000 A 
ATOM     10  C   UNL     1       3.043   5.063  19.063  0.00  0.00    +0.000 A 
BRANCH   5  12
ATOM     11  C   UNL     1       3.691   1.652  18.140  0.00  0.00    +0.000 C 
ATOM     12  O   UNL     1       3.365   3.004  17.806  0.00  0.00    +0.000 OA
ENDBRANCH   5  12
BRANCH   9  13
ATOM     13  O   UNL     1       2.324   6.994  20.608  0.00  0.00    +0.000 OA
ATOM     14  C   UNL     1       1.559   8.119  20.238  0.00  0.00    +0.000 C 
ENDBRANCH   9  13
ENDBRANCH   1  10
BRANCH   3  15
ATOM     15  C   UNL     1       6.649   5.668  17.803  0.00  0.00    +0.000 C 
ATOM     16  C   UNL     1       7.716   6.044  18.830  0.00  0.00    +0.000 C 
BRANCH  15  17
ATOM     17  C   UNL     1       7.228   4.735  16.742  0.00  0.00    +0.000 C 
BRANCH  17  18
ATOM     18  C   UNL     1       6.137   4.124  15.858  0.00  0.00    +0.000 C 
BRANCH  18  19
ATOM     19  C   UNL     1       6.562   4.191  14.415  0.00  0.00    +0.000 A 
ATOM     20  C   UNL     1       7.537   5.111  14.012  0.00  0.00    +0.000 A 
ATOM     21  C   UNL     1       7.861   5.250  12.663  0.00  0.00    +0.000 A 
ATOM     22  C   UNL     1       7.211   4.468  11.709  0.00  0.00    +0.000 A 
ATOM     23  C   UNL     1       6.246   3.541  12.103  0.00  0.00    +0.000 A 
ATOM     24  C   UNL     1       5.922   3.402  13.451  0.00  0.00    +0.000 A 
ENDBRANCH  18  19
ENDBRANCH  17  18
ENDBRANCH  15  17
ENDBRANCH   3  15
TORSDOF 7
ENDMDL
MODEL 2
REMARK VINA RESULT:      -7.2      0.583      2.933
REMARK  Name = 
REMARK  10 active torsions:
REMARK  status: ('A' for Active; 'I' for Inactive)
REMARK    1  A    between atoms: C_1  and  O_2
REMARK    2  A    between atoms: O_2  and  C_3
REMARK    3  A    between atoms: C_7  and  O_8
REMARK    4  A    between atoms: O_8  and  C_9
REMARK    5  A    between atoms: C_10  and  C_11
REMARK    6  A    between atoms: N_13  and  C_14
REMARK    7  A    between atoms: C_14  and  C_15
REMARK    8  A    between atoms: C_14  and  C_16
REMARK    9  A    between atoms: C_16  and  C_17
REMARK   10  A    between atoms: C_17  and  C_18
REMARK                            x       y       z     vdW  Elec       q    Type
REMARK                         _______ _______ _______ _____ _____    ______ ____
ROOT
ATOM      1  C   UNL     1       4.440   5.493  18.645  0.00  0.00    +0.000 C 
ATOM      2  O   UNL     1       4.299   6.532  18.016  0.00  0.00    +0.000 OA
ATOM      3  N   UNL     1       5.700   4.932  18.669  0.00  0.00    +0.000 N 
ATOM      4  H   UNL     1       5.859   4.115  19.250  0.00  0.00    +0.000 HD
ENDROOT
BRANCH   1  10
ATOM      5  C   UNL     1       2.229   5.616  19.931  0.00  0.00    +0.000 A 
ATOM      6  C   UNL     1       1.179   5.023  20.659  0.00  0.00    +0.000 A 
ATOM      7  C   UNL     1       1.118   3.654  20.830  0.00  0.00    +0.000 A 
ATOM      8  C   UNL     1       2.118   2.870  20.283  0.00  0.00    +0.000 A 
ATOM      9  C   UNL     1       3.210   3.412  19.567  0.00  0.00    +0.000 A 
ATOM     10  C   UNL     1       3.292   4.820  19.383  0.00  0.00    +0.000 A 
BRANCH   5  12
ATOM     11  C   UNL     1       1.602   7.766  20.782  0.00  0.00    +0.000 C 
ATOM     12  O   UNL     1       2.260   6.989  19.777  0.00  0.00    +0.000 OA
ENDBRANCH   5  12
BRANCH   9  13
ATOM     13  O   UNL     1       3.980   2.344  19.202  0.00  0.00    +0.000 OA
ATOM     14  C   UNL     1       3.664   1.386  18.219  0.00  0.00    +0.000 C 
ENDBRANCH   9  13
ENDBRANCH   1  10
BRANCH   3  15
ATOM     15  C   UNL     1       6.815   5.569  17.974  0.00  0.00    +0.000 C 
ATOM     16  C   UNL     1       7.941   5.908  18.951  0.00  0.00    +0.000 C 
BRANCH  15  17
ATOM     17  C   UNL     1       7.336   4.701  16.831  0.00  0.00    +0.000 C 
BRANCH  17  18
ATOM     18  C   UNL     1       6.198   4.109  15.996  0.00  0.00    +0.000 C 
BRANCH  18  19
ATOM     19  C   UNL     1       6.512   4.271  14.532  0.00  0.00    +0.000 A 
ATOM     20  C   UNL     1       5.885   3.452  13.584  0.00  0.00    +0.000 A 
ATOM     21  C   UNL     1       6.247   3.526  12.240  0.00  0.00    +0.000 A 
ATOM     22  C   UNL     1       7.238   4.419  11.836  0.00  0.00    +0.000 A 
ATOM     23  C   UNL     1       7.859   5.246  12.771  0.00  0.00    +0.000 A 
ATOM     24  C   UNL     1       7.498   5.174  14.115  0.00  0.00    +0.000 A 
ENDBRANCH  18  19
ENDBRANCH  17  18
ENDBRANCH  15  17
ENDBRANCH   3  15
TORSDOF 7
ENDMDL
MODEL 3
REMARK VINA RESULT:      -7.1      0.704      1.224
REMARK  Name = 
REMARK  10 active torsions:
REMARK  status: ('A' for Active; 'I' for Inactive)
REMARK    1  A    between atoms: C_1  and  O_2
REMARK    2  A    between atoms: O_2  and  C_3
REMARK    3  A    between atoms: C_7  and  O_8
REMARK    4  A    between atoms: O_8  and  C_9
REMARK    5  A    between atoms: C_10  and  C_11
REMARK    6  A    between atoms: N_13  and  C_14
REMARK    7  A    between atoms: C_14  and  C_15
REMARK    8  A    between atoms: C_14  and  C_16
REMARK    9  A    between atoms: C_16  and  C_17
REMARK   10  A    between atoms: C_17  and  C_18
REMARK                            x       y       z     vdW  Elec       q    Type
REMARK                         _______ _______ _______ _____ _____    ______ ____
ROOT
ATOM      1  C   UNL     1       4.378   6.118  18.084  0.00  0.00    +0.000 C 
ATOM      2  O   UNL     1       4.128   6.909  17.185  0.00  0.00    +0.000 OA
ATOM      3  N   UNL     1       5.697   5.749  18.254  0.00  0.00    +0.000 N 
ATOM      4  H   UNL     1       5.940   5.158  19.042  0.00  0.00    +0.000 HD
ENDROOT
BRANCH   1  10
ATOM      5  C   UNL     1       3.154   4.123  19.121  0.00  0.00    +0.000 A 
ATOM      6  C   UNL     1       2.137   3.566  19.921  0.00  0.00    +0.000 A 
ATOM      7  C   UNL     1       1.279   4.374  20.641  0.00  0.00    +0.000 A 
ATOM      8  C   UNL     1       1.426   5.746  20.553  0.00  0.00    +0.000 A 
ATOM      9  C   UNL     1       2.411   6.361  19.746  0.00  0.00    +0.000 A 
ATOM     10  C   UNL     1       3.303   5.546  18.995  0.00  0.00    +0.000 A 
BRANCH   5  12
ATOM     11  C   UNL     1       3.455   2.035  17.986  0.00  0.00    +0.000 C 
ATOM     12  O   UNL     1       3.998   3.287  18.414  0.00  0.00    +0.000 OA
ENDBRANCH   5  12
BRANCH   9  13
ATOM     13  O   UNL     1       2.237   7.706  19.909  0.00  0.00    +0.000 OA
ATOM     14  C   UNL     1       1.723   8.603  18.951  0.00  0.00    +0.000 C 
ENDBRANCH   9  13
ENDBRANCH   1  10
BRANCH   3  15
ATOM     15  C   UNL     1       6.742   6.296  17.394  0.00  0.00    +0.000 C 
ATOM     16  C   UNL     1       7.774   7.066  18.217  0.00  0.00    +0.000 C 
BRANCH  15  17
ATOM     17  C   UNL     1       7.418   5.205  16.567  0.00  0.00    +0.000 C 
BRANCH  17  18
ATOM     18  C   UNL     1       6.401   4.253  15.932  0.00  0.00    +0.000 C 
BRANCH  18  19
ATOM     19  C   UNL     1       6.549   4.286  14.433  0.00  0.00    +0.000 A 
ATOM     20  C   UNL     1       5.796   3.416  13.634  0.00  0.00    +0.000 A 
ATOM     21  C   UNL     1       6.003   3.369  12.256  0.00  0.00    +0.000 A 
ATOM     22  C   UNL     1       6.963   4.192  11.670  0.00  0.00    +0.000 A 
ATOM     23  C   UNL     1       7.709   5.069  12.457  0.00  0.00    +0.000 A 
ATOM     24  C   UNL     1       7.503   5.117  13.834  0.00  0.00    +0.000 A 
ENDBRANCH  18  19
ENDBRANCH  17  18
ENDBRANCH  15  17
ENDBRANCH   3  15
TORSDOF 7
ENDMDL
MODEL 4
REMARK VINA RESULT:      -6.8      0.642      1.191
REMARK  Name = 
REMARK  10 active torsions:
REMARK  status: ('A' for Active; 'I' for Inactive)
REMARK    1  A    between atoms: C_1  and  O_2
REMARK    2  A    between atoms: O_2  and  C_3
REMARK    3  A    between atoms: C_7  and  O_8
REMARK    4  A    between atoms: O_8  and  C_9
REMARK    5  A    between atoms: C_10  and  C_11
REMARK    6  A    between atoms: N_13  and  C_14
REMARK    7  A    between atoms: C_14  and  C_15
REMARK    8  A    between atoms: C_14  and  C_16
REMARK    9  A    between atoms: C_16  and  C_17
REMARK   10  A    between atoms: C_17  and  C_18
REMARK                            x       y       z     vdW  Elec       q    Type
REMARK                         _______ _______ _______ _____ _____    ______ ____
ROOT
ATOM      1  C   UNL     1       4.206   5.233  18.349  0.00  0.00    +0.000 C 
ATOM      2  O   UNL     1       4.110   6.103  17.495  0.00  0.00    +0.000 OA
ATOM      3  N   UNL     1       5.478   4.834  18.706  0.00  0.00    +0.000 N 
ATOM      4  H   UNL     1       5.585   4.172  19.469  0.00  0.00    +0.000 HD
ENDROOT
BRANCH   1  10
ATOM      5  C   UNL     1       2.575   3.279  18.624  0.00  0.00    +0.000 A 
ATOM      6  C   UNL     1       1.428   2.685  19.186  0.00  0.00    +0.000 A 
ATOM      7  C   UNL     1       0.696   3.337  20.159  0.00  0.00    +0.000 A 
ATOM      8  C   UNL     1       1.102   4.596  20.564  0.00  0.00    +0.000 A 
ATOM      9  C   UNL     1       2.228   5.252  20.015  0.00  0.00    +0.000 A 
ATOM     10  C   UNL     1       2.993   4.597  19.011  0.00  0.00    +0.000 A 
BRANCH   5  12
ATOM     11  C   UNL     1       3.912   1.375  18.051  0.00  0.00    +0.000 C 
ATOM     12  O   UNL     1       3.287   2.598  17.653  0.00  0.00    +0.000 OA
ENDBRANCH   5  12
BRANCH   9  13
ATOM     13  O   UNL     1       2.299   6.459  20.650  0.00  0.00    +0.000 OA
ATOM     14  C   UNL     1       1.386   7.525  20.519  0.00  0.00    +0.000 C 
ENDBRANCH   9  13
ENDBRANCH   1  10
BRANCH   3  15
ATOM     15  C   UNL     1       6.653   5.440  18.087  0.00  0.00    +0.000 C 
ATOM     16  C   UNL     1       7.810   5.520  19.082  0.00  0.00    +0.000 C 
BRANCH  15  17
ATOM     17  C   UNL     1       7.076   4.689  16.827  0.00  0.00    +0.000 C 
BRANCH  17  18
ATOM     18  C   UNL     1       7.216   5.622  15.621  0.00  0.00    +0.000 C 
BRANCH  18  19
ATOM     19  C   UNL     1       6.736   4.917  14.381  0.00  0.00    +0.000 A 
ATOM     20  C   UNL     1       5.484   4.289  14.370  0.00  0.00    +0.000 A 
ATOM     21  C   UNL     1       5.078   3.547  13.261  0.00  0.00    +0.000 A 
ATOM     22  C   UNL     1       5.921   3.430  12.157  0.00  0.00    +0.000 A 
ATOM     23  C   UNL     1       7.164   4.062  12.155  0.00  0.00    +0.000 A 
ATOM     24  C   UNL     1       7.571   4.804  13.263  0.00  0.00    +0.000 A 
ENDBRANCH  18  19
ENDBRANCH  17  18
ENDBRANCH  15  17
ENDBRANCH   3  15
TORSDOF 7
ENDMDL
MODEL 5
REMARK VINA RESULT:      -6.8      0.797      2.872
REMARK  Name = 
REMARK  10 active torsions:
REMARK  status: ('A' for Active; 'I' for Inactive)
REMARK    1  A    between atoms: C_1  and  O_2
REMARK    2  A    between atoms: O_2  and  C_3
REMARK    3  A    between atoms: C_7  and  O_8
REMARK    4  A    between atoms: O_8  and  C_9
REMARK    5  A    between atoms: C_10  and  C_11
REMARK    6  A    between atoms: N_13  and  C_14
REMARK    7  A    between atoms: C_14  and  C_15
REMARK    8  A    between atoms: C_14  and  C_16
REMARK    9  A    between atoms: C_16  and  C_17
REMARK   10  A    between atoms: C_17  and  C_18
REMARK                            x       y       z     vdW  Elec       q    Type
REMARK                         _______ _______ _______ _____ _____    ______ ____
ROOT
ATOM      1  C   UNL     1       4.456   5.259  18.646  0.00  0.00    +0.000 C 
ATOM      2  O   UNL     1       4.277   5.967  17.665  0.00  0.00    +0.000 OA
ATOM      3  N   UNL     1       5.761   5.036  19.036  0.00  0.00    +0.000 N 
ATOM      4  H   UNL     1       5.932   4.518  19.893  0.00  0.00    +0.000 HD
ENDROOT
BRANCH   1  10
ATOM      5  C   UNL     1       2.297   5.471  20.005  0.00  0.00    +0.000 A 
ATOM      6  C   UNL     1       1.251   4.923  20.773  0.00  0.00    +0.000 A 
ATOM      7  C   UNL     1       1.144   3.558  20.953  0.00  0.00    +0.000 A 
ATOM      8  C   UNL     1       2.094   2.734  20.378  0.00  0.00    +0.000 A 
ATOM      9  C   UNL     1       3.182   3.231  19.622  0.00  0.00    +0.000 A 
ATOM     10  C   UNL     1       3.310   4.633  19.426  0.00  0.00    +0.000 A 
BRANCH   5  12
ATOM     11  C   UNL     1       1.515   7.639  20.661  0.00  0.00    +0.000 C 
ATOM     12  O   UNL     1       2.374   6.842  19.842  0.00  0.00    +0.000 OA
ENDBRANCH   5  12
BRANCH   9  13
ATOM     13  O   UNL     1       3.897   2.133  19.237  0.00  0.00    +0.000 OA
ATOM     14  C   UNL     1       3.688   1.366  18.073  0.00  0.00    +0.000 C 
ENDBRANCH   9  13
ENDBRANCH   1  10
BRANCH   3  15
ATOM     15  C   UNL     1       6.873   5.635  18.304  0.00  0.00    +0.000 C 
ATOM     16  C   UNL     1       8.098   5.784  19.204  0.00  0.00    +0.000 C 
BRANCH  15  17
ATOM     17  C   UNL     1       7.219   4.834  17.051  0.00  0.00    +0.000 C 
BRANCH  17  18
ATOM     18  C   UNL     1       7.289   5.719  15.804  0.00  0.00    +0.000 C 
BRANCH  18  19
ATOM     19  C   UNL     1       6.919   4.909  14.590  0.00  0.00    +0.000 A 
ATOM     20  C   UNL     1       7.671   5.021  13.414  0.00  0.00    +0.000 A 
ATOM     21  C   UNL     1       7.273   4.354  12.257  0.00  0.00    +0.000 A 
ATOM     22  C   UNL     1       6.121   3.569  12.269  0.00  0.00    +0.000 A 
ATOM     23  C   UNL     1       5.373   3.442  13.439  0.00  0.00    +0.000 A 
ATOM     24  C   UNL     1       5.769   4.109  14.596  0.00  0.00    +0.000 A 
ENDBRANCH  18  19
ENDBRANCH  17  18
ENDBRANCH  15  17
ENDBRANCH   3  15
TORSDOF 7
ENDMDL
MODEL 6
REMARK VINA RESULT:      -6.7      0.804      2.821
REMARK  Name = 
REMARK  10 active torsions:
REMARK  status: ('A' for Active; 'I' for Inactive)
REMARK    1  A    between atoms: C_1  and  O_2
REMARK    2  A    between atoms: O_2  and  C_3
REMARK    3  A    between atoms: C_7  and  O_8
REMARK    4  A    between atoms: O_8  and  C_9
REMARK    5  A    between atoms: C_10  and  C_11
REMARK    6  A    between atoms: N_13  and  C_14
REMARK    7  A    between atoms: C_14  and  C_15
REMARK    8  A    between atoms: C_14  and  C_16
REMARK    9  A    between atoms: C_16  and  C_17
REMARK   10  A    between atoms: C_17  and  C_18
REMARK                            x       y       z     vdW  Elec       q    Type
REMARK                         _______ _______ _______ _____ _____    ______ ____
ROOT
ATOM      1  C   UNL     1       4.281   6.198  18.170  0.00  0.00    +0.000 C 
ATOM      2  O   UNL     1       3.903   7.071  17.401  0.00  0.00    +0.000 OA
ATOM      3  N   UNL     1       5.624   5.883  18.160  0.00  0.00    +0.000 N 
ATOM      4  H   UNL     1       5.975   5.220  18.844  0.00  0.00    +0.000 HD
ENDROOT
BRANCH   1  10
ATOM      5  C   UNL     1       2.365   6.213  19.868  0.00  0.00    +0.000 A 
ATOM      6  C   UNL     1       1.508   5.570  20.783  0.00  0.00    +0.000 A 
ATOM      7  C   UNL     1       1.547   4.200  20.948  0.00  0.00    +0.000 A 
ATOM      8  C   UNL     1       2.455   3.466  20.207  0.00  0.00    +0.000 A 
ATOM      9  C   UNL     1       3.358   4.060  19.295  0.00  0.00    +0.000 A 
ATOM     10  C   UNL     1       3.334   5.470  19.112  0.00  0.00    +0.000 A 
BRANCH   5  12
ATOM     11  C   UNL     1       1.473   8.293  20.654  0.00  0.00    +0.000 C 
ATOM     12  O   UNL     1       2.299   7.587  19.725  0.00  0.00    +0.000 OA
ENDBRANCH   5  12
BRANCH   9  13
ATOM     13  O   UNL     1       4.089   3.031  18.774  0.00  0.00    +0.000 OA
ATOM     14  C   UNL     1       3.655   2.107  17.803  0.00  0.00    +0.000 C 
ENDBRANCH   9  13
ENDBRANCH   1  10
BRANCH   3  15
ATOM     15  C   UNL     1       6.548   6.578  17.267  0.00  0.00    +0.000 C 
ATOM     16  C   UNL     1       7.558   7.400  18.066  0.00  0.00    +0.000 C 
BRANCH  15  17
ATOM     17  C   UNL     1       7.263   5.608  16.331  0.00  0.00    +0.000 C 
BRANCH  17  18
ATOM     18  C   UNL     1       6.325   4.514  15.811  0.00  0.00    +0.000 C 
BRANCH  18  19
ATOM     19  C   UNL     1       6.558   4.309  14.338  0.00  0.00    +0.000 A 
ATOM     20  C   UNL     1       7.533   5.060  13.670  0.00  0.00    +0.000 A 
ATOM     21  C   UNL     1       7.683   4.949  12.288  0.00  0.00    +0.000 A 
ATOM     22  C   UNL     1       6.859   4.087  11.567  0.00  0.00    +0.000 A 
ATOM     23  C   UNL     1       5.893   3.327  12.226  0.00  0.00    +0.000 A 
ATOM     24  C   UNL     1       5.742   3.437  13.607  0.00  0.00    +0.000 A 
ENDBRANCH  18  19
ENDBRANCH  17  18
ENDBRANCH  15  17
ENDBRANCH   3  15
TORSDOF 7
ENDMDL
MODEL 7
REMARK VINA RESULT:      -6.7      1.089      2.802
REMARK  Name = 
REMARK  10 active torsions:
REMARK  status: ('A' for Active; 'I' for Inactive)
REMARK    1  A    between atoms: C_1  and  O_2
REMARK    2  A    between atoms: O_2  and  C_3
REMARK    3  A    between atoms: C_7  and  O_8
REMARK    4  A    between atoms: O_8  and  C_9
REMARK    5  A    between atoms: C_10  and  C_11
REMARK    6  A    between atoms: N_13  and  C_14
REMARK    7  A    between atoms: C_14  and  C_15
REMARK    8  A    between atoms: C_14  and  C_16
REMARK    9  A    between atoms: C_16  and  C_17
REMARK   10  A    between atoms: C_17  and  C_18
REMARK                            x       y       z     vdW  Elec       q    Type
REMARK                         _______ _______ _______ _____ _____    ______ ____
ROOT
ATOM      1  C   UNL     1       4.940   4.714  18.970  0.00  0.00    +0.000 C 
ATOM      2  O   UNL     1       5.943   4.178  19.421  0.00  0.00    +0.000 OA
ATOM      3  N   UNL     1       5.110   5.600  17.926  0.00  0.00    +0.000 N 
ATOM      4  H   UNL     1       4.287   5.995  17.483  0.00  0.00    +0.000 HD
ENDROOT
BRANCH   1  10
ATOM      5  C   UNL     1       2.672   5.529  19.834  0.00  0.00    +0.000 A 
ATOM      6  C   UNL     1       1.395   5.302  20.385  0.00  0.00    +0.000 A 
ATOM      7  C   UNL     1       0.932   4.018  20.594  0.00  0.00    +0.000 A 
ATOM      8  C   UNL     1       1.750   2.953  20.266  0.00  0.00    +0.000 A 
ATOM      9  C   UNL     1       3.051   3.122  19.737  0.00  0.00    +0.000 A 
ATOM     10  C   UNL     1       3.547   4.436  19.516  0.00  0.00    +0.000 A 
BRANCH   5  12
ATOM     11  C   UNL     1       2.360   7.621  18.708  0.00  0.00    +0.000 C 
ATOM     12  O   UNL     1       3.106   6.827  19.635  0.00  0.00    +0.000 OA
ENDBRANCH   5  12
BRANCH   9  13
ATOM     13  O   UNL     1       3.544   1.860  19.556  0.00  0.00    +0.000 OA
ATOM     14  C   UNL     1       3.853   1.254  18.322  0.00  0.00    +0.000 C 
ENDBRANCH   9  13
ENDBRANCH   1  10
BRANCH   3  15
ATOM     15  C   UNL     1       6.439   5.871  17.385  0.00  0.00    +0.000 C 
ATOM     16  C   UNL     1       7.396   6.311  18.493  0.00  0.00    +0.000 C 
BRANCH  15  17
ATOM     17  C   UNL     1       6.999   4.663  16.638  0.00  0.00    +0.000 C 
BRANCH  17  18
ATOM     18  C   UNL     1       5.962   4.035  15.703  0.00  0.00    +0.000 C 
BRANCH  18  19
ATOM     19  C   UNL     1       6.451   4.117  14.281  0.00  0.00    +0.000 A 
ATOM     20  C   UNL     1       7.408   5.074  13.921  0.00  0.00    +0.000 A 
ATOM     21  C   UNL     1       7.787   5.223  12.588  0.00  0.00    +0.000 A 
ATOM     22  C   UNL     1       7.213   4.416  11.608  0.00  0.00    +0.000 A 
ATOM     23  C   UNL     1       6.267   3.453  11.959  0.00  0.00    +0.000 A 
ATOM     24  C   UNL     1       5.887   3.303  13.291  0.00  0.00    +0.000 A 
ENDBRANCH  18  19
ENDBRANCH  17  18
ENDBRANCH  15  17
ENDBRANCH   3  15
TORSDOF 7
ENDMDL
MODEL 8
REMARK VINA RESULT:      -6.7      1.023      1.023
REMARK  Name = 
REMARK  10 active torsions:
REMARK  status: ('A' for Active; 'I' for Inactive)
REMARK    1  A    between atoms: C_1  and  O_2
REMARK    2  A    between atoms: O_2  and  C_3
REMARK    3  A    between atoms: C_7  and  O_8
REMARK    4  A    between atoms: O_8  and  C_9
REMARK    5  A    between atoms: C_10  and  C_11
REMARK    6  A    between atoms: N_13  and  C_14
REMARK    7  A    between atoms: C_14  and  C_15
REMARK    8  A    between atoms: C_14  and  C_16
REMARK    9  A    between atoms: C_16  and  C_17
REMARK   10  A    between atoms: C_17  and  C_18
REMARK                            x       y       z     vdW  Elec       q    Type
REMARK                         _______ _______ _______ _____ _____    ______ ____
ROOT
ATOM      1  C   UNL     1       4.999   4.961  18.934  0.00  0.00    +0.000 C 
ATOM      2  O   UNL     1       6.033   4.463  19.356  0.00  0.00    +0.000 OA
ATOM      3  N   UNL     1       5.103   5.825  17.863  0.00  0.00    +0.000 N 
ATOM      4  H   UNL     1       4.252   6.187  17.444  0.00  0.00    +0.000 HD
ENDROOT
BRANCH   1  10
ATOM      5  C   UNL     1       3.238   3.301  19.770  0.00  0.00    +0.000 A 
ATOM      6  C   UNL     1       1.965   2.993  20.288  0.00  0.00    +0.000 A 
ATOM      7  C   UNL     1       1.079   3.995  20.633  0.00  0.00    +0.000 A 
ATOM      8  C   UNL     1       1.458   5.312  20.448  0.00  0.00    +0.000 A 
ATOM      9  C   UNL     1       2.712   5.679  19.906  0.00  0.00    +0.000 A 
ATOM     10  C   UNL     1       3.637   4.662  19.543  0.00  0.00    +0.000 A 
BRANCH   5  12
ATOM     11  C   UNL     1       3.692   1.403  18.379  0.00  0.00    +0.000 C 
ATOM     12  O   UNL     1       4.103   2.275  19.436  0.00  0.00    +0.000 OA
ENDBRANCH   5  12
BRANCH   9  13
ATOM     13  O   UNL     1       2.713   7.044  19.867  0.00  0.00    +0.000 OA
ATOM     14  C   UNL     1       1.700   7.893  20.355  0.00  0.00    +0.000 C 
ENDBRANCH   9  13
ENDBRANCH   1  10
BRANCH   3  15
ATOM     15  C   UNL     1       6.401   6.116  17.261  0.00  0.00    +0.000 C 
ATOM     16  C   UNL     1       7.356   6.714  18.294  0.00  0.00    +0.000 C 
BRANCH  15  17
ATOM     17  C   UNL     1       7.014   4.874  16.617  0.00  0.00    +0.000 C 
BRANCH  17  18
ATOM     18  C   UNL     1       6.015   4.143  15.716  0.00  0.00    +0.000 C 
BRANCH  18  19
ATOM     19  C   UNL     1       6.499   4.186  14.291  0.00  0.00    +0.000 A 
ATOM     20  C   UNL     1       7.490   5.100  13.912  0.00  0.00    +0.000 A 
ATOM     21  C   UNL     1       7.867   5.215  12.575  0.00  0.00    +0.000 A 
ATOM     22  C   UNL     1       7.257   4.417  11.609  0.00  0.00    +0.000 A 
ATOM     23  C   UNL     1       6.277   3.496  11.979  0.00  0.00    +0.000 A 
ATOM     24  C   UNL     1       5.899   3.379  13.315  0.00  0.00    +0.000 A 
ENDBRANCH  18  19
ENDBRANCH  17  18
ENDBRANCH  15  17
ENDBRANCH   3  15
TORSDOF 7
ENDMDL
MODEL 9
REMARK VINA RESULT:      -6.6      0.944      1.476
REMARK  Name = 
REMARK  10 active torsions:
REMARK  status: ('A' for Active; 'I' for Inactive)
REMARK    1  A    between atoms: C_1  and  O_2
REMARK    2  A    between atoms: O_2  and  C_3
REMARK    3  A    between atoms: C_7  and  O_8
REMARK    4  A    between atoms: O_8  and  C_9
REMARK    5  A    between atoms: C_10  and  C_11
REMARK    6  A    between atoms: N_13  and  C_14
REMARK    7  A    between atoms: C_14  and  C_15
REMARK    8  A    between atoms: C_14  and  C_16
REMARK    9  A    between atoms: C_16  and  C_17
REMARK   10  A    between atoms: C_17  and  C_18
REMARK                            x       y       z     vdW  Elec       q    Type
REMARK                         _______ _______ _______ _____ _____    ______ ____
ROOT
ATOM      1  C   UNL     1       3.938   5.694  17.637  0.00  0.00    +0.000 C 
ATOM      2  O   UNL     1       3.769   6.758  17.058  0.00  0.00    +0.000 OA
ATOM      3  N   UNL     1       5.098   5.000  17.362  0.00  0.00    +0.000 N 
ATOM      4  H   UNL     1       5.298   4.155  17.889  0.00  0.00    +0.000 HD
ENDROOT
BRANCH   1  10
ATOM      5  C   UNL     1       2.537   3.751  18.542  0.00  0.00    +0.000 A 
ATOM      6  C   UNL     1       1.569   3.216  19.415  0.00  0.00    +0.000 A 
ATOM      7  C   UNL     1       1.002   3.992  20.406  0.00  0.00    +0.000 A 
ATOM      8  C   UNL     1       1.390   5.314  20.521  0.00  0.00    +0.000 A 
ATOM      9  C   UNL     1       2.335   5.912  19.655  0.00  0.00    +0.000 A 
ATOM     10  C   UNL     1       2.929   5.130  18.627  0.00  0.00    +0.000 A 
BRANCH   5  12
ATOM     11  C   UNL     1       3.654   1.706  17.988  0.00  0.00    +0.000 C 
ATOM     12  O   UNL     1       3.087   2.948  17.561  0.00  0.00    +0.000 OA
ENDBRANCH   5  12
BRANCH   9  13
ATOM     13  O   UNL     1       2.445   7.210  20.068  0.00  0.00    +0.000 OA
ATOM     14  C   UNL     1       1.831   8.330  19.472  0.00  0.00    +0.000 C 
ENDBRANCH   9  13
ENDBRANCH   1  10
BRANCH   3  15
ATOM     15  C   UNL     1       6.081   5.531  16.421  0.00  0.00    +0.000 C 
ATOM     16  C   UNL     1       7.152   6.338  17.154  0.00  0.00    +0.000 C 
BRANCH  15  17
ATOM     17  C   UNL     1       6.719   4.421  15.588  0.00  0.00    +0.000 C 
BRANCH  17  18
ATOM     18  C   UNL     1       7.033   4.883  14.162  0.00  0.00    +0.000 C 
BRANCH  18  19
ATOM     19  C   UNL     1       6.360   3.965  13.177  0.00  0.00    +0.000 A 
ATOM     20  C   UNL     1       7.128   3.130  12.356  0.00  0.00    +0.000 A 
ATOM     21  C   UNL     1       6.517   2.355  11.371  0.00  0.00    +0.000 A 
ATOM     22  C   UNL     1       5.134   2.411  11.202  0.00  0.00    +0.000 A 
ATOM     23  C   UNL     1       4.361   3.231  12.022  0.00  0.00    +0.000 A 
ATOM     24  C   UNL     1       4.970   4.006  13.007  0.00  0.00    +0.000 A 
ENDBRANCH  18  19
ENDBRANCH  17  18
ENDBRANCH  15  17
ENDBRANCH   3  15
TORSDOF 7
ENDMDL
