MODEL 1
REMARK VINA RESULT:      -8.4      0.000      0.000
REMARK  Name = 
REMARK  9 active torsions:
REMARK  status: ('A' for Active; 'I' for Inactive)
REMARK    1  A    between atoms: C_1  and  C_2
REMARK    2  A    between atoms: C_2  and  C_4
REMARK    3  A    between atoms: C_8  and  N_9
REMARK    4  A    between atoms: C_10  and  C_12
REMARK    5  A    between atoms: C_12  and  C_13
REMARK    6  A    between atoms: C_12  and  O_14
REMARK    7  A    between atoms: O_14  and  C_15
REMARK    8  A    between atoms: C_15  and  C_17
REMARK    9  A    between atoms: C_21  and  N_22
REMARK                            x       y       z     vdW  Elec       q    Type
REMARK                         _______ _______ _______ _____ _____    ______ ____
ROOT
ATOM      1  C   UNL     1       2.499   3.621  19.292  0.00  0.00    +0.000 C 
ATOM      2  C   UNL     1       1.395   2.574  19.172  0.00  0.00    +0.000 C 
ENDROOT
BRANCH   1   4
ATOM      3  N   UNL     1       2.396   6.060  19.534  0.00  0.00    +0.000 N 
ATOM      4  C   UNL     1       2.016   4.973  18.754  0.00  0.00    +0.000 C 
ATOM      5  O   UNL     1       1.354   5.043  17.718  0.00  0.00    +0.000 OA
ATOM      6  H   UNL     1       3.051   5.881  20.288  0.00  0.00    +0.000 HD
BRANCH   3  11
ATOM      7  C   UNL     1       1.050   9.479  20.137  0.00  0.00    +0.000 A 
ATOM      8  C   UNL     1       1.335  10.111  18.922  0.00  0.00    +0.000 A 
ATOM      9  C   UNL     1       1.951   9.399  17.901  0.00  0.00    +0.000 A 
ATOM     10  C   UNL     1       2.296   8.060  18.090  0.00  0.00    +0.000 A 
ATOM     11  C   UNL     1       2.041   7.411  19.298  0.00  0.00    +0.000 A 
ATOM     12  C   UNL     1       1.399   8.126  20.320  0.00  0.00    +0.000 A 
BRANCH   7  14
ATOM     13  C   UNL     1      -0.012   9.450  22.494  0.00  0.00    +0.000 C 
ATOM     14  C   UNL     1       0.387  10.214  21.255  0.00  0.00    +0.000 C 
ATOM     15  O   UNL     1       0.184  11.423  21.154  0.00  0.00    +0.000 OA
ENDBRANCH   7  14
ENDBRANCH   3  11
ENDBRANCH   1   4
BRANCH   1  16
ATOM     16  O   UNL     1       3.617   3.195  18.492  0.00  0.00    +0.000 OA
BRANCH  16  17
ATOM     17  C   UNL     1       4.840   3.285  19.061  0.00  0.00    +0.000 C 
ATOM     18  O   UNL     1       5.191   2.738  20.095  0.00  0.00    +0.000 OA
BRANCH  17  19
ATOM     19  C   UNL     1       5.708   4.219  18.290  0.00  0.00    +0.000 A 
ATOM     20  C   UNL     1       6.222   5.342  18.951  0.00  0.00    +0.000 A 
ATOM     21  C   UNL     1       6.986   6.278  18.255  0.00  0.00    +0.000 A 
ATOM     22  C   UNL     1       7.233   6.104  16.892  0.00  0.00    +0.000 A 
ATOM     23  C   UNL     1       6.724   4.982  16.219  0.00  0.00    +0.000 A 
ATOM     24  C   UNL     1       5.975   4.030  16.925  0.00  0.00    +0.000 A 
BRANCH  23  25
ATOM     25  N   UNL     1       6.945   4.841  14.827  0.00  0.00    +0.000 N 
ATOM     26  C   UNL     1       6.282   4.064  13.910  0.00  0.00    +0.000 A 
ATOM     27  N   UNL     1       6.794   4.264  12.719  0.00  0.00    +0.000 NA
ATOM     28  N   UNL     1       7.797   5.179  12.894  0.00  0.00    +0.000 NA
ATOM     29  N   UNL     1       7.903   5.530  14.168  0.00  0.00    +0.000 NA
ENDBRANCH  23  25
ENDBRANCH  17  19
ENDBRANCH  16  17
ENDBRANCH   1  16
TORSDOF 7
ENDMDL
MODEL 2
REMARK VINA RESULT:      -8.3      2.817      8.288
REMARK  Name = 
REMARK  9 active torsions:
REMARK  status: ('A' for Active; 'I' for Inactive)
REMARK    1  A    between atoms: C_1  and  C_2
REMARK    2  A    between atoms: C_2  and  C_4
REMARK    3  A    between atoms: C_8  and  N_9
REMARK    4  A    between atoms: C_10  and  C_12
REMARK    5  A    between atoms: C_12  and  C_13
REMARK    6  A    between atoms: C_12  and  O_14
REMARK    7  A    between atoms: O_14  and  C_15
REMARK    8  A    between atoms: C_15  and  C_17
REMARK    9  A    between atoms: C_21  and  N_22
REMARK                            x       y       z     vdW  Elec       q    Type
REMARK                         _______ _______ _______ _____ _____    ______ ____
ROOT
ATOM      1  C   UNL     1       2.211   3.783  18.227  0.00  0.00    +0.000 C 
ATOM      2  C   UNL     1       1.433   2.491  18.455  0.00  0.00    +0.000 C 
ENDROOT
BRANCH   1   4
ATOM      3  N   UNL     1       3.948   4.557  16.677  0.00  0.00    +0.000 N 
ATOM      4  C   UNL     1       3.511   3.498  17.464  0.00  0.00    +0.000 C 
ATOM      5  O   UNL     1       4.083   2.413  17.570  0.00  0.00    +0.000 OA
ATOM      6  H   UNL     1       3.460   5.442  16.780  0.00  0.00    +0.000 HD
BRANCH   3  11
ATOM      7  C   UNL     1       6.070   3.949  13.678  0.00  0.00    +0.000 A 
ATOM      8  C   UNL     1       7.287   4.513  14.076  0.00  0.00    +0.000 A 
ATOM      9  C   UNL     1       7.408   5.072  15.342  0.00  0.00    +0.000 A 
ATOM     10  C   UNL     1       6.315   5.084  16.210  0.00  0.00    +0.000 A 
ATOM     11  C   UNL     1       5.084   4.545  15.831  0.00  0.00    +0.000 A 
ATOM     12  C   UNL     1       4.971   3.961  14.561  0.00  0.00    +0.000 A 
BRANCH   7  14
ATOM     13  C   UNL     1       4.532   3.304  11.703  0.00  0.00    +0.000 C 
ATOM     14  C   UNL     1       5.907   3.337  12.326  0.00  0.00    +0.000 C 
ATOM     15  O   UNL     1       6.887   2.879  11.741  0.00  0.00    +0.000 OA
ENDBRANCH   7  14
ENDBRANCH   3  11
ENDBRANCH   1   4
BRANCH   1  16
ATOM     16  O   UNL     1       2.558   4.336  19.509  0.00  0.00    +0.000 OA
BRANCH  16  17
ATOM     17  C   UNL     1       3.405   5.390  19.507  0.00  0.00    +0.000 C 
ATOM     18  O   UNL     1       4.621   5.331  19.595  0.00  0.00    +0.000 OA
BRANCH  17  19
ATOM     19  C   UNL     1       2.647   6.671  19.458  0.00  0.00    +0.000 A 
ATOM     20  C   UNL     1       2.670   7.408  18.266  0.00  0.00    +0.000 A 
ATOM     21  C   UNL     1       2.027   8.643  18.193  0.00  0.00    +0.000 A 
ATOM     22  C   UNL     1       1.367   9.156  19.311  0.00  0.00    +0.000 A 
ATOM     23  C   UNL     1       1.336   8.426  20.510  0.00  0.00    +0.000 A 
ATOM     24  C   UNL     1       1.963   7.174  20.576  0.00  0.00    +0.000 A 
BRANCH  23  25
ATOM     25  N   UNL     1       0.700   8.978  21.649  0.00  0.00    +0.000 N 
ATOM     26  C   UNL     1      -0.638   9.135  21.913  0.00  0.00    +0.000 A 
ATOM     27  N   UNL     1      -0.787   9.659  23.107  0.00  0.00    +0.000 NA
ATOM     28  N   UNL     1       0.480   9.836  23.596  0.00  0.00    +0.000 NA
ATOM     29  N   UNL     1       1.389   9.434  22.719  0.00  0.00    +0.000 NA
ENDBRANCH  23  25
ENDBRANCH  17  19
ENDBRANCH  16  17
ENDBRANCH   1  16
TORSDOF 7
ENDMDL
MODEL 3
REMARK VINA RESULT:      -8.2      2.952      8.936
REMARK  Name = 
REMARK  9 active torsions:
REMARK  status: ('A' for Active; 'I' for Inactive)
REMARK    1  A    between atoms: C_1  and  C_2
REMARK    2  A    between atoms: C_2  and  C_4
REMARK    3  A    between atoms: C_8  and  N_9
REMARK    4  A    between atoms: C_10  and  C_12
REMARK    5  A    between atoms: C_12  and  C_13
REMARK    6  A    between atoms: C_12  and  O_14
REMARK    7  A    between atoms: O_14  and  C_15
REMARK    8  A    between atoms: C_15  and  C_17
REMARK    9  A    between atoms: C_21  and  N_22
REMARK                            x       y       z     vdW  Elec       q    Type
REMARK                         _______ _______ _______ _____ _____    ______ ____
ROOT
ATOM      1  C   UNL     1       5.614   4.998  18.295  0.00  0.00    +0.000 C 
ATOM      2  C   UNL     1       6.480   5.436  19.473  0.00  0.00    +0.000 C 
ENDROOT
BRANCH   1   4
ATOM      3  N   UNL     1       5.700   4.691  15.863  0.00  0.00    +0.000 N 
ATOM      4  C   UNL     1       6.445   4.955  17.007  0.00  0.00    +0.000 C 
ATOM      5  O   UNL     1       7.661   5.144  17.031  0.00  0.00    +0.000 OA
ATOM      6  H   UNL     1       4.689   4.686  15.960  0.00  0.00    +0.000 HD
BRANCH   3  11
ATOM      7  C   UNL     1       6.111   3.425  12.385  0.00  0.00    +0.000 A 
ATOM      8  C   UNL     1       7.172   4.213  11.924  0.00  0.00    +0.000 A 
ATOM      9  C   UNL     1       7.761   5.143  12.770  0.00  0.00    +0.000 A 
ATOM     10  C   UNL     1       7.288   5.302  14.074  0.00  0.00    +0.000 A 
ATOM     11  C   UNL     1       6.220   4.544  14.553  0.00  0.00    +0.000 A 
ATOM     12  C   UNL     1       5.641   3.589  13.704  0.00  0.00    +0.000 A 
BRANCH   7  14
ATOM     13  C   UNL     1       6.235   1.184  11.104  0.00  0.00    +0.000 C 
ATOM     14  C   UNL     1       5.457   2.415  11.502  0.00  0.00    +0.000 C 
ATOM     15  O   UNL     1       4.302   2.594  11.120  0.00  0.00    +0.000 OA
ENDBRANCH   7  14
ENDBRANCH   3  11
ENDBRANCH   1   4
BRANCH   1  16
ATOM     16  O   UNL     1       4.565   5.968  18.119  0.00  0.00    +0.000 OA
BRANCH  16  17
ATOM     17  C   UNL     1       3.498   5.864  18.942  0.00  0.00    +0.000 C 
ATOM     18  O   UNL     1       3.177   4.871  19.576  0.00  0.00    +0.000 OA
BRANCH  17  19
ATOM     19  C   UNL     1       2.697   7.119  18.921  0.00  0.00    +0.000 A 
ATOM     20  C   UNL     1       2.703   7.889  17.750  0.00  0.00    +0.000 A 
ATOM     21  C   UNL     1       2.020   9.104  17.705  0.00  0.00    +0.000 A 
ATOM     22  C   UNL     1       1.336   9.564  18.831  0.00  0.00    +0.000 A 
ATOM     23  C   UNL     1       1.322   8.802  20.010  0.00  0.00    +0.000 A 
ATOM     24  C   UNL     1       1.990   7.570  20.048  0.00  0.00    +0.000 A 
BRANCH  23  25
ATOM     25  N   UNL     1       0.661   9.301  21.159  0.00  0.00    +0.000 N 
ATOM     26  C   UNL     1       0.732  10.543  21.739  0.00  0.00    +0.000 A 
ATOM     27  N   UNL     1      -0.077  10.588  22.772  0.00  0.00    +0.000 NA
ATOM     28  N   UNL     1      -0.661   9.352  22.841  0.00  0.00    +0.000 NA
ATOM     29  N   UNL     1      -0.217   8.561  21.874  0.00  0.00    +0.000 NA
ENDBRANCH  23  25
ENDBRANCH  17  19
ENDBRANCH  16  17
ENDBRANCH   1  16
TORSDOF 7
ENDMDL
MODEL 4
REMARK VINA RESULT:      -8.1      1.161      1.420
REMARK  Name = 
REMARK  9 active torsions:
REMARK  status: ('A' for Active; 'I' for Inactive)
REMARK    1  A    between atoms: C_1  and  C_2
REMARK    2  A    between atoms: C_2  and  C_4
REMARK    3  A    between atoms: C_8  and  N_9
REMARK    4  A    between atoms: C_10  and  C_12
REMARK    5  A    between atoms: C_12  and  C_13
REMARK    6  A    between atoms: C_12  and  O_14
REMARK    7  A    between atoms: O_14  and  C_15
REMARK    8  A    between atoms: C_15  and  C_17
REMARK    9  A    between atoms: C_21  and  N_22
REMARK                            x       y       z     vdW  Elec       q    Type
REMARK                         _______ _______ _______ _____ _____    ______ ____
ROOT
ATOM      1  C   UNL     1       2.777   3.634  20.864  0.00  0.00    +0.000 C 
ATOM      2  C   UNL     1       1.900   2.624  21.598  0.00  0.00    +0.000 C 
ENDROOT
BRANCH   1   4
ATOM      3  N   UNL     1       2.691   5.978  20.146  0.00  0.00    +0.000 N 
ATOM      4  C   UNL     1       1.941   4.837  20.410  0.00  0.00    +0.000 C 
ATOM      5  O   UNL     1       0.718   4.755  20.300  0.00  0.00    +0.000 OA
ATOM      6  H   UNL     1       3.702   5.878  20.146  0.00  0.00    +0.000 HD
BRANCH   3  11
ATOM      7  C   UNL     1       1.003   9.287  20.398  0.00  0.00    +0.000 A 
ATOM      8  C   UNL     1       1.140   9.773  19.093  0.00  0.00    +0.000 A 
ATOM      9  C   UNL     1       1.771   8.996  18.130  0.00  0.00    +0.000 A 
ATOM     10  C   UNL     1       2.278   7.739  18.465  0.00  0.00    +0.000 A 
ATOM     11  C   UNL     1       2.171   7.239  19.763  0.00  0.00    +0.000 A 
ATOM     12  C   UNL     1       1.515   8.017  20.729  0.00  0.00    +0.000 A 
BRANCH   7  14
ATOM     13  C   UNL     1      -0.786  11.033  21.059  0.00  0.00    +0.000 C 
ATOM     14  C   UNL     1       0.329  10.096  21.457  0.00  0.00    +0.000 C 
ATOM     15  O   UNL     1       0.684   9.985  22.629  0.00  0.00    +0.000 OA
ENDBRANCH   7  14
ENDBRANCH   3  11
ENDBRANCH   1   4
BRANCH   1  16
ATOM     16  O   UNL     1       3.319   2.998  19.693  0.00  0.00    +0.000 OA
BRANCH  16  17
ATOM     17  C   UNL     1       3.272   3.705  18.541  0.00  0.00    +0.000 C 
ATOM     18  O   UNL     1       2.279   3.891  17.856  0.00  0.00    +0.000 OA
BRANCH  17  19
ATOM     19  C   UNL     1       4.632   4.178  18.163  0.00  0.00    +0.000 A 
ATOM     20  C   UNL     1       5.453   4.706  19.169  0.00  0.00    +0.000 A 
ATOM     21  C   UNL     1       6.710   5.220  18.852  0.00  0.00    +0.000 A 
ATOM     22  C   UNL     1       7.151   5.221  17.528  0.00  0.00    +0.000 A 
ATOM     23  C   UNL     1       6.339   4.695  16.511  0.00  0.00    +0.000 A 
ATOM     24  C   UNL     1       5.085   4.157  16.834  0.00  0.00    +0.000 A 
BRANCH  23  25
ATOM     25  N   UNL     1       6.781   4.741  15.166  0.00  0.00    +0.000 N 
ATOM     26  C   UNL     1       6.320   4.057  14.070  0.00  0.00    +0.000 A 
ATOM     27  N   UNL     1       6.995   4.430  13.008  0.00  0.00    +0.000 NA
ATOM     28  N   UNL     1       7.896   5.362  13.449  0.00  0.00    +0.000 NA
ATOM     29  N   UNL     1       7.781   5.554  14.756  0.00  0.00    +0.000 NA
ENDBRANCH  23  25
ENDBRANCH  17  19
ENDBRANCH  16  17
ENDBRANCH   1  16
TORSDOF 7
ENDMDL
MODEL 5
REMARK VINA RESULT:      -8.1      2.118      2.786
REMARK  Name = 
REMARK  9 active torsions:
REMARK  status: ('A' for Active; 'I' for Inactive)
REMARK    1  A    between atoms: C_1  and  C_2
REMARK    2  A    between atoms: C_2  and  C_4
REMARK    3  A    between atoms: C_8  and  N_9
REMARK    4  A    between atoms: C_10  and  C_12
REMARK    5  A    between atoms: C_12  and  C_13
REMARK    6  A    between atoms: C_12  and  O_14
REMARK    7  A    between atoms: O_14  and  C_15
REMARK    8  A    between atoms: C_15  and  C_17
REMARK    9  A    between atoms: C_21  and  N_22
REMARK                            x       y       z     vdW  Elec       q    Type
REMARK                         _______ _______ _______ _____ _____    ______ ____
ROOT
ATOM      1  C   UNL     1       2.779   3.520  20.959  0.00  0.00    +0.000 C 
ATOM      2  C   UNL     1       1.942   2.245  20.910  0.00  0.00    +0.000 C 
ENDROOT
BRANCH   1   4
ATOM      3  N   UNL     1       2.817   5.826  20.122  0.00  0.00    +0.000 N 
ATOM      4  C   UNL     1       2.079   4.649  20.193  0.00  0.00    +0.000 C 
ATOM      5  O   UNL     1       0.964   4.483  19.698  0.00  0.00    +0.000 OA
ATOM      6  H   UNL     1       3.775   5.791  20.455  0.00  0.00    +0.000 HD
BRANCH   3  11
ATOM      7  C   UNL     1       1.278   9.198  19.762  0.00  0.00    +0.000 A 
ATOM      8  C   UNL     1       1.533   9.480  18.416  0.00  0.00    +0.000 A 
ATOM      9  C   UNL     1       2.193   8.547  17.627  0.00  0.00    +0.000 A 
ATOM     10  C   UNL     1       2.612   7.335  18.179  0.00  0.00    +0.000 A 
ATOM     11  C   UNL     1       2.388   7.036  19.523  0.00  0.00    +0.000 A 
ATOM     12  C   UNL     1       1.702   7.971  20.312  0.00  0.00    +0.000 A 
BRANCH   7  14
ATOM     13  C   UNL     1      -0.790  10.680  20.216  0.00  0.00    +0.000 C 
ATOM     14  C   UNL     1       0.570  10.178  20.637  0.00  0.00    +0.000 C 
ATOM     15  O   UNL     1       1.097  10.556  21.683  0.00  0.00    +0.000 OA
ENDBRANCH   7  14
ENDBRANCH   3  11
ENDBRANCH   1   4
BRANCH   1  16
ATOM     16  O   UNL     1       4.041   3.260  20.319  0.00  0.00    +0.000 OA
BRANCH  16  17
ATOM     17  C   UNL     1       3.993   2.731  19.075  0.00  0.00    +0.000 C 
ATOM     18  O   UNL     1       3.629   1.600  18.792  0.00  0.00    +0.000 OA
BRANCH  17  19
ATOM     19  C   UNL     1       4.523   3.698  18.075  0.00  0.00    +0.000 A 
ATOM     20  C   UNL     1       4.169   3.521  16.731  0.00  0.00    +0.000 A 
ATOM     21  C   UNL     1       4.692   4.363  15.750  0.00  0.00    +0.000 A 
ATOM     22  C   UNL     1       5.581   5.379  16.102  0.00  0.00    +0.000 A 
ATOM     23  C   UNL     1       5.943   5.567  17.446  0.00  0.00    +0.000 A 
ATOM     24  C   UNL     1       5.399   4.735  18.434  0.00  0.00    +0.000 A 
BRANCH  23  25
ATOM     25  N   UNL     1       6.880   6.574  17.784  0.00  0.00    +0.000 N 
ATOM     26  C   UNL     1       7.893   6.551  18.710  0.00  0.00    +0.000 A 
ATOM     27  N   UNL     1       8.543   7.691  18.671  0.00  0.00    +0.000 NA
ATOM     28  N   UNL     1       7.924   8.440  17.708  0.00  0.00    +0.000 NA
ATOM     29  N   UNL     1       6.910   7.778  17.168  0.00  0.00    +0.000 NA
ENDBRANCH  23  25
ENDBRANCH  17  19
ENDBRANCH  16  17
ENDBRANCH   1  16
TORSDOF 7
ENDMDL
MODEL 6
REMARK VINA RESULT:      -8.0      2.940      8.830
REMARK  Name = 
REMARK  9 active torsions:
REMARK  status: ('A' for Active; 'I' for Inactive)
REMARK    1  A    between atoms: C_1  and  C_2
REMARK    2  A    between atoms: C_2  and  C_4
REMARK    3  A    between atoms: C_8  and  N_9
REMARK    4  A    between atoms: C_10  and  C_12
REMARK    5  A    between atoms: C_12  and  C_13
REMARK    6  A    between atoms: C_12  and  O_14
REMARK    7  A    between atoms: O_14  and  C_15
REMARK    8  A    between atoms: C_15  and  C_17
REMARK    9  A    between atoms: C_21  and  N_22
REMARK                            x       y       z     vdW  Elec       q    Type
REMARK                         _______ _______ _______ _____ _____    ______ ____
ROOT
ATOM      1  C   UNL     1       5.042   4.849  18.271  0.00  0.00    +0.000 C 
ATOM      2  C   UNL     1       6.378   5.264  18.881  0.00  0.00    +0.000 C 
ENDROOT
BRANCH   1   4
ATOM      3  N   UNL     1       6.260   5.034  16.149  0.00  0.00    +0.000 N 
ATOM      4  C   UNL     1       5.238   4.376  16.825  0.00  0.00    +0.000 C 
ATOM      5  O   UNL     1       4.532   3.488  16.347  0.00  0.00    +0.000 OA
ATOM      6  H   UNL     1       6.853   5.651  16.696  0.00  0.00    +0.000 HD
BRANCH   3  11
ATOM      7  C   UNL     1       6.154   3.742  12.659  0.00  0.00    +0.000 A 
ATOM      8  C   UNL     1       7.242   4.404  12.081  0.00  0.00    +0.000 A 
ATOM      9  C   UNL     1       8.020   5.259  12.853  0.00  0.00    +0.000 A 
ATOM     10  C   UNL     1       7.709   5.466  14.197  0.00  0.00    +0.000 A 
ATOM     11  C   UNL     1       6.618   4.833  14.794  0.00  0.00    +0.000 A 
ATOM     12  C   UNL     1       5.847   3.954  14.018  0.00  0.00    +0.000 A 
BRANCH   7  14
ATOM     13  C   UNL     1       5.880   1.499  11.403  0.00  0.00    +0.000 C 
ATOM     14  C   UNL     1       5.299   2.816  11.858  0.00  0.00    +0.000 C 
ATOM     15  O   UNL     1       4.142   3.132  11.589  0.00  0.00    +0.000 OA
ENDBRANCH   7  14
ENDBRANCH   3  11
ENDBRANCH   1   4
BRANCH   1  16
ATOM     16  O   UNL     1       4.175   5.997  18.253  0.00  0.00    +0.000 OA
BRANCH  16  17
ATOM     17  C   UNL     1       3.117   5.972  19.095  0.00  0.00    +0.000 C 
ATOM     18  O   UNL     1       2.736   5.006  19.737  0.00  0.00    +0.000 OA
BRANCH  17  19
ATOM     19  C   UNL     1       2.410   7.282  19.085  0.00  0.00    +0.000 A 
ATOM     20  C   UNL     1       2.390   8.014  17.890  0.00  0.00    +0.000 A 
ATOM     21  C   UNL     1       1.795   9.275  17.849  0.00  0.00    +0.000 A 
ATOM     22  C   UNL     1       1.227   9.818  19.003  0.00  0.00    +0.000 A 
ATOM     23  C   UNL     1       1.240   9.094  20.205  0.00  0.00    +0.000 A 
ATOM     24  C   UNL     1       1.818   7.817  20.240  0.00  0.00    +0.000 A 
BRANCH  23  25
ATOM     25  N   UNL     1       0.698   9.675  21.378  0.00  0.00    +0.000 N 
ATOM     26  C   UNL     1       0.421   9.097  22.592  0.00  0.00    +0.000 A 
ATOM     27  N   UNL     1      -0.041  10.011  23.414  0.00  0.00    +0.000 NA
ATOM     28  N   UNL     1      -0.055  11.179  22.700  0.00  0.00    +0.000 NA
ATOM     29  N   UNL     1       0.384  10.987  21.463  0.00  0.00    +0.000 NA
ENDBRANCH  23  25
ENDBRANCH  17  19
ENDBRANCH  16  17
ENDBRANCH   1  16
TORSDOF 7
ENDMDL
MODEL 7
REMARK VINA RESULT:      -8.0      5.049      7.526
REMARK  Name = 
REMARK  9 active torsions:
REMARK  status: ('A' for Active; 'I' for Inactive)
REMARK    1  A    between atoms: C_1  and  C_2
REMARK    2  A    between atoms: C_2  and  C_4
REMARK    3  A    between atoms: C_8  and  N_9
REMARK    4  A    between atoms: C_10  and  C_12
REMARK    5  A    between atoms: C_12  and  C_13
REMARK    6  A    between atoms: C_12  and  O_14
REMARK    7  A    between atoms: O_14  and  C_15
REMARK    8  A    between atoms: C_15  and  C_17
REMARK    9  A    between atoms: C_21  and  N_22
REMARK                            x       y       z     vdW  Elec       q    Type
REMARK                         _______ _______ _______ _____ _____    ______ ____
ROOT
ATOM      1  C   UNL     1       7.910   7.802  17.649  0.00  0.00    +0.000 C 
ATOM      2  C   UNL     1       8.105   6.869  18.840  0.00  0.00    +0.000 C 
ENDROOT
BRANCH   1   4
ATOM      3  N   UNL     1       9.208   9.343  19.049  0.00  0.00    +0.000 N 
ATOM      4  C   UNL     1       8.260   9.244  18.036  0.00  0.00    +0.000 C 
ATOM      5  O   UNL     1       7.725  10.199  17.472  0.00  0.00    +0.000 OA
ATOM      6  H   UNL     1       9.668   8.485  19.337  0.00  0.00    +0.000 HD
BRANCH   3  11
ATOM      7  C   UNL     1       9.505  12.183  21.439  0.00  0.00    +0.000 A 
ATOM      8  C   UNL     1      10.556  12.915  20.875  0.00  0.00    +0.000 A 
ATOM      9  C   UNL     1      11.147  12.479  19.696  0.00  0.00    +0.000 A 
ATOM     10  C   UNL     1      10.703  11.308  19.082  0.00  0.00    +0.000 A 
ATOM     11  C   UNL     1       9.671  10.548  19.632  0.00  0.00    +0.000 A 
ATOM     12  C   UNL     1       9.060  11.002  20.811  0.00  0.00    +0.000 A 
BRANCH   7  14
ATOM     13  C   UNL     1       8.046  11.620  23.497  0.00  0.00    +0.000 C 
ATOM     14  C   UNL     1       8.847  12.624  22.704  0.00  0.00    +0.000 C 
ATOM     15  O   UNL     1       8.971  13.787  23.083  0.00  0.00    +0.000 OA
ENDBRANCH   7  14
ENDBRANCH   3  11
ENDBRANCH   1   4
BRANCH   1  16
ATOM     16  O   UNL     1       6.524   7.764  17.265  0.00  0.00    +0.000 OA
BRANCH  16  17
ATOM     17  C   UNL     1       5.997   6.545  17.012  0.00  0.00    +0.000 C 
ATOM     18  O   UNL     1       6.473   5.699  16.273  0.00  0.00    +0.000 OA
BRANCH  17  19
ATOM     19  C   UNL     1       4.690   6.386  17.709  0.00  0.00    +0.000 A 
ATOM     20  C   UNL     1       3.701   7.353  17.488  0.00  0.00    +0.000 A 
ATOM     21  C   UNL     1       2.485   7.281  18.167  0.00  0.00    +0.000 A 
ATOM     22  C   UNL     1       2.252   6.249  19.078  0.00  0.00    +0.000 A 
ATOM     23  C   UNL     1       3.235   5.274  19.306  0.00  0.00    +0.000 A 
ATOM     24  C   UNL     1       4.449   5.334  18.607  0.00  0.00    +0.000 A 
BRANCH  23  25
ATOM     25  N   UNL     1       3.003   4.257  20.265  0.00  0.00    +0.000 N 
ATOM     26  C   UNL     1       3.544   2.998  20.354  0.00  0.00    +0.000 A 
ATOM     27  N   UNL     1       3.076   2.398  21.423  0.00  0.00    +0.000 NA
ATOM     28  N   UNL     1       2.226   3.296  22.012  0.00  0.00    +0.000 NA
ATOM     29  N   UNL     1       2.168   4.423  21.316  0.00  0.00    +0.000 NA
ENDBRANCH  23  25
ENDBRANCH  17  19
ENDBRANCH  16  17
ENDBRANCH   1  16
TORSDOF 7
ENDMDL
MODEL 8
REMARK VINA RESULT:      -7.9      2.968      8.640
REMARK  Name = 
REMARK  9 active torsions:
REMARK  status: ('A' for Active; 'I' for Inactive)
REMARK    1  A    between atoms: C_1  and  C_2
REMARK    2  A    between atoms: C_2  and  C_4
REMARK    3  A    between atoms: C_8  and  N_9
REMARK    4  A    between atoms: C_10  and  C_12
REMARK    5  A    between atoms: C_12  and  C_13
REMARK    6  A    between atoms: C_12  and  O_14
REMARK    7  A    between atoms: O_14  and  C_15
REMARK    8  A    between atoms: C_15  and  C_17
REMARK    9  A    between atoms: C_21  and  N_22
REMARK                            x       y       z     vdW  Elec       q    Type
REMARK                         _______ _______ _______ _____ _____    ______ ____
ROOT
ATOM      1  C   UNL     1       6.642   5.282  18.225  0.00  0.00    +0.000 C 
ATOM      2  C   UNL     1       7.780   5.790  19.106  0.00  0.00    +0.000 C 
ENDROOT
BRANCH   1   4
ATOM      3  N   UNL     1       6.546   4.517  15.896  0.00  0.00    +0.000 N 
ATOM      4  C   UNL     1       6.956   5.538  16.746  0.00  0.00    +0.000 C 
ATOM      5  O   UNL     1       7.520   6.572  16.388  0.00  0.00    +0.000 OA
ATOM      6  H   UNL     1       5.975   3.781  16.300  0.00  0.00    +0.000 HD
BRANCH   3  11
ATOM      7  C   UNL     1       6.136   3.534  12.328  0.00  0.00    +0.000 A 
ATOM      8  C   UNL     1       7.089   4.346  11.703  0.00  0.00    +0.000 A 
ATOM      9  C   UNL     1       7.877   5.198  12.464  0.00  0.00    +0.000 A 
ATOM     10  C   UNL     1       7.712   5.255  13.849  0.00  0.00    +0.000 A 
ATOM     11  C   UNL     1       6.757   4.471  14.496  0.00  0.00    +0.000 A 
ATOM     12  C   UNL     1       5.976   3.594  13.727  0.00  0.00    +0.000 A 
BRANCH   7  14
ATOM     13  C   UNL     1       3.930   3.094  11.055  0.00  0.00    +0.000 C 
ATOM     14  C   UNL     1       5.274   2.605  11.539  0.00  0.00    +0.000 C 
ATOM     15  O   UNL     1       5.669   1.468  11.291  0.00  0.00    +0.000 OA
ENDBRANCH   7  14
ENDBRANCH   3  11
ENDBRANCH   1   4
BRANCH   1  16
ATOM     16  O   UNL     1       5.448   6.010  18.562  0.00  0.00    +0.000 OA
BRANCH  16  17
ATOM     17  C   UNL     1       4.272   5.447  18.203  0.00  0.00    +0.000 C 
ATOM     18  O   UNL     1       4.059   4.831  17.171  0.00  0.00    +0.000 OA
BRANCH  17  19
ATOM     19  C   UNL     1       3.220   5.743  19.215  0.00  0.00    +0.000 A 
ATOM     20  C   UNL     1       2.571   4.665  19.830  0.00  0.00    +0.000 A 
ATOM     21  C   UNL     1       1.536   4.892  20.737  0.00  0.00    +0.000 A 
ATOM     22  C   UNL     1       1.135   6.197  21.027  0.00  0.00    +0.000 A 
ATOM     23  C   UNL     1       1.778   7.286  20.417  0.00  0.00    +0.000 A 
ATOM     24  C   UNL     1       2.833   7.057  19.523  0.00  0.00    +0.000 A 
BRANCH  23  25
ATOM     25  N   UNL     1       1.332   8.603  20.687  0.00  0.00    +0.000 N 
ATOM     26  C   UNL     1       0.854   9.559  19.825  0.00  0.00    +0.000 A 
ATOM     27  N   UNL     1       0.519  10.630  20.506  0.00  0.00    +0.000 NA
ATOM     28  N   UNL     1       0.795  10.340  21.815  0.00  0.00    +0.000 NA
ATOM     29  N   UNL     1       1.294   9.118  21.937  0.00  0.00    +0.000 NA
ENDBRANCH  23  25
ENDBRANCH  17  19
ENDBRANCH  16  17
ENDBRANCH   1  16
TORSDOF 7
ENDMDL
MODEL 9
REMARK VINA RESULT:      -7.9      2.782      8.113
REMARK  Name = 
REMARK  9 active torsions:
REMARK  status: ('A' for Active; 'I' for Inactive)
REMARK    1  A    between atoms: C_1  and  C_2
REMARK    2  A    between atoms: C_2  and  C_4
REMARK    3  A    between atoms: C_8  and  N_9
REMARK    4  A    between atoms: C_10  and  C_12
REMARK    5  A    between atoms: C_12  and  C_13
REMARK    6  A    between atoms: C_12  and  O_14
REMARK    7  A    between atoms: O_14  and  C_15
REMARK    8  A    between atoms: C_15  and  C_17
REMARK    9  A    between atoms: C_21  and  N_22
REMARK                            x       y       z     vdW  Elec       q    Type
REMARK                         _______ _______ _______ _____ _____    ______ ____
ROOT
ATOM      1  C   UNL     1       1.520   3.708  18.452  0.00  0.00    +0.000 C 
ATOM      2  C   UNL     1       0.801   2.379  18.665  0.00  0.00    +0.000 C 
ENDROOT
BRANCH   1   4
ATOM      3  N   UNL     1       3.620   4.509  17.469  0.00  0.00    +0.000 N 
ATOM      4  C   UNL     1       3.008   3.471  18.163  0.00  0.00    +0.000 C 
ATOM      5  O   UNL     1       3.569   2.440  18.533  0.00  0.00    +0.000 OA
ATOM      6  H   UNL     1       3.082   5.360  17.339  0.00  0.00    +0.000 HD
BRANCH   3  11
ATOM      7  C   UNL     1       6.547   4.540  15.167  0.00  0.00    +0.000 A 
ATOM      8  C   UNL     1       7.614   4.598  16.071  0.00  0.00    +0.000 A 
ATOM      9  C   UNL     1       7.363   4.604  17.437  0.00  0.00    +0.000 A 
ATOM     10  C   UNL     1       6.050   4.566  17.908  0.00  0.00    +0.000 A 
ATOM     11  C   UNL     1       4.967   4.527  17.029  0.00  0.00    +0.000 A 
ATOM     12  C   UNL     1       5.223   4.499  15.650  0.00  0.00    +0.000 A 
BRANCH   7  14
ATOM     13  C   UNL     1       6.034   3.533  12.843  0.00  0.00    +0.000 C 
ATOM     14  C   UNL     1       6.782   4.531  13.693  0.00  0.00    +0.000 C 
ATOM     15  O   UNL     1       7.571   5.332  13.195  0.00  0.00    +0.000 OA
ENDBRANCH   7  14
ENDBRANCH   3  11
ENDBRANCH   1   4
BRANCH   1  16
ATOM     16  O   UNL     1       1.416   4.479  19.662  0.00  0.00    +0.000 OA
BRANCH  16  17
ATOM     17  C   UNL     1       2.435   5.327  19.930  0.00  0.00    +0.000 C 
ATOM     18  O   UNL     1       3.538   5.011  20.348  0.00  0.00    +0.000 OA
BRANCH  17  19
ATOM     19  C   UNL     1       2.010   6.739  19.719  0.00  0.00    +0.000 A 
ATOM     20  C   UNL     1       2.264   7.327  18.473  0.00  0.00    +0.000 A 
ATOM     21  C   UNL     1       1.942   8.665  18.249  0.00  0.00    +0.000 A 
ATOM     22  C   UNL     1       1.374   9.428  19.271  0.00  0.00    +0.000 A 
ATOM     23  C   UNL     1       1.113   8.850  20.523  0.00  0.00    +0.000 A 
ATOM     24  C   UNL     1       1.417   7.498  20.740  0.00  0.00    +0.000 A 
BRANCH  23  25
ATOM     25  N   UNL     1       0.577   9.646  21.564  0.00  0.00    +0.000 N 
ATOM     26  C   UNL     1      -0.078  10.850  21.495  0.00  0.00    +0.000 A 
ATOM     27  N   UNL     1      -0.438  11.220  22.702  0.00  0.00    +0.000 NA
ATOM     28  N   UNL     1       0.002  10.232  23.540  0.00  0.00    +0.000 NA
ATOM     29  N   UNL     1       0.625   9.276  22.864  0.00  0.00    +0.000 NA
ENDBRANCH  23  25
ENDBRANCH  17  19
ENDBRANCH  16  17
ENDBRANCH   1  16
TORSDOF 7
ENDMDL
