MODEL 1
REMARK VINA RESULT:      -7.6      0.000      0.000
REMARK  Name = 
REMARK  14 active torsions:
REMARK  status: ('A' for Active; 'I' for Inactive)
REMARK    1  A    between atoms: C_1  and  C_2
REMARK    2  A    between atoms: C_2  and  C_3
REMARK    3  A    between atoms: C_2  and  C_4
REMARK    4  A    between atoms: C_4  and  C_5
REMARK    5  A    between atoms: C_5  and  C_6
REMARK    6  A    between atoms: C_7  and  C_8
REMARK    7  A    between atoms: C_9  and  C_10
REMARK    8  A    between atoms: N_12  and  C_13
REMARK    9  A    between atoms: C_15  and  C_16
REMARK   10  A    between atoms: C_16  and  C_17
REMARK   11  A    between atoms: C_17  and  C_18
REMARK   12  A    between atoms: C_18  and  O_20
REMARK   13  A    between atoms: C_21  and  O_22
REMARK   14  A    between atoms: C_24  and  O_25
REMARK                            x       y       z     vdW  Elec       q    Type
REMARK                         _______ _______ _______ _____ _____    ______ ____
ROOT
ATOM      1  C   UNL     1       4.962   5.270  17.840  0.00  0.00    +0.000 A 
ATOM      2  C   UNL     1       3.734   5.458  18.487  0.00  0.00    +0.000 A 
ATOM      3  C   UNL     1       2.716   4.485  18.429  0.00  0.00    +0.000 A 
ATOM      4  C   UNL     1       2.967   3.316  17.696  0.00  0.00    +0.000 A 
ATOM      5  C   UNL     1       4.171   3.126  17.023  0.00  0.00    +0.000 A 
ATOM      6  C   UNL     1       5.159   4.106  17.088  0.00  0.00    +0.000 A 
ENDROOT
BRANCH   1   9
ATOM      7  C   UNL     1       7.225   6.001  18.567  0.00  0.00    +0.000 C 
ATOM      8  O   UNL     1       7.565   4.992  19.179  0.00  0.00    +0.000 OA
ATOM      9  N   UNL     1       6.034   6.186  17.908  0.00  0.00    +0.000 N 
ATOM     10  H   UNL     1       5.921   6.990  17.297  0.00  0.00    +0.000 HD
BRANCH   7  12
ATOM     11  C   UNL     1       7.691   8.292  17.877  0.00  0.00    +0.000 C 
ATOM     12  C   UNL     1       8.143   7.168  18.456  0.00  0.00    +0.000 C 
BRANCH  11  14
ATOM     13  C   UNL     1       9.072  10.140  18.673  0.00  0.00    +0.000 C 
ATOM     14  C   UNL     1       8.496   9.472  17.662  0.00  0.00    +0.000 C 
BRANCH  13  15
ATOM     15  C   UNL     1       9.912  11.374  18.494  0.00  0.00    +0.000 C 
BRANCH  15  16
ATOM     16  C   UNL     1      11.022  11.504  19.547  0.00  0.00    +0.000 C 
BRANCH  16  18
ATOM     17  C   UNL     1      10.623  14.010  19.746  0.00  0.00    +0.000 C 
ATOM     18  C   UNL     1      10.866  12.704  20.503  0.00  0.00    +0.000 C 
ATOM     19  C   UNL     1       9.720  12.462  21.489  0.00  0.00    +0.000 C 
ENDBRANCH  16  18
ENDBRANCH  15  16
ENDBRANCH  13  15
ENDBRANCH  11  14
ENDBRANCH   7  12
ENDBRANCH   1   9
BRANCH   4  20
ATOM     20  O   UNL     1       2.069   2.288  17.610  0.00  0.00    +0.000 OA
ATOM     21  H   UNL     1       1.230   2.610  17.219  0.00  0.00    +0.000 HD
ENDBRANCH   4  20
BRANCH   6  22
ATOM     22  O   UNL     1       6.357   3.935  16.445  0.00  0.00    +0.000 OA
ATOM     23  H   UNL     1       7.034   3.752  17.121  0.00  0.00    +0.000 HD
ENDBRANCH   6  22
BRANCH   3  24
ATOM     24  C   UNL     1       1.438   4.741  19.197  0.00  0.00    +0.000 C 
BRANCH  24  25
ATOM     25  C   UNL     1       1.592   4.694  20.719  0.00  0.00    +0.000 C 
BRANCH  25  26
ATOM     26  C   UNL     1       1.769   3.291  21.232  0.00  0.00    +0.000 C 
ATOM     27  O   UNL     1       2.444   3.002  22.211  0.00  0.00    +0.000 OA
BRANCH  26  28
ATOM     28  O   UNL     1       1.065   2.372  20.533  0.00  0.00    +0.000 OA
ATOM     29  H   UNL     1       0.640   2.721  19.726  0.00  0.00    +0.000 HD
ENDBRANCH  26  28
ENDBRANCH  25  26
ENDBRANCH  24  25
ENDBRANCH   3  24
TORSDOF 12
ENDMDL
MODEL 2
REMARK VINA RESULT:      -7.5      1.335      1.578
REMARK  Name = 
REMARK  14 active torsions:
REMARK  status: ('A' for Active; 'I' for Inactive)
REMARK    1  A    between atoms: C_1  and  C_2
REMARK    2  A    between atoms: C_2  and  C_3
REMARK    3  A    between atoms: C_2  and  C_4
REMARK    4  A    between atoms: C_4  and  C_5
REMARK    5  A    between atoms: C_5  and  C_6
REMARK    6  A    between atoms: C_7  and  C_8
REMARK    7  A    between atoms: C_9  and  C_10
REMARK    8  A    between atoms: N_12  and  C_13
REMARK    9  A    between atoms: C_15  and  C_16
REMARK   10  A    between atoms: C_16  and  C_17
REMARK   11  A    between atoms: C_17  and  C_18
REMARK   12  A    between atoms: C_18  and  O_20
REMARK   13  A    between atoms: C_21  and  O_22
REMARK   14  A    between atoms: C_24  and  O_25
REMARK                            x       y       z     vdW  Elec       q    Type
REMARK                         _______ _______ _______ _____ _____    ______ ____
ROOT
ATOM      1  C   UNL     1       4.827   4.734  17.986  0.00  0.00    +0.000 A 
ATOM      2  C   UNL     1       3.704   4.904  18.807  0.00  0.00    +0.000 A 
ATOM      3  C   UNL     1       2.623   4.002  18.769  0.00  0.00    +0.000 A 
ATOM      4  C   UNL     1       2.700   2.923  17.876  0.00  0.00    +0.000 A 
ATOM      5  C   UNL     1       3.795   2.755  17.034  0.00  0.00    +0.000 A 
ATOM      6  C   UNL     1       4.849   3.665  17.084  0.00  0.00    +0.000 A 
ENDROOT
BRANCH   1   9
ATOM      7  C   UNL     1       6.337   6.476  17.053  0.00  0.00    +0.000 C 
ATOM      8  O   UNL     1       5.731   6.719  16.014  0.00  0.00    +0.000 OA
ATOM      9  N   UNL     1       5.960   5.577  18.021  0.00  0.00    +0.000 N 
ATOM     10  H   UNL     1       6.442   5.573  18.915  0.00  0.00    +0.000 HD
BRANCH   7  12
ATOM     11  C   UNL     1       7.529   8.520  17.639  0.00  0.00    +0.000 C 
ATOM     12  C   UNL     1       7.593   7.203  17.388  0.00  0.00    +0.000 C 
BRANCH  11  14
ATOM     13  C   UNL     1       8.773  10.085  19.040  0.00  0.00    +0.000 C 
ATOM     14  C   UNL     1       8.680   9.346  17.923  0.00  0.00    +0.000 C 
BRANCH  13  15
ATOM     15  C   UNL     1       9.949  10.961  19.372  0.00  0.00    +0.000 C 
BRANCH  15  16
ATOM     16  C   UNL     1      10.506  11.707  18.151  0.00  0.00    +0.000 C 
BRANCH  16  18
ATOM     17  C   UNL     1      12.276  13.395  17.444  0.00  0.00    +0.000 C 
ATOM     18  C   UNL     1      11.977  12.152  18.284  0.00  0.00    +0.000 C 
ATOM     19  C   UNL     1      12.327  12.427  19.748  0.00  0.00    +0.000 C 
ENDBRANCH  16  18
ENDBRANCH  15  16
ENDBRANCH  13  15
ENDBRANCH  11  14
ENDBRANCH   7  12
ENDBRANCH   1   9
BRANCH   4  20
ATOM     20  O   UNL     1       1.729   1.964  17.789  0.00  0.00    +0.000 OA
ATOM     21  H   UNL     1       0.853   2.357  17.984  0.00  0.00    +0.000 HD
ENDBRANCH   4  20
BRANCH   6  22
ATOM     22  O   UNL     1       5.944   3.514  16.273  0.00  0.00    +0.000 OA
ATOM     23  H   UNL     1       6.699   3.948  16.708  0.00  0.00    +0.000 HD
ENDBRANCH   6  22
BRANCH   3  24
ATOM     24  C   UNL     1       1.470   4.227  19.723  0.00  0.00    +0.000 C 
BRANCH  24  25
ATOM     25  C   UNL     1       1.873   4.302  21.197  0.00  0.00    +0.000 C 
BRANCH  25  26
ATOM     26  C   UNL     1       2.064   2.941  21.808  0.00  0.00    +0.000 C 
ATOM     27  O   UNL     1       1.180   2.322  22.387  0.00  0.00    +0.000 OA
BRANCH  26  28
ATOM     28  O   UNL     1       3.302   2.434  21.614  0.00  0.00    +0.000 OA
ATOM     29  H   UNL     1       3.624   1.871  22.345  0.00  0.00    +0.000 HD
ENDBRANCH  26  28
ENDBRANCH  25  26
ENDBRANCH  24  25
ENDBRANCH   3  24
TORSDOF 12
ENDMDL
MODEL 3
REMARK VINA RESULT:      -7.3      1.489      1.999
REMARK  Name = 
REMARK  14 active torsions:
REMARK  status: ('A' for Active; 'I' for Inactive)
REMARK    1  A    between atoms: C_1  and  C_2
REMARK    2  A    between atoms: C_2  and  C_3
REMARK    3  A    between atoms: C_2  and  C_4
REMARK    4  A    between atoms: C_4  and  C_5
REMARK    5  A    between atoms: C_5  and  C_6
REMARK    6  A    between atoms: C_7  and  C_8
REMARK    7  A    between atoms: C_9  and  C_10
REMARK    8  A    between atoms: N_12  and  C_13
REMARK    9  A    between atoms: C_15  and  C_16
REMARK   10  A    between atoms: C_16  and  C_17
REMARK   11  A    between atoms: C_17  and  C_18
REMARK   12  A    between atoms: C_18  and  O_20
REMARK   13  A    between atoms: C_21  and  O_22
REMARK   14  A    between atoms: C_24  and  O_25
REMARK                            x       y       z     vdW  Elec       q    Type
REMARK                         _______ _______ _______ _____ _____    ______ ____
ROOT
ATOM      1  C   UNL     1       5.658   6.424  17.088  0.00  0.00    +0.000 A 
ATOM      2  C   UNL     1       4.508   6.383  17.888  0.00  0.00    +0.000 A 
ATOM      3  C   UNL     1       3.660   5.258  17.899  0.00  0.00    +0.000 A 
ATOM      4  C   UNL     1       3.999   4.173  17.077  0.00  0.00    +0.000 A 
ATOM      5  C   UNL     1       5.122   4.208  16.255  0.00  0.00    +0.000 A 
ATOM      6  C   UNL     1       5.941   5.336  16.255  0.00  0.00    +0.000 A 
ENDROOT
BRANCH   1   9
ATOM      7  C   UNL     1       7.672   7.646  17.885  0.00  0.00    +0.000 C 
ATOM      8  O   UNL     1       8.063   6.844  18.727  0.00  0.00    +0.000 OA
ATOM      9  N   UNL     1       6.569   7.502  17.077  0.00  0.00    +0.000 N 
ATOM     10  H   UNL     1       6.429   8.145  16.303  0.00  0.00    +0.000 HD
BRANCH   7  12
ATOM     11  C   UNL     1       8.811   9.649  18.680  0.00  0.00    +0.000 C 
ATOM     12  C   UNL     1       8.421   8.908  17.631  0.00  0.00    +0.000 C 
BRANCH  11  14
ATOM     13  C   UNL     1       8.981  11.950  17.881  0.00  0.00    +0.000 C 
ATOM     14  C   UNL     1       9.496  10.916  18.566  0.00  0.00    +0.000 C 
BRANCH  13  15
ATOM     15  C   UNL     1       9.662  13.282  17.733  0.00  0.00    +0.000 C 
BRANCH  15  16
ATOM     16  C   UNL     1      11.111  13.165  17.239  0.00  0.00    +0.000 C 
BRANCH  16  18
ATOM     17  C   UNL     1      12.272  15.382  17.700  0.00  0.00    +0.000 C 
ATOM     18  C   UNL     1      12.148  13.913  18.102  0.00  0.00    +0.000 C 
ATOM     19  C   UNL     1      11.786  13.816  19.586  0.00  0.00    +0.000 C 
ENDBRANCH  16  18
ENDBRANCH  15  16
ENDBRANCH  13  15
ENDBRANCH  11  14
ENDBRANCH   7  12
ENDBRANCH   1   9
BRANCH   4  20
ATOM     20  O   UNL     1       3.273   3.015  17.043  0.00  0.00    +0.000 OA
ATOM     21  H   UNL     1       2.994   2.770  17.950  0.00  0.00    +0.000 HD
ENDBRANCH   4  20
BRANCH   6  22
ATOM     22  O   UNL     1       7.059   5.389  15.464  0.00  0.00    +0.000 OA
ATOM     23  H   UNL     1       7.833   5.473  16.048  0.00  0.00    +0.000 HD
ENDBRANCH   6  22
BRANCH   3  24
ATOM     24  C   UNL     1       2.466   5.272  18.828  0.00  0.00    +0.000 C 
BRANCH  24  25
ATOM     25  C   UNL     1       2.791   4.926  20.283  0.00  0.00    +0.000 C 
BRANCH  25  26
ATOM     26  C   UNL     1       1.783   3.985  20.885  0.00  0.00    +0.000 C 
ATOM     27  O   UNL     1       0.703   3.723  20.374  0.00  0.00    +0.000 OA
BRANCH  26  28
ATOM     28  O   UNL     1       2.206   3.410  22.033  0.00  0.00    +0.000 OA
ATOM     29  H   UNL     1       2.426   2.462  21.950  0.00  0.00    +0.000 HD
ENDBRANCH  26  28
ENDBRANCH  25  26
ENDBRANCH  24  25
ENDBRANCH   3  24
TORSDOF 12
ENDMDL
MODEL 4
REMARK VINA RESULT:      -7.3      1.549      2.256
REMARK  Name = 
REMARK  14 active torsions:
REMARK  status: ('A' for Active; 'I' for Inactive)
REMARK    1  A    between atoms: C_1  and  C_2
REMARK    2  A    between atoms: C_2  and  C_3
REMARK    3  A    between atoms: C_2  and  C_4
REMARK    4  A    between atoms: C_4  and  C_5
REMARK    5  A    between atoms: C_5  and  C_6
REMARK    6  A    between atoms: C_7  and  C_8
REMARK    7  A    between atoms: C_9  and  C_10
REMARK    8  A    between atoms: N_12  and  C_13
REMARK    9  A    between atoms: C_15  and  C_16
REMARK   10  A    between atoms: C_16  and  C_17
REMARK   11  A    between atoms: C_17  and  C_18
REMARK   12  A    between atoms: C_18  and  O_20
REMARK   13  A    between atoms: C_21  and  O_22
REMARK   14  A    between atoms: C_24  and  O_25
REMARK                            x       y       z     vdW  Elec       q    Type
REMARK                         _______ _______ _______ _____ _____    ______ ____
ROOT
ATOM      1  C   UNL     1       5.769   6.574  16.991  0.00  0.00    +0.000 A 
ATOM      2  C   UNL     1       4.530   6.519  17.642  0.00  0.00    +0.000 A 
ATOM      3  C   UNL     1       3.697   5.387  17.541  0.00  0.00    +0.000 A 
ATOM      4  C   UNL     1       4.145   4.310  16.762  0.00  0.00    +0.000 A 
ATOM      5  C   UNL     1       5.361   4.360  16.087  0.00  0.00    +0.000 A 
ATOM      6  C   UNL     1       6.164   5.494  16.195  0.00  0.00    +0.000 A 
ENDROOT
BRANCH   1   9
ATOM      7  C   UNL     1       7.735   7.752  17.958  0.00  0.00    +0.000 C 
ATOM      8  O   UNL     1       8.106   6.890  18.749  0.00  0.00    +0.000 OA
ATOM      9  N   UNL     1       6.666   7.660  17.100  0.00  0.00    +0.000 N 
ATOM     10  H   UNL     1       6.546   8.359  16.373  0.00  0.00    +0.000 HD
BRANCH   7  12
ATOM     11  C   UNL     1       8.986   9.600  18.940  0.00  0.00    +0.000 C 
ATOM     12  C   UNL     1       8.476   9.038  17.833  0.00  0.00    +0.000 C 
BRANCH  11  14
ATOM     13  C   UNL     1      10.358  11.329  17.898  0.00  0.00    +0.000 C 
ATOM     14  C   UNL     1       9.677  10.868  18.959  0.00  0.00    +0.000 C 
BRANCH  13  15
ATOM     15  C   UNL     1      11.095  12.639  17.877  0.00  0.00    +0.000 C 
BRANCH  15  16
ATOM     16  C   UNL     1      10.235  13.804  17.362  0.00  0.00    +0.000 C 
BRANCH  16  18
ATOM     17  C   UNL     1      10.028  14.635  19.759  0.00  0.00    +0.000 C 
ATOM     18  C   UNL     1       9.313  14.441  18.422  0.00  0.00    +0.000 C 
ATOM     19  C   UNL     1       8.773  15.785  17.929  0.00  0.00    +0.000 C 
ENDBRANCH  16  18
ENDBRANCH  15  16
ENDBRANCH  13  15
ENDBRANCH  11  14
ENDBRANCH   7  12
ENDBRANCH   1   9
BRANCH   4  20
ATOM     20  O   UNL     1       3.438   3.146  16.633  0.00  0.00    +0.000 OA
ATOM     21  H   UNL     1       3.731   2.501  17.310  0.00  0.00    +0.000 HD
ENDBRANCH   4  20
BRANCH   6  22
ATOM     22  O   UNL     1       7.371   5.560  15.549  0.00  0.00    +0.000 OA
ATOM     23  H   UNL     1       7.945   4.867  15.920  0.00  0.00    +0.000 HD
ENDBRANCH   6  22
BRANCH   3  24
ATOM     24  C   UNL     1       2.396   5.386  18.315  0.00  0.00    +0.000 C 
BRANCH  24  25
ATOM     25  C   UNL     1       2.400   4.496  19.559  0.00  0.00    +0.000 C 
BRANCH  25  26
ATOM     26  C   UNL     1       1.407   3.370  19.460  0.00  0.00    +0.000 C 
ATOM     27  O   UNL     1       1.481   2.464  18.641  0.00  0.00    +0.000 OA
BRANCH  26  28
ATOM     28  O   UNL     1       0.438   3.425  20.402  0.00  0.00    +0.000 OA
ATOM     29  H   UNL     1      -0.134   4.214  20.344  0.00  0.00    +0.000 HD
ENDBRANCH  26  28
ENDBRANCH  25  26
ENDBRANCH  24  25
ENDBRANCH   3  24
TORSDOF 12
ENDMDL
MODEL 5
REMARK VINA RESULT:      -7.3      1.089      1.574
REMARK  Name = 
REMARK  14 active torsions:
REMARK  status: ('A' for Active; 'I' for Inactive)
REMARK    1  A    between atoms: C_1  and  C_2
REMARK    2  A    between atoms: C_2  and  C_3
REMARK    3  A    between atoms: C_2  and  C_4
REMARK    4  A    between atoms: C_4  and  C_5
REMARK    5  A    between atoms: C_5  and  C_6
REMARK    6  A    between atoms: C_7  and  C_8
REMARK    7  A    between atoms: C_9  and  C_10
REMARK    8  A    between atoms: N_12  and  C_13
REMARK    9  A    between atoms: C_15  and  C_16
REMARK   10  A    between atoms: C_16  and  C_17
REMARK   11  A    between atoms: C_17  and  C_18
REMARK   12  A    between atoms: C_18  and  O_20
REMARK   13  A    between atoms: C_21  and  O_22
REMARK   14  A    between atoms: C_24  and  O_25
REMARK                            x       y       z     vdW  Elec       q    Type
REMARK                         _______ _______ _______ _____ _____    ______ ____
ROOT
ATOM      1  C   UNL     1       5.224   4.845  18.090  0.00  0.00    +0.000 A 
ATOM      2  C   UNL     1       4.811   4.193  19.259  0.00  0.00    +0.000 A 
ATOM      3  C   UNL     1       3.876   3.140  19.222  0.00  0.00    +0.000 A 
ATOM      4  C   UNL     1       3.361   2.763  17.974  0.00  0.00    +0.000 A 
ATOM      5  C   UNL     1       3.740   3.418  16.805  0.00  0.00    +0.000 A 
ATOM      6  C   UNL     1       4.660   4.462  16.868  0.00  0.00    +0.000 A 
ENDROOT
BRANCH   1   9
ATOM      7  C   UNL     1       7.381   5.888  18.760  0.00  0.00    +0.000 C 
ATOM      8  O   UNL     1       7.802   5.001  19.496  0.00  0.00    +0.000 OA
ATOM      9  N   UNL     1       6.196   5.869  18.062  0.00  0.00    +0.000 N 
ATOM     10  H   UNL     1       6.021   6.576  17.355  0.00  0.00    +0.000 HD
BRANCH   7  12
ATOM     11  C   UNL     1       7.595   8.158  17.898  0.00  0.00    +0.000 C 
ATOM     12  C   UNL     1       8.179   7.122  18.521  0.00  0.00    +0.000 C 
BRANCH  11  14
ATOM     13  C   UNL     1       8.973  10.091  18.466  0.00  0.00    +0.000 C 
ATOM     14  C   UNL     1       8.275   9.388  17.562  0.00  0.00    +0.000 C 
BRANCH  13  15
ATOM     15  C   UNL     1       9.691  11.376  18.160  0.00  0.00    +0.000 C 
BRANCH  15  16
ATOM     16  C   UNL     1       9.303  12.521  19.106  0.00  0.00    +0.000 C 
BRANCH  16  18
ATOM     17  C   UNL     1       9.748  12.413  21.610  0.00  0.00    +0.000 C 
ATOM     18  C   UNL     1      10.314  12.790  20.241  0.00  0.00    +0.000 C 
ATOM     19  C   UNL     1      11.616  12.024  19.995  0.00  0.00    +0.000 C 
ENDBRANCH  16  18
ENDBRANCH  15  16
ENDBRANCH  13  15
ENDBRANCH  11  14
ENDBRANCH   7  12
ENDBRANCH   1   9
BRANCH   4  20
ATOM     20  O   UNL     1       2.483   1.726  17.817  0.00  0.00    +0.000 OA
ATOM     21  H   UNL     1       1.843   1.935  17.105  0.00  0.00    +0.000 HD
ENDBRANCH   4  20
BRANCH   6  22
ATOM     22  O   UNL     1       5.057   5.114  15.729  0.00  0.00    +0.000 OA
ATOM     23  H   UNL     1       6.015   5.275  15.797  0.00  0.00    +0.000 HD
ENDBRANCH   6  22
BRANCH   3  24
ATOM     24  C   UNL     1       3.520   2.455  20.524  0.00  0.00    +0.000 C 
BRANCH  24  25
ATOM     25  C   UNL     1       2.525   3.225  21.395  0.00  0.00    +0.000 C 
BRANCH  25  26
ATOM     26  C   UNL     1       1.329   3.698  20.614  0.00  0.00    +0.000 C 
ATOM     27  O   UNL     1       0.574   2.953  20.003  0.00  0.00    +0.000 OA
BRANCH  26  28
ATOM     28  O   UNL     1       1.133   5.033  20.691  0.00  0.00    +0.000 OA
ATOM     29  H   UNL     1       1.424   5.434  21.532  0.00  0.00    +0.000 HD
ENDBRANCH  26  28
ENDBRANCH  25  26
ENDBRANCH  24  25
ENDBRANCH   3  24
TORSDOF 12
ENDMDL
MODEL 6
REMARK VINA RESULT:      -7.2      1.271      1.735
REMARK  Name = 
REMARK  14 active torsions:
REMARK  status: ('A' for Active; 'I' for Inactive)
REMARK    1  A    between atoms: C_1  and  C_2
REMARK    2  A    between atoms: C_2  and  C_3
REMARK    3  A    between atoms: C_2  and  C_4
REMARK    4  A    between atoms: C_4  and  C_5
REMARK    5  A    between atoms: C_5  and  C_6
REMARK    6  A    between atoms: C_7  and  C_8
REMARK    7  A    between atoms: C_9  and  C_10
REMARK    8  A    between atoms: N_12  and  C_13
REMARK    9  A    between atoms: C_15  and  C_16
REMARK   10  A    between atoms: C_16  and  C_17
REMARK   11  A    between atoms: C_17  and  C_18
REMARK   12  A    between atoms: C_18  and  O_20
REMARK   13  A    between atoms: C_21  and  O_22
REMARK   14  A    between atoms: C_24  and  O_25
REMARK                            x       y       z     vdW  Elec       q    Type
REMARK                         _______ _______ _______ _____ _____    ______ ____
ROOT
ATOM      1  C   UNL     1       4.919   5.777  17.174  0.00  0.00    +0.000 A 
ATOM      2  C   UNL     1       3.739   5.776  17.929  0.00  0.00    +0.000 A 
ATOM      3  C   UNL     1       2.919   4.632  18.009  0.00  0.00    +0.000 A 
ATOM      4  C   UNL     1       3.318   3.489  17.303  0.00  0.00    +0.000 A 
ATOM      5  C   UNL     1       4.472   3.481  16.525  0.00  0.00    +0.000 A 
ATOM      6  C   UNL     1       5.263   4.627  16.454  0.00  0.00    +0.000 A 
ENDROOT
BRANCH   1   9
ATOM      7  C   UNL     1       7.052   6.956  17.670  0.00  0.00    +0.000 C 
ATOM      8  O   UNL     1       7.615   6.073  18.308  0.00  0.00    +0.000 OA
ATOM      9  N   UNL     1       5.804   6.875  17.100  0.00  0.00    +0.000 N 
ATOM     10  H   UNL     1       5.500   7.598  16.455  0.00  0.00    +0.000 HD
BRANCH   7  12
ATOM     11  C   UNL     1       8.386   8.852  18.424  0.00  0.00    +0.000 C 
ATOM     12  C   UNL     1       7.725   8.260  17.416  0.00  0.00    +0.000 C 
BRANCH  11  14
ATOM     13  C   UNL     1       9.640  10.721  19.368  0.00  0.00    +0.000 C 
ATOM     14  C   UNL     1       9.034  10.139  18.322  0.00  0.00    +0.000 C 
BRANCH  13  15
ATOM     15  C   UNL     1      10.321  12.060  19.306  0.00  0.00    +0.000 C 
BRANCH  15  16
ATOM     16  C   UNL     1       9.586  13.068  18.410  0.00  0.00    +0.000 C 
BRANCH  16  18
ATOM     17  C   UNL     1      11.347  14.900  18.550  0.00  0.00    +0.000 C 
ATOM     18  C   UNL     1      10.507  14.022  17.622  0.00  0.00    +0.000 C 
ATOM     19  C   UNL     1      11.430  13.233  16.690  0.00  0.00    +0.000 C 
ENDBRANCH  16  18
ENDBRANCH  15  16
ENDBRANCH  13  15
ENDBRANCH  11  14
ENDBRANCH   7  12
ENDBRANCH   1   9
BRANCH   4  20
ATOM     20  O   UNL     1       2.622   2.311  17.346  0.00  0.00    +0.000 OA
ATOM     21  H   UNL     1       1.795   2.393  16.828  0.00  0.00    +0.000 HD
ENDBRANCH   4  20
BRANCH   6  22
ATOM     22  O   UNL     1       6.410   4.640  15.706  0.00  0.00    +0.000 OA
ATOM     23  H   UNL     1       6.218   4.199  14.859  0.00  0.00    +0.000 HD
ENDBRANCH   6  22
BRANCH   3  24
ATOM     24  C   UNL     1       1.688   4.696  18.887  0.00  0.00    +0.000 C 
BRANCH  24  25
ATOM     25  C   UNL     1       1.585   3.570  19.917  0.00  0.00    +0.000 C 
BRANCH  25  26
ATOM     26  C   UNL     1       2.083   3.989  21.273  0.00  0.00    +0.000 C 
ATOM     27  O   UNL     1       2.223   3.222  22.216  0.00  0.00    +0.000 OA
BRANCH  26  28
ATOM     28  O   UNL     1       2.412   5.298  21.343  0.00  0.00    +0.000 OA
ATOM     29  H   UNL     1       3.113   5.502  21.992  0.00  0.00    +0.000 HD
ENDBRANCH  26  28
ENDBRANCH  25  26
ENDBRANCH  24  25
ENDBRANCH   3  24
TORSDOF 12
ENDMDL
MODEL 7
REMARK VINA RESULT:      -7.2      1.528      2.147
REMARK  Name = 
REMARK  14 active torsions:
REMARK  status: ('A' for Active; 'I' for Inactive)
REMARK    1  A    between atoms: C_1  and  C_2
REMARK    2  A    between atoms: C_2  and  C_3
REMARK    3  A    between atoms: C_2  and  C_4
REMARK    4  A    between atoms: C_4  and  C_5
REMARK    5  A    between atoms: C_5  and  C_6
REMARK    6  A    between atoms: C_7  and  C_8
REMARK    7  A    between atoms: C_9  and  C_10
REMARK    8  A    between atoms: N_12  and  C_13
REMARK    9  A    between atoms: C_15  and  C_16
REMARK   10  A    between atoms: C_16  and  C_17
REMARK   11  A    between atoms: C_17  and  C_18
REMARK   12  A    between atoms: C_18  and  O_20
REMARK   13  A    between atoms: C_21  and  O_22
REMARK   14  A    between atoms: C_24  and  O_25
REMARK                            x       y       z     vdW  Elec       q    Type
REMARK                         _______ _______ _______ _____ _____    ______ ____
ROOT
ATOM      1  C   UNL     1       5.801   6.038  17.331  0.00  0.00    +0.000 A 
ATOM      2  C   UNL     1       5.152   5.605  18.495  0.00  0.00    +0.000 A 
ATOM      3  C   UNL     1       4.540   4.337  18.565  0.00  0.00    +0.000 A 
ATOM      4  C   UNL     1       4.594   3.519  17.428  0.00  0.00    +0.000 A 
ATOM      5  C   UNL     1       5.210   3.945  16.255  0.00  0.00    +0.000 A 
ATOM      6  C   UNL     1       5.801   5.206  16.207  0.00  0.00    +0.000 A 
ENDROOT
BRANCH   1   9
ATOM      7  C   UNL     1       7.619   7.641  17.891  0.00  0.00    +0.000 C 
ATOM      8  O   UNL     1       8.260   6.940  18.668  0.00  0.00    +0.000 OA
ATOM      9  N   UNL     1       6.475   7.274  17.222  0.00  0.00    +0.000 N 
ATOM     10  H   UNL     1       6.118   7.868  16.479  0.00  0.00    +0.000 HD
BRANCH   7  12
ATOM     11  C   UNL     1       8.761   9.711  18.484  0.00  0.00    +0.000 C 
ATOM     12  C   UNL     1       8.069   9.022  17.563  0.00  0.00    +0.000 C 
BRANCH  11  14
ATOM     13  C   UNL     1      10.406  11.374  17.787  0.00  0.00    +0.000 C 
ATOM     14  C   UNL     1       9.207  11.074  18.309  0.00  0.00    +0.000 C 
BRANCH  13  15
ATOM     15  C   UNL     1      10.912  12.776  17.592  0.00  0.00    +0.000 C 
BRANCH  15  16
ATOM     16  C   UNL     1      10.343  13.768  18.617  0.00  0.00    +0.000 C 
BRANCH  16  18
ATOM     17  C   UNL     1       8.034  14.759  19.027  0.00  0.00    +0.000 C 
ATOM     18  C   UNL     1       9.228  14.687  18.075  0.00  0.00    +0.000 C 
ATOM     19  C   UNL     1       9.768  16.096  17.820  0.00  0.00    +0.000 C 
ENDBRANCH  16  18
ENDBRANCH  15  16
ENDBRANCH  13  15
ENDBRANCH  11  14
ENDBRANCH   7  12
ENDBRANCH   1   9
BRANCH   4  20
ATOM     20  O   UNL     1       4.072   2.254  17.401  0.00  0.00    +0.000 OA
ATOM     21  H   UNL     1       3.985   1.910  18.314  0.00  0.00    +0.000 HD
ENDBRANCH   4  20
BRANCH   6  22
ATOM     22  O   UNL     1       6.424   5.643  15.067  0.00  0.00    +0.000 OA
ATOM     23  H   UNL     1       7.339   5.882  15.301  0.00  0.00    +0.000 HD
ENDBRANCH   6  22
BRANCH   3  24
ATOM     24  C   UNL     1       3.903   3.923  19.875  0.00  0.00    +0.000 C 
BRANCH  24  25
ATOM     25  C   UNL     1       2.465   4.410  20.062  0.00  0.00    +0.000 C 
BRANCH  25  26
ATOM     26  C   UNL     1       1.684   3.535  21.004  0.00  0.00    +0.000 C 
ATOM     27  O   UNL     1       2.060   3.236  22.129  0.00  0.00    +0.000 OA
BRANCH  26  28
ATOM     28  O   UNL     1       0.489   3.143  20.506  0.00  0.00    +0.000 OA
ATOM     29  H   UNL     1       0.549   2.461  19.809  0.00  0.00    +0.000 HD
ENDBRANCH  26  28
ENDBRANCH  25  26
ENDBRANCH  24  25
ENDBRANCH   3  24
TORSDOF 12
ENDMDL
MODEL 8
REMARK VINA RESULT:      -7.1      1.065      1.290
REMARK  Name = 
REMARK  14 active torsions:
REMARK  status: ('A' for Active; 'I' for Inactive)
REMARK    1  A    between atoms: C_1  and  C_2
REMARK    2  A    between atoms: C_2  and  C_3
REMARK    3  A    between atoms: C_2  and  C_4
REMARK    4  A    between atoms: C_4  and  C_5
REMARK    5  A    between atoms: C_5  and  C_6
REMARK    6  A    between atoms: C_7  and  C_8
REMARK    7  A    between atoms: C_9  and  C_10
REMARK    8  A    between atoms: N_12  and  C_13
REMARK    9  A    between atoms: C_15  and  C_16
REMARK   10  A    between atoms: C_16  and  C_17
REMARK   11  A    between atoms: C_17  and  C_18
REMARK   12  A    between atoms: C_18  and  O_20
REMARK   13  A    between atoms: C_21  and  O_22
REMARK   14  A    between atoms: C_24  and  O_25
REMARK                            x       y       z     vdW  Elec       q    Type
REMARK                         _______ _______ _______ _____ _____    ______ ____
ROOT
ATOM      1  C   UNL     1       5.122   5.125  18.043  0.00  0.00    +0.000 A 
ATOM      2  C   UNL     1       3.866   5.283  18.643  0.00  0.00    +0.000 A 
ATOM      3  C   UNL     1       2.813   4.381  18.390  0.00  0.00    +0.000 A 
ATOM      4  C   UNL     1       3.058   3.317  17.510  0.00  0.00    +0.000 A 
ATOM      5  C   UNL     1       4.291   3.162  16.883  0.00  0.00    +0.000 A 
ATOM      6  C   UNL     1       5.315   4.072  17.143  0.00  0.00    +0.000 A 
ENDROOT
BRANCH   1   9
ATOM      7  C   UNL     1       6.756   6.903  17.445  0.00  0.00    +0.000 C 
ATOM      8  O   UNL     1       6.334   7.184  16.328  0.00  0.00    +0.000 OA
ATOM      9  N   UNL     1       6.227   5.967  18.301  0.00  0.00    +0.000 N 
ATOM     10  H   UNL     1       6.550   5.930  19.263  0.00  0.00    +0.000 HD
BRANCH   7  12
ATOM     11  C   UNL     1       7.984   8.955  17.917  0.00  0.00    +0.000 C 
ATOM     12  C   UNL     1       7.932   7.617  18.015  0.00  0.00    +0.000 C 
BRANCH  11  14
ATOM     13  C   UNL     1       9.166  11.078  18.152  0.00  0.00    +0.000 C 
ATOM     14  C   UNL     1       9.092   9.758  18.382  0.00  0.00    +0.000 C 
BRANCH  13  15
ATOM     15  C   UNL     1      10.302  11.949  18.613  0.00  0.00    +0.000 C 
BRANCH  15  16
ATOM     16  C   UNL     1       9.835  13.168  19.422  0.00  0.00    +0.000 C 
BRANCH  16  18
ATOM     17  C   UNL     1      10.174  14.483  21.574  0.00  0.00    +0.000 C 
ATOM     18  C   UNL     1      10.145  13.096  20.931  0.00  0.00    +0.000 C 
ATOM     19  C   UNL     1       9.118  12.218  21.651  0.00  0.00    +0.000 C 
ENDBRANCH  16  18
ENDBRANCH  15  16
ENDBRANCH  13  15
ENDBRANCH  11  14
ENDBRANCH   7  12
ENDBRANCH   1   9
BRANCH   4  20
ATOM     20  O   UNL     1       2.123   2.359  17.229  0.00  0.00    +0.000 OA
ATOM     21  H   UNL     1       2.252   2.024  16.317  0.00  0.00    +0.000 HD
ENDBRANCH   4  20
BRANCH   6  22
ATOM     22  O   UNL     1       6.541   3.933  16.547  0.00  0.00    +0.000 OA
ATOM     23  H   UNL     1       6.697   2.982  16.406  0.00  0.00    +0.000 HD
ENDBRANCH   6  22
BRANCH   3  24
ATOM     24  C   UNL     1       1.503   4.591  19.117  0.00  0.00    +0.000 C 
BRANCH  24  25
ATOM     25  C   UNL     1       1.102   3.443  20.046  0.00  0.00    +0.000 C 
BRANCH  25  26
ATOM     26  C   UNL     1       1.792   3.519  21.380  0.00  0.00    +0.000 C 
ATOM     27  O   UNL     1       1.842   2.591  22.177  0.00  0.00    +0.000 OA
BRANCH  26  28
ATOM     28  O   UNL     1       2.403   4.705  21.601  0.00  0.00    +0.000 OA
ATOM     29  H   UNL     1       2.007   5.456  21.119  0.00  0.00    +0.000 HD
ENDBRANCH  26  28
ENDBRANCH  25  26
ENDBRANCH  24  25
ENDBRANCH   3  24
TORSDOF 12
ENDMDL
MODEL 9
REMARK VINA RESULT:      -7.1      1.076      1.225
REMARK  Name = 
REMARK  14 active torsions:
REMARK  status: ('A' for Active; 'I' for Inactive)
REMARK    1  A    between atoms: C_1  and  C_2
REMARK    2  A    between atoms: C_2  and  C_3
REMARK    3  A    between atoms: C_2  and  C_4
REMARK    4  A    between atoms: C_4  and  C_5
REMARK    5  A    between atoms: C_5  and  C_6
REMARK    6  A    between atoms: C_7  and  C_8
REMARK    7  A    between atoms: C_9  and  C_10
REMARK    8  A    between atoms: N_12  and  C_13
REMARK    9  A    between atoms: C_15  and  C_16
REMARK   10  A    between atoms: C_16  and  C_17
REMARK   11  A    between atoms: C_17  and  C_18
REMARK   12  A    between atoms: C_18  and  O_20
REMARK   13  A    between atoms: C_21  and  O_22
REMARK   14  A    between atoms: C_24  and  O_25
REMARK                            x       y       z     vdW  Elec       q    Type
REMARK                         _______ _______ _______ _____ _____    ______ ____
ROOT
ATOM      1  C   UNL     1       4.931   6.055  17.366  0.00  0.00    +0.000 A 
ATOM      2  C   UNL     1       3.835   5.986  18.236  0.00  0.00    +0.000 A 
ATOM      3  C   UNL     1       2.956   4.884  18.223  0.00  0.00    +0.000 A 
ATOM      4  C   UNL     1       3.209   3.854  17.306  0.00  0.00    +0.000 A 
ATOM      5  C   UNL     1       4.277   3.920  16.416  0.00  0.00    +0.000 A 
ATOM      6  C   UNL     1       5.127   5.024  16.441  0.00  0.00    +0.000 A 
ENDROOT
BRANCH   1   9
ATOM      7  C   UNL     1       7.183   7.029  17.773  0.00  0.00    +0.000 C 
ATOM      8  O   UNL     1       7.761   6.019  18.163  0.00  0.00    +0.000 OA
ATOM      9  N   UNL     1       5.871   7.109  17.371  0.00  0.00    +0.000 N 
ATOM     10  H   UNL     1       5.540   7.951  16.911  0.00  0.00    +0.000 HD
BRANCH   7  12
ATOM     11  C   UNL     1       8.547   8.799  18.748  0.00  0.00    +0.000 C 
ATOM     12  C   UNL     1       7.906   8.326  17.667  0.00  0.00    +0.000 C 
BRANCH  11  14
ATOM     13  C   UNL     1       8.998  11.043  17.902  0.00  0.00    +0.000 C 
ATOM     14  C   UNL     1       9.238  10.066  18.790  0.00  0.00    +0.000 C 
BRANCH  13  15
ATOM     15  C   UNL     1       9.698  12.374  17.906  0.00  0.00    +0.000 C 
BRANCH  15  16
ATOM     16  C   UNL     1      10.755  12.493  19.013  0.00  0.00    +0.000 C 
BRANCH  16  18
ATOM     17  C   UNL     1      11.049  14.796  17.971  0.00  0.00    +0.000 C 
ATOM     18  C   UNL     1      11.373  13.898  19.165  0.00  0.00    +0.000 C 
ATOM     19  C   UNL     1      10.886  14.565  20.454  0.00  0.00    +0.000 C 
ENDBRANCH  16  18
ENDBRANCH  15  16
ENDBRANCH  13  15
ENDBRANCH  11  14
ENDBRANCH   7  12
ENDBRANCH   1   9
BRANCH   4  20
ATOM     20  O   UNL     1       2.448   2.719  17.239  0.00  0.00    +0.000 OA
ATOM     21  H   UNL     1       1.802   2.707  17.976  0.00  0.00    +0.000 HD
ENDBRANCH   4  20
BRANCH   6  22
ATOM     22  O   UNL     1       6.193   5.106  15.583  0.00  0.00    +0.000 OA
ATOM     23  H   UNL     1       5.842   5.234  14.684  0.00  0.00    +0.000 HD
ENDBRANCH   6  22
BRANCH   3  24
ATOM     24  C   UNL     1       1.825   4.860  19.229  0.00  0.00    +0.000 C 
BRANCH  24  25
ATOM     25  C   UNL     1       2.275   4.728  20.686  0.00  0.00    +0.000 C 
BRANCH  25  26
ATOM     26  C   UNL     1       1.834   3.431  21.305  0.00  0.00    +0.000 C 
ATOM     27  O   UNL     1       2.450   2.852  22.190  0.00  0.00    +0.000 OA
BRANCH  26  28
ATOM     28  O   UNL     1       0.654   2.981  20.823  0.00  0.00    +0.000 OA
ATOM     29  H   UNL     1       0.567   2.008  20.818  0.00  0.00    +0.000 HD
ENDBRANCH  26  28
ENDBRANCH  25  26
ENDBRANCH  24  25
ENDBRANCH   3  24
TORSDOF 12
ENDMDL
