MODEL 1
REMARK VINA RESULT:      -6.1      0.000      0.000
REMARK  Name = 
REMARK  3 active torsions:
REMARK  status: ('A' for Active; 'I' for Inactive)
REMARK    1  A    between atoms: C_1  and  O_2
REMARK    2  A    between atoms: O_2  and  C_3
REMARK    3  A    between atoms: C_6  and  N_7
REMARK                            x       y       z     vdW  Elec       q    Type
REMARK                         _______ _______ _______ _____ _____    ______ ____
ROOT
ATOM      1  C   UNL     1       6.801   5.554  16.399  0.00  0.00    +0.000 A 
ATOM      2  C   UNL     1       5.484   5.991  16.270  0.00  0.00    +0.000 A 
ATOM      3  C   UNL     1       4.636   6.035  17.382  0.00  0.00    +0.000 A 
ATOM      4  C   UNL     1       5.085   5.631  18.651  0.00  0.00    +0.000 A 
ATOM      5  C   UNL     1       6.411   5.204  18.759  0.00  0.00    +0.000 A 
ATOM      6  C   UNL     1       7.265   5.164  17.650  0.00  0.00    +0.000 A 
ENDROOT
BRANCH   4   7
ATOM      7  N   UNL     1       4.159   5.564  19.706  0.00  0.00    +0.000 N 
ATOM      8  C   UNL     1       3.309   4.548  20.010  0.00  0.00    +0.000 C 
ATOM      9  N   UNL     1       3.256   3.342  19.529  0.00  0.00    +0.000 NA
ATOM     10  C   UNL     1       2.062   2.721  20.140  0.00  0.00    +0.000 C 
ATOM     11  C   UNL     1       1.433   3.777  21.048  0.00  0.00    +0.000 C 
ATOM     12  N   UNL     1       2.358   4.888  20.932  0.00  0.00    +0.000 N 
ATOM     13  H   UNL     1       4.107   6.384  20.290  0.00  0.00    +0.000 HD
ATOM     14  H   UNL     1       1.914   5.778  20.749  0.00  0.00    +0.000 HD
ENDBRANCH   4   7
BRANCH   1  16
ATOM     15  C   UNL     1       6.928   4.775  14.172  0.00  0.00    +0.000 C 
ATOM     16  O   UNL     1       7.522   5.509  15.237  0.00  0.00    +0.000 OA
ENDBRANCH   1  16
TORSDOF 2
ENDMDL
MODEL 2
REMARK VINA RESULT:      -6.0      2.035      2.816
REMARK  Name = 
REMARK  3 active torsions:
REMARK  status: ('A' for Active; 'I' for Inactive)
REMARK    1  A    between atoms: C_1  and  O_2
REMARK    2  A    between atoms: O_2  and  C_3
REMARK    3  A    between atoms: C_6  and  N_7
REMARK                            x       y       z     vdW  Elec       q    Type
REMARK                         _______ _______ _______ _____ _____    ______ ____
ROOT
ATOM      1  C   UNL     1       7.015   6.064  16.699  0.00  0.00    +0.000 A 
ATOM      2  C   UNL     1       6.741   5.656  18.003  0.00  0.00    +0.000 A 
ATOM      3  C   UNL     1       5.920   4.550  18.246  0.00  0.00    +0.000 A 
ATOM      4  C   UNL     1       5.343   3.831  17.186  0.00  0.00    +0.000 A 
ATOM      5  C   UNL     1       5.635   4.252  15.886  0.00  0.00    +0.000 A 
ATOM      6  C   UNL     1       6.463   5.354  15.638  0.00  0.00    +0.000 A 
ENDROOT
BRANCH   4   7
ATOM      7  N   UNL     1       4.418   2.815  17.483  0.00  0.00    +0.000 N 
ATOM      8  C   UNL     1       3.116   2.950  17.851  0.00  0.00    +0.000 C 
ATOM      9  N   UNL     1       2.363   4.008  17.854  0.00  0.00    +0.000 NA
ATOM     10  C   UNL     1       1.084   3.586  18.463  0.00  0.00    +0.000 C 
ATOM     11  C   UNL     1       1.233   2.108  18.820  0.00  0.00    +0.000 C 
ATOM     12  N   UNL     1       2.558   1.793  18.321  0.00  0.00    +0.000 N 
ATOM     13  H   UNL     1       4.777   1.875  17.440  0.00  0.00    +0.000 HD
ATOM     14  H   UNL     1       3.142   1.299  18.983  0.00  0.00    +0.000 HD
ENDBRANCH   4   7
BRANCH   1  16
ATOM     15  C   UNL     1       7.841   8.020  17.734  0.00  0.00    +0.000 C 
ATOM     16  O   UNL     1       7.791   7.184  16.583  0.00  0.00    +0.000 OA
ENDBRANCH   1  16
TORSDOF 2
ENDMDL
MODEL 3
REMARK VINA RESULT:      -6.0      2.442      3.310
REMARK  Name = 
REMARK  3 active torsions:
REMARK  status: ('A' for Active; 'I' for Inactive)
REMARK    1  A    between atoms: C_1  and  O_2
REMARK    2  A    between atoms: O_2  and  C_3
REMARK    3  A    between atoms: C_6  and  N_7
REMARK                            x       y       z     vdW  Elec       q    Type
REMARK                         _______ _______ _______ _____ _____    ______ ____
ROOT
ATOM      1  C   UNL     1       7.736   7.880  17.768  0.00  0.00    +0.000 A 
ATOM      2  C   UNL     1       8.219   7.106  18.820  0.00  0.00    +0.000 A 
ATOM      3  C   UNL     1       7.726   5.815  19.040  0.00  0.00    +0.000 A 
ATOM      4  C   UNL     1       6.725   5.273  18.216  0.00  0.00    +0.000 A 
ATOM      5  C   UNL     1       6.259   6.064  17.163  0.00  0.00    +0.000 A 
ATOM      6  C   UNL     1       6.756   7.353  16.934  0.00  0.00    +0.000 A 
ENDROOT
BRANCH   4   7
ATOM      7  N   UNL     1       6.166   4.030  18.560  0.00  0.00    +0.000 N 
ATOM      8  C   UNL     1       4.977   3.788  19.173  0.00  0.00    +0.000 C 
ATOM      9  N   UNL     1       4.000   4.604  19.434  0.00  0.00    +0.000 NA
ATOM     10  C   UNL     1       3.022   3.818  20.216  0.00  0.00    +0.000 C 
ATOM     11  C   UNL     1       3.607   2.414  20.368  0.00  0.00    +0.000 C 
ATOM     12  N   UNL     1       4.836   2.497  19.602  0.00  0.00    +0.000 N 
ATOM     13  H   UNL     1       6.732   3.225  18.345  0.00  0.00    +0.000 HD
ATOM     14  H   UNL     1       5.649   2.138  20.086  0.00  0.00    +0.000 HD
ENDBRANCH   4   7
BRANCH   1  16
ATOM     15  C   UNL     1       8.886   9.634  18.856  0.00  0.00    +0.000 C 
ATOM     16  O   UNL     1       8.258   9.141  17.677  0.00  0.00    +0.000 OA
ENDBRANCH   1  16
TORSDOF 2
ENDMDL
MODEL 4
REMARK VINA RESULT:      -5.9      1.405      1.673
REMARK  Name = 
REMARK  3 active torsions:
REMARK  status: ('A' for Active; 'I' for Inactive)
REMARK    1  A    between atoms: C_1  and  O_2
REMARK    2  A    between atoms: O_2  and  C_3
REMARK    3  A    between atoms: C_6  and  N_7
REMARK                            x       y       z     vdW  Elec       q    Type
REMARK                         _______ _______ _______ _____ _____    ______ ____
ROOT
ATOM      1  C   UNL     1       5.953   5.530  16.100  0.00  0.00    +0.000 A 
ATOM      2  C   UNL     1       5.322   4.288  16.141  0.00  0.00    +0.000 A 
ATOM      3  C   UNL     1       4.133   4.117  16.857  0.00  0.00    +0.000 A 
ATOM      4  C   UNL     1       3.550   5.185  17.560  0.00  0.00    +0.000 A 
ATOM      5  C   UNL     1       4.195   6.423  17.500  0.00  0.00    +0.000 A 
ATOM      6  C   UNL     1       5.382   6.601  16.779  0.00  0.00    +0.000 A 
ENDROOT
BRANCH   4   7
ATOM      7  N   UNL     1       2.433   4.930  18.373  0.00  0.00    +0.000 N 
ATOM      8  C   UNL     1       2.372   4.166  19.496  0.00  0.00    +0.000 C 
ATOM      9  N   UNL     1       3.335   3.634  20.187  0.00  0.00    +0.000 NA
ATOM     10  C   UNL     1       2.676   2.817  21.228  0.00  0.00    +0.000 C 
ATOM     11  C   UNL     1       1.170   2.963  21.013  0.00  0.00    +0.000 C 
ATOM     12  N   UNL     1       1.096   3.904  19.912  0.00  0.00    +0.000 N 
ATOM     13  H   UNL     1       1.569   5.347  18.067  0.00  0.00    +0.000 HD
ATOM     14  H   UNL     1       0.476   3.619  19.165  0.00  0.00    +0.000 HD
ENDBRANCH   4   7
BRANCH   1  16
ATOM     15  C   UNL     1       7.147   4.858  14.176  0.00  0.00    +0.000 C 
ATOM     16  O   UNL     1       7.132   5.569  15.409  0.00  0.00    +0.000 OA
ENDBRANCH   1  16
TORSDOF 2
ENDMDL
MODEL 5
REMARK VINA RESULT:      -5.9      1.904      2.516
REMARK  Name = 
REMARK  3 active torsions:
REMARK  status: ('A' for Active; 'I' for Inactive)
REMARK    1  A    between atoms: C_1  and  O_2
REMARK    2  A    between atoms: O_2  and  C_3
REMARK    3  A    between atoms: C_6  and  N_7
REMARK                            x       y       z     vdW  Elec       q    Type
REMARK                         _______ _______ _______ _____ _____    ______ ____
ROOT
ATOM      1  C   UNL     1       6.892   6.448  17.118  0.00  0.00    +0.000 A 
ATOM      2  C   UNL     1       6.065   5.965  16.106  0.00  0.00    +0.000 A 
ATOM      3  C   UNL     1       5.209   4.884  16.341  0.00  0.00    +0.000 A 
ATOM      4  C   UNL     1       5.169   4.251  17.595  0.00  0.00    +0.000 A 
ATOM      5  C   UNL     1       6.002   4.755  18.598  0.00  0.00    +0.000 A 
ATOM      6  C   UNL     1       6.855   5.842  18.369  0.00  0.00    +0.000 A 
ENDROOT
BRANCH   4   7
ATOM      7  N   UNL     1       4.396   3.087  17.741  0.00  0.00    +0.000 N 
ATOM      8  C   UNL     1       3.111   2.984  18.172  0.00  0.00    +0.000 C 
ATOM      9  N   UNL     1       2.233   3.918  18.386  0.00  0.00    +0.000 NA
ATOM     10  C   UNL     1       1.053   3.234  18.956  0.00  0.00    +0.000 C 
ATOM     11  C   UNL     1       1.405   1.749  19.043  0.00  0.00    +0.000 C 
ATOM     12  N   UNL     1       2.728   1.701  18.451  0.00  0.00    +0.000 N 
ATOM     13  H   UNL     1       4.867   2.224  17.522  0.00  0.00    +0.000 HD
ATOM     14  H   UNL     1       3.406   1.184  18.996  0.00  0.00    +0.000 HD
ENDBRANCH   4   7
BRANCH   1  16
ATOM     15  C   UNL     1       7.950   8.458  17.766  0.00  0.00    +0.000 C 
ATOM     16  O   UNL     1       7.719   7.477  16.761  0.00  0.00    +0.000 OA
ENDBRANCH   1  16
TORSDOF 2
ENDMDL
MODEL 6
REMARK VINA RESULT:      -5.9      1.282      1.452
REMARK  Name = 
REMARK  3 active torsions:
REMARK  status: ('A' for Active; 'I' for Inactive)
REMARK    1  A    between atoms: C_1  and  O_2
REMARK    2  A    between atoms: O_2  and  C_3
REMARK    3  A    between atoms: C_6  and  N_7
REMARK                            x       y       z     vdW  Elec       q    Type
REMARK                         _______ _______ _______ _____ _____    ______ ____
ROOT
ATOM      1  C   UNL     1       6.609   5.156  16.313  0.00  0.00    +0.000 A 
ATOM      2  C   UNL     1       5.582   4.263  16.015  0.00  0.00    +0.000 A 
ATOM      3  C   UNL     1       4.831   3.674  17.038  0.00  0.00    +0.000 A 
ATOM      4  C   UNL     1       5.099   3.958  18.387  0.00  0.00    +0.000 A 
ATOM      5  C   UNL     1       6.128   4.861  18.664  0.00  0.00    +0.000 A 
ATOM      6  C   UNL     1       6.878   5.458  17.643  0.00  0.00    +0.000 A 
ENDROOT
BRANCH   4   7
ATOM      7  N   UNL     1       4.410   3.239  19.379  0.00  0.00    +0.000 N 
ATOM      8  C   UNL     1       3.153   3.456  19.849  0.00  0.00    +0.000 C 
ATOM      9  N   UNL     1       2.225   4.246  19.396  0.00  0.00    +0.000 NA
ATOM     10  C   UNL     1       1.117   4.160  20.371  0.00  0.00    +0.000 C 
ATOM     11  C   UNL     1       1.568   3.193  21.465  0.00  0.00    +0.000 C 
ATOM     12  N   UNL     1       2.866   2.756  20.989  0.00  0.00    +0.000 N 
ATOM     13  H   UNL     1       4.926   2.488  19.808  0.00  0.00    +0.000 HD
ATOM     14  H   UNL     1       3.598   2.798  21.686  0.00  0.00    +0.000 HD
ENDBRANCH   4   7
BRANCH   1  16
ATOM     15  C   UNL     1       7.131   4.912  14.022  0.00  0.00    +0.000 C 
ATOM     16  O   UNL     1       7.305   5.633  15.237  0.00  0.00    +0.000 OA
ENDBRANCH   1  16
TORSDOF 2
ENDMDL
MODEL 7
REMARK VINA RESULT:      -5.8      3.251      5.751
REMARK  Name = 
REMARK  3 active torsions:
REMARK  status: ('A' for Active; 'I' for Inactive)
REMARK    1  A    between atoms: C_1  and  O_2
REMARK    2  A    between atoms: O_2  and  C_3
REMARK    3  A    between atoms: C_6  and  N_7
REMARK                            x       y       z     vdW  Elec       q    Type
REMARK                         _______ _______ _______ _____ _____    ______ ____
ROOT
ATOM      1  C   UNL     1       1.845   3.502  19.222  0.00  0.00    +0.000 A 
ATOM      2  C   UNL     1       2.070   4.813  19.638  0.00  0.00    +0.000 A 
ATOM      3  C   UNL     1       2.932   5.650  18.921  0.00  0.00    +0.000 A 
ATOM      4  C   UNL     1       3.600   5.189  17.774  0.00  0.00    +0.000 A 
ATOM      5  C   UNL     1       3.355   3.874  17.371  0.00  0.00    +0.000 A 
ATOM      6  C   UNL     1       2.488   3.035  18.081  0.00  0.00    +0.000 A 
ENDROOT
BRANCH   4   7
ATOM      7  N   UNL     1       4.558   6.021  17.169  0.00  0.00    +0.000 N 
ATOM      8  C   UNL     1       5.827   6.276  17.585  0.00  0.00    +0.000 C 
ATOM      9  N   UNL     1       6.522   5.700  18.519  0.00  0.00    +0.000 NA
ATOM     10  C   UNL     1       7.784   6.466  18.607  0.00  0.00    +0.000 C 
ATOM     11  C   UNL     1       7.692   7.585  17.571  0.00  0.00    +0.000 C 
ATOM     12  N   UNL     1       6.416   7.323  16.932  0.00  0.00    +0.000 N 
ATOM     13  H   UNL     1       4.251   6.504  16.341  0.00  0.00    +0.000 HD
ATOM     14  H   UNL     1       5.821   8.137  16.848  0.00  0.00    +0.000 HD
ENDBRANCH   4   7
BRANCH   1  16
ATOM     15  C   UNL     1       1.358   2.750  21.408  0.00  0.00    +0.000 C 
ATOM     16  O   UNL     1       1.021   2.763  20.025  0.00  0.00    +0.000 OA
ENDBRANCH   1  16
TORSDOF 2
ENDMDL
MODEL 8
REMARK VINA RESULT:      -5.8      1.589      2.178
REMARK  Name = 
REMARK  3 active torsions:
REMARK  status: ('A' for Active; 'I' for Inactive)
REMARK    1  A    between atoms: C_1  and  O_2
REMARK    2  A    between atoms: O_2  and  C_3
REMARK    3  A    between atoms: C_6  and  N_7
REMARK                            x       y       z     vdW  Elec       q    Type
REMARK                         _______ _______ _______ _____ _____    ______ ____
ROOT
ATOM      1  C   UNL     1       6.919   6.843  17.503  0.00  0.00    +0.000 A 
ATOM      2  C   UNL     1       5.712   6.689  16.824  0.00  0.00    +0.000 A 
ATOM      3  C   UNL     1       4.786   5.721  17.228  0.00  0.00    +0.000 A 
ATOM      4  C   UNL     1       5.054   4.873  18.316  0.00  0.00    +0.000 A 
ATOM      5  C   UNL     1       6.268   5.048  18.986  0.00  0.00    +0.000 A 
ATOM      6  C   UNL     1       7.194   6.021  18.590  0.00  0.00    +0.000 A 
ENDROOT
BRANCH   4   7
ATOM      7  N   UNL     1       4.157   3.828  18.596  0.00  0.00    +0.000 N 
ATOM      8  C   UNL     1       3.004   3.885  19.314  0.00  0.00    +0.000 C 
ATOM      9  N   UNL     1       2.361   4.920  19.765  0.00  0.00    +0.000 NA
ATOM     10  C   UNL     1       1.247   4.377  20.572  0.00  0.00    +0.000 C 
ATOM     11  C   UNL     1       1.365   2.854  20.516  0.00  0.00    +0.000 C 
ATOM     12  N   UNL     1       2.493   2.655  19.626  0.00  0.00    +0.000 N 
ATOM     13  H   UNL     1       4.419   2.923  18.238  0.00  0.00    +0.000 HD
ATOM     14  H   UNL     1       3.184   2.004  19.975  0.00  0.00    +0.000 HD
ENDBRANCH   4   7
BRANCH   1  16
ATOM     15  C   UNL     1       8.086   8.864  17.867  0.00  0.00    +0.000 C 
ATOM     16  O   UNL     1       7.765   7.789  16.992  0.00  0.00    +0.000 OA
ENDBRANCH   1  16
TORSDOF 2
ENDMDL
MODEL 9
REMARK VINA RESULT:      -5.8      0.595      1.401
REMARK  Name = 
REMARK  3 active torsions:
REMARK  status: ('A' for Active; 'I' for Inactive)
REMARK    1  A    between atoms: C_1  and  O_2
REMARK    2  A    between atoms: O_2  and  C_3
REMARK    3  A    between atoms: C_6  and  N_7
REMARK                            x       y       z     vdW  Elec       q    Type
REMARK                         _______ _______ _______ _____ _____    ______ ____
ROOT
ATOM      1  C   UNL     1       6.834   4.959  15.984  0.00  0.00    +0.000 A 
ATOM      2  C   UNL     1       7.324   4.803  17.279  0.00  0.00    +0.000 A 
ATOM      3  C   UNL     1       6.459   4.843  18.378  0.00  0.00    +0.000 A 
ATOM      4  C   UNL     1       5.080   5.051  18.206  0.00  0.00    +0.000 A 
ATOM      5  C   UNL     1       4.609   5.198  16.898  0.00  0.00    +0.000 A 
ATOM      6  C   UNL     1       5.470   5.152  15.795  0.00  0.00    +0.000 A 
ENDROOT
BRANCH   4   7
ATOM      7  N   UNL     1       4.274   5.220  19.345  0.00  0.00    +0.000 N 
ATOM      8  C   UNL     1       3.408   4.328  19.896  0.00  0.00    +0.000 C 
ATOM      9  N   UNL     1       3.237   3.068  19.630  0.00  0.00    +0.000 NA
ATOM     10  C   UNL     1       2.086   2.639  20.452  0.00  0.00    +0.000 C 
ATOM     11  C   UNL     1       1.619   3.868  21.230  0.00  0.00    +0.000 C 
ATOM     12  N   UNL     1       2.584   4.878  20.839  0.00  0.00    +0.000 N 
ATOM     13  H   UNL     1       4.331   6.123  19.786  0.00  0.00    +0.000 HD
ATOM     14  H   UNL     1       2.172   5.757  20.556  0.00  0.00    +0.000 HD
ENDBRANCH   4   7
BRANCH   1  16
ATOM     15  C   UNL     1       7.272   4.881  13.664  0.00  0.00    +0.000 C 
ATOM     16  O   UNL     1       7.777   4.949  14.993  0.00  0.00    +0.000 OA
ENDBRANCH   1  16
TORSDOF 2
ENDMDL
