MODEL 1
REMARK VINA RESULT:      -6.8      0.000      0.000
REMARK  Name = 
REMARK  5 active torsions:
REMARK  status: ('A' for Active; 'I' for Inactive)
REMARK    1  A    between atoms: C_1  and  C_2
REMARK    2  A    between atoms: C_2  and  C_3
REMARK    3  A    between atoms: C_4  and  C_5
REMARK    4  A    between atoms: C_10  and  N_11
REMARK    5  A    between atoms: C_14  and  C_15
REMARK                            x       y       z     vdW  Elec       q    Type
REMARK                         _______ _______ _______ _____ _____    ______ ____
ROOT
ATOM      1  N   UNL     1       1.637  11.330  19.401  0.00  0.00    +0.000 NA
ATOM      2  C   UNL     1       2.034  12.142  18.240  0.00  0.00    +0.000 C 
ATOM      3  C   UNL     1       2.790  13.422  18.603  0.00  0.00    +0.000 C 
ATOM      4  C   UNL     1       1.993  14.279  19.582  0.00  0.00    +0.000 C 
ATOM      5  C   UNL     1       1.692  13.428  20.816  0.00  0.00    +0.000 C 
ATOM      6  C   UNL     1       1.024  12.090  20.488  0.00  0.00    +0.000 C 
ENDROOT
BRANCH   1  12
ATOM      7  C   UNL     1       2.454   6.112  19.697  0.00  0.00    +0.000 C 
ATOM      8  O   UNL     1       2.149   5.496  20.715  0.00  0.00    +0.000 OA
ATOM      9  N   UNL     1       2.088   7.429  19.454  0.00  0.00    +0.000 N 
ATOM     10  C   UNL     1       1.470   8.149  20.562  0.00  0.00    +0.000 C 
ATOM     11  C   UNL     1       0.414   9.129  20.079  0.00  0.00    +0.000 C 
ATOM     12  C   UNL     1       0.898  10.103  18.982  0.00  0.00    +0.000 C 
ATOM     13  C   UNL     1       1.571   9.279  17.863  0.00  0.00    +0.000 C 
ATOM     14  C   UNL     1       2.586   8.241  18.343  0.00  0.00    +0.000 C 
BRANCH   7  18
ATOM     15  C   UNL     1       3.686   3.638  17.018  0.00  0.00    +0.000 C 
ATOM     16  C   UNL     1       2.785   4.382  17.964  0.00  0.00    +0.000 C 
ATOM     17  C   UNL     1       1.369   3.893  18.093  0.00  0.00    +0.000 C 
ATOM     18  C   UNL     1       3.267   5.433  18.659  0.00  0.00    +0.000 C 
ENDBRANCH   7  18
ENDBRANCH   1  12
BRANCH   4  19
ATOM     19  C   UNL     1       0.698  14.850  18.976  0.00  0.00    +0.000 C 
ATOM     20  O   UNL     1      -0.229  14.102  18.657  0.00  0.00    +0.000 OA
ATOM     21  N   UNL     1       0.578  16.215  18.795  0.00  0.00    +0.000 N 
ATOM     22  C   UNL     1       1.571  17.241  19.116  0.00  0.00    +0.000 C 
ATOM     23  C   UNL     1       1.110  18.037  20.342  0.00  0.00    +0.000 C 
ATOM     24  O   UNL     1      -0.187  18.617  20.116  0.00  0.00    +0.000 OA
ATOM     25  C   UNL     1      -1.168  17.603  19.826  0.00  0.00    +0.000 C 
ATOM     26  C   UNL     1      -0.766  16.776  18.595  0.00  0.00    +0.000 C 
ENDBRANCH   4  19
TORSDOF 3
ENDMDL
MODEL 2
REMARK VINA RESULT:      -6.5      2.848      3.994
REMARK  Name = 
REMARK  5 active torsions:
REMARK  status: ('A' for Active; 'I' for Inactive)
REMARK    1  A    between atoms: C_1  and  C_2
REMARK    2  A    between atoms: C_2  and  C_3
REMARK    3  A    between atoms: C_4  and  C_5
REMARK    4  A    between atoms: C_10  and  N_11
REMARK    5  A    between atoms: C_14  and  C_15
REMARK                            x       y       z     vdW  Elec       q    Type
REMARK                         _______ _______ _______ _____ _____    ______ ____
ROOT
ATOM      1  N   UNL     1       1.816   8.358  19.490  0.00  0.00    +0.000 NA
ATOM      2  C   UNL     1       1.650   9.250  18.331  0.00  0.00    +0.000 C 
ATOM      3  C   UNL     1       1.776  10.737  18.664  0.00  0.00    +0.000 C 
ATOM      4  C   UNL     1       0.805  11.143  19.769  0.00  0.00    +0.000 C 
ATOM      5  C   UNL     1       1.083  10.262  20.988  0.00  0.00    +0.000 C 
ATOM      6  C   UNL     1       1.065   8.764  20.676  0.00  0.00    +0.000 C 
ENDROOT
BRANCH   1  12
ATOM      7  C   UNL     1       5.114   4.368  18.402  0.00  0.00    +0.000 C 
ATOM      8  O   UNL     1       5.582   3.687  19.311  0.00  0.00    +0.000 OA
ATOM      9  N   UNL     1       4.091   5.289  18.576  0.00  0.00    +0.000 N 
ATOM     10  C   UNL     1       3.700   5.576  19.951  0.00  0.00    +0.000 C 
ATOM     11  C   UNL     1       2.208   5.846  20.070  0.00  0.00    +0.000 C 
ATOM     12  C   UNL     1       1.674   6.924  19.101  0.00  0.00    +0.000 C 
ATOM     13  C   UNL     1       2.154   6.577  17.675  0.00  0.00    +0.000 C 
ATOM     14  C   UNL     1       3.640   6.237  17.556  0.00  0.00    +0.000 C 
BRANCH   7  18
ATOM     15  C   UNL     1       7.099   4.913  15.148  0.00  0.00    +0.000 C 
ATOM     16  C   UNL     1       6.662   5.006  16.584  0.00  0.00    +0.000 C 
ATOM     17  C   UNL     1       7.373   6.005  17.455  0.00  0.00    +0.000 C 
ATOM     18  C   UNL     1       5.664   4.218  17.033  0.00  0.00    +0.000 C 
ENDBRANCH   7  18
ENDBRANCH   1  12
BRANCH   4  19
ATOM     19  C   UNL     1      -0.672  11.049  19.346  0.00  0.00    +0.000 C 
ATOM     20  O   UNL     1      -1.195   9.953  19.129  0.00  0.00    +0.000 OA
ATOM     21  N   UNL     1      -1.415  12.207  19.213  0.00  0.00    +0.000 N 
ATOM     22  C   UNL     1      -0.960  13.580  19.429  0.00  0.00    +0.000 C 
ATOM     23  C   UNL     1      -1.574  14.128  20.722  0.00  0.00    +0.000 C 
ATOM     24  O   UNL     1      -3.010  14.055  20.676  0.00  0.00    +0.000 OA
ATOM     25  C   UNL     1      -3.457  12.699  20.489  0.00  0.00    +0.000 C 
ATOM     26  C   UNL     1      -2.881  12.096  19.198  0.00  0.00    +0.000 C 
ENDBRANCH   4  19
TORSDOF 3
ENDMDL
MODEL 3
REMARK VINA RESULT:      -6.4      1.331      1.397
REMARK  Name = 
REMARK  5 active torsions:
REMARK  status: ('A' for Active; 'I' for Inactive)
REMARK    1  A    between atoms: C_1  and  C_2
REMARK    2  A    between atoms: C_2  and  C_3
REMARK    3  A    between atoms: C_4  and  C_5
REMARK    4  A    between atoms: C_10  and  N_11
REMARK    5  A    between atoms: C_14  and  C_15
REMARK                            x       y       z     vdW  Elec       q    Type
REMARK                         _______ _______ _______ _____ _____    ______ ____
ROOT
ATOM      1  N   UNL     1       1.579  11.447  19.337  0.00  0.00    +0.000 NA
ATOM      2  C   UNL     1       1.645  12.385  18.206  0.00  0.00    +0.000 C 
ATOM      3  C   UNL     1       2.373  13.693  18.521  0.00  0.00    +0.000 C 
ATOM      4  C   UNL     1       1.763  14.390  19.733  0.00  0.00    +0.000 C 
ATOM      5  C   UNL     1       1.811  13.416  20.911  0.00  0.00    +0.000 C 
ATOM      6  C   UNL     1       1.180  12.055  20.604  0.00  0.00    +0.000 C 
ENDROOT
BRANCH   1  12
ATOM      7  C   UNL     1       2.529   6.253  19.670  0.00  0.00    +0.000 C 
ATOM      8  O   UNL     1       2.283   5.645  20.709  0.00  0.00    +0.000 OA
ATOM      9  N   UNL     1       2.122   7.557  19.425  0.00  0.00    +0.000 N 
ATOM     10  C   UNL     1       1.537   8.280  20.549  0.00  0.00    +0.000 C 
ATOM     11  C   UNL     1       0.438   9.229  20.100  0.00  0.00    +0.000 C 
ATOM     12  C   UNL     1       0.851  10.197  18.969  0.00  0.00    +0.000 C 
ATOM     13  C   UNL     1       1.492   9.371  17.832  0.00  0.00    +0.000 C 
ATOM     14  C   UNL     1       2.551   8.363  18.281  0.00  0.00    +0.000 C 
BRANCH   7  18
ATOM     15  C   UNL     1       3.663   3.804  16.925  0.00  0.00    +0.000 C 
ATOM     16  C   UNL     1       2.794   4.550  17.899  0.00  0.00    +0.000 C 
ATOM     17  C   UNL     1       1.369   4.089  18.041  0.00  0.00    +0.000 C 
ATOM     18  C   UNL     1       3.309   5.576  18.606  0.00  0.00    +0.000 C 
ENDBRANCH   7  18
ENDBRANCH   1  12
BRANCH   4  19
ATOM     19  C   UNL     1       0.329  14.891  19.489  0.00  0.00    +0.000 C 
ATOM     20  O   UNL     1      -0.351  14.427  18.569  0.00  0.00    +0.000 OA
ATOM     21  N   UNL     1      -0.200  15.866  20.314  0.00  0.00    +0.000 N 
ATOM     22  C   UNL     1       0.459  16.522  21.443  0.00  0.00    +0.000 C 
ATOM     23  C   UNL     1      -0.154  16.022  22.756  0.00  0.00    +0.000 C 
ATOM     24  O   UNL     1      -1.574  16.250  22.776  0.00  0.00    +0.000 OA
ATOM     25  C   UNL     1      -2.223  15.582  21.678  0.00  0.00    +0.000 C 
ATOM     26  C   UNL     1      -1.658  16.052  20.328  0.00  0.00    +0.000 C 
ENDBRANCH   4  19
TORSDOF 3
ENDMDL
MODEL 4
REMARK VINA RESULT:      -6.4      2.983      9.727
REMARK  Name = 
REMARK  5 active torsions:
REMARK  status: ('A' for Active; 'I' for Inactive)
REMARK    1  A    between atoms: C_1  and  C_2
REMARK    2  A    between atoms: C_2  and  C_3
REMARK    3  A    between atoms: C_4  and  C_5
REMARK    4  A    between atoms: C_10  and  N_11
REMARK    5  A    between atoms: C_14  and  C_15
REMARK                            x       y       z     vdW  Elec       q    Type
REMARK                         _______ _______ _______ _____ _____    ______ ____
ROOT
ATOM      1  N   UNL     1       1.809   8.876  19.031  0.00  0.00    +0.000 NA
ATOM      2  C   UNL     1       1.652   7.866  20.088  0.00  0.00    +0.000 C 
ATOM      3  C   UNL     1       2.870   6.960  20.274  0.00  0.00    +0.000 C 
ATOM      4  C   UNL     1       3.261   6.279  18.965  0.00  0.00    +0.000 C 
ATOM      5  C   UNL     1       3.516   7.369  17.924  0.00  0.00    +0.000 C 
ATOM      6  C   UNL     1       2.357   8.359  17.779  0.00  0.00    +0.000 C 
ENDROOT
BRANCH   1  12
ATOM      7  C   UNL     1      -0.436  12.794  21.787  0.00  0.00    +0.000 C 
ATOM      8  O   UNL     1      -0.072  13.955  21.620  0.00  0.00    +0.000 OA
ATOM      9  N   UNL     1      -0.055  11.740  20.968  0.00  0.00    +0.000 N 
ATOM     10  C   UNL     1       0.980  12.024  19.980  0.00  0.00    +0.000 C 
ATOM     11  C   UNL     1       0.764  11.241  18.695  0.00  0.00    +0.000 C 
ATOM     12  C   UNL     1       0.586   9.720  18.894  0.00  0.00    +0.000 C 
ATOM     13  C   UNL     1      -0.494   9.494  19.975  0.00  0.00    +0.000 C 
ATOM     14  C   UNL     1      -0.325  10.329  21.245  0.00  0.00    +0.000 C 
BRANCH   7  18
ATOM     15  C   UNL     1      -3.536  12.351  24.026  0.00  0.00    +0.000 C 
ATOM     16  C   UNL     1      -2.672  12.549  22.813  0.00  0.00    +0.000 C 
ATOM     17  C   UNL     1      -3.369  12.837  21.511  0.00  0.00    +0.000 C 
ATOM     18  C   UNL     1      -1.330  12.476  22.927  0.00  0.00    +0.000 C 
ENDBRANCH   7  18
ENDBRANCH   1  12
BRANCH   4  19
ATOM     19  C   UNL     1       2.207   5.274  18.465  0.00  0.00    +0.000 C 
ATOM     20  O   UNL     1       1.401   5.594  17.587  0.00  0.00    +0.000 OA
ATOM     21  N   UNL     1       2.172   4.002  19.004  0.00  0.00    +0.000 N 
ATOM     22  C   UNL     1       3.045   3.458  20.045  0.00  0.00    +0.000 C 
ATOM     23  C   UNL     1       4.013   2.445  19.424  0.00  0.00    +0.000 C 
ATOM     24  O   UNL     1       3.294   1.399  18.746  0.00  0.00    +0.000 OA
ATOM     25  C   UNL     1       2.454   1.936  17.706  0.00  0.00    +0.000 C 
ATOM     26  C   UNL     1       1.450   2.953  18.270  0.00  0.00    +0.000 C 
ENDBRANCH   4  19
TORSDOF 3
ENDMDL
MODEL 5
REMARK VINA RESULT:      -6.2      3.532      9.352
REMARK  Name = 
REMARK  5 active torsions:
REMARK  status: ('A' for Active; 'I' for Inactive)
REMARK    1  A    between atoms: C_1  and  C_2
REMARK    2  A    between atoms: C_2  and  C_3
REMARK    3  A    between atoms: C_4  and  C_5
REMARK    4  A    between atoms: C_10  and  N_11
REMARK    5  A    between atoms: C_14  and  C_15
REMARK                            x       y       z     vdW  Elec       q    Type
REMARK                         _______ _______ _______ _____ _____    ______ ____
ROOT
ATOM      1  N   UNL     1       1.637   8.019  19.940  0.00  0.00    +0.000 NA
ATOM      2  C   UNL     1       2.363   8.166  18.669  0.00  0.00    +0.000 C 
ATOM      3  C   UNL     1       2.269   6.947  17.751  0.00  0.00    +0.000 C 
ATOM      4  C   UNL     1       2.730   5.678  18.462  0.00  0.00    +0.000 C 
ATOM      5  C   UNL     1       1.879   5.508  19.721  0.00  0.00    +0.000 C 
ATOM      6  C   UNL     1       1.865   6.747  20.622  0.00  0.00    +0.000 C 
ENDROOT
BRANCH   1  12
ATOM      7  C   UNL     1      -1.674  11.378  22.336  0.00  0.00    +0.000 C 
ATOM      8  O   UNL     1      -2.132  11.110  23.444  0.00  0.00    +0.000 OA
ATOM      9  N   UNL     1      -0.649  10.664  21.731  0.00  0.00    +0.000 N 
ATOM     10  C   UNL     1      -0.242   9.426  22.387  0.00  0.00    +0.000 C 
ATOM     11  C   UNL     1       1.251   9.176  22.245  0.00  0.00    +0.000 C 
ATOM     12  C   UNL     1       1.775   9.236  20.793  0.00  0.00    +0.000 C 
ATOM     13  C   UNL     1       1.278  10.550  20.151  0.00  0.00    +0.000 C 
ATOM     14  C   UNL     1      -0.209  10.846  20.348  0.00  0.00    +0.000 C 
BRANCH   7  18
ATOM     15  C   UNL     1      -2.543  14.929  21.130  0.00  0.00    +0.000 C 
ATOM     16  C   UNL     1      -1.849  13.789  21.822  0.00  0.00    +0.000 C 
ATOM     17  C   UNL     1      -0.740  14.137  22.777  0.00  0.00    +0.000 C 
ATOM     18  C   UNL     1      -2.240  12.522  21.580  0.00  0.00    +0.000 C 
ENDBRANCH   7  18
ENDBRANCH   1  12
BRANCH   4  19
ATOM     19  C   UNL     1       4.230   5.686  18.807  0.00  0.00    +0.000 C 
ATOM     20  O   UNL     1       4.617   5.364  19.933  0.00  0.00    +0.000 OA
ATOM     21  N   UNL     1       5.147   6.053  17.841  0.00  0.00    +0.000 N 
ATOM     22  C   UNL     1       4.866   6.461  16.464  0.00  0.00    +0.000 C 
ATOM     23  C   UNL     1       5.298   5.350  15.501  0.00  0.00    +0.000 C 
ATOM     24  O   UNL     1       6.691   5.034  15.678  0.00  0.00    +0.000 OA
ATOM     25  C   UNL     1       6.960   4.608  17.027  0.00  0.00    +0.000 C 
ATOM     26  C   UNL     1       6.557   5.689  18.043  0.00  0.00    +0.000 C 
ENDBRANCH   4  19
TORSDOF 3
ENDMDL
MODEL 6
REMARK VINA RESULT:      -6.2      0.843      1.154
REMARK  Name = 
REMARK  5 active torsions:
REMARK  status: ('A' for Active; 'I' for Inactive)
REMARK    1  A    between atoms: C_1  and  C_2
REMARK    2  A    between atoms: C_2  and  C_3
REMARK    3  A    between atoms: C_4  and  C_5
REMARK    4  A    between atoms: C_10  and  N_11
REMARK    5  A    between atoms: C_14  and  C_15
REMARK                            x       y       z     vdW  Elec       q    Type
REMARK                         _______ _______ _______ _____ _____    ______ ____
ROOT
ATOM      1  N   UNL     1       1.681  11.149  19.273  0.00  0.00    +0.000 NA
ATOM      2  C   UNL     1       1.628  12.086  18.141  0.00  0.00    +0.000 C 
ATOM      3  C   UNL     1       2.410  13.381  18.365  0.00  0.00    +0.000 C 
ATOM      4  C   UNL     1       1.961  14.089  19.640  0.00  0.00    +0.000 C 
ATOM      5  C   UNL     1       2.131  13.113  20.805  0.00  0.00    +0.000 C 
ATOM      6  C   UNL     1       1.445  11.764  20.577  0.00  0.00    +0.000 C 
ENDROOT
BRANCH   1  12
ATOM      7  C   UNL     1       2.645   5.947  19.261  0.00  0.00    +0.000 C 
ATOM      8  O   UNL     1       2.581   5.304  20.306  0.00  0.00    +0.000 OA
ATOM      9  N   UNL     1       2.209   7.259  19.134  0.00  0.00    +0.000 N 
ATOM     10  C   UNL     1       1.834   7.943  20.367  0.00  0.00    +0.000 C 
ATOM     11  C   UNL     1       0.678   8.906  20.149  0.00  0.00    +0.000 C 
ATOM     12  C   UNL     1       0.892   9.912  18.997  0.00  0.00    +0.000 C 
ATOM     13  C   UNL     1       1.320   9.126  17.738  0.00  0.00    +0.000 C 
ATOM     14  C   UNL     1       2.435   8.104  17.961  0.00  0.00    +0.000 C 
BRANCH   7  18
ATOM     15  C   UNL     1       5.109   4.516  16.673  0.00  0.00    +0.000 C 
ATOM     16  C   UNL     1       4.542   5.041  17.963  0.00  0.00    +0.000 C 
ATOM     17  C   UNL     1       5.503   5.254  19.100  0.00  0.00    +0.000 C 
ATOM     18  C   UNL     1       3.223   5.307  18.055  0.00  0.00    +0.000 C 
ENDBRANCH   7  18
ENDBRANCH   1  12
BRANCH   4  19
ATOM     19  C   UNL     1       0.516  14.614  19.566  0.00  0.00    +0.000 C 
ATOM     20  O   UNL     1      -0.423  13.930  19.980  0.00  0.00    +0.000 OA
ATOM     21  N   UNL     1       0.276  15.868  19.036  0.00  0.00    +0.000 N 
ATOM     22  C   UNL     1       1.263  16.807  18.503  0.00  0.00    +0.000 C 
ATOM     23  C   UNL     1       1.429  17.983  19.472  0.00  0.00    +0.000 C 
ATOM     24  O   UNL     1       0.166  18.631  19.709  0.00  0.00    +0.000 OA
ATOM     25  C   UNL     1      -0.796  17.710  20.257  0.00  0.00    +0.000 C 
ATOM     26  C   UNL     1      -1.015  16.511  19.322  0.00  0.00    +0.000 C 
ENDBRANCH   4  19
TORSDOF 3
ENDMDL
MODEL 7
REMARK VINA RESULT:      -6.2      2.511      9.881
REMARK  Name = 
REMARK  5 active torsions:
REMARK  status: ('A' for Active; 'I' for Inactive)
REMARK    1  A    between atoms: C_1  and  C_2
REMARK    2  A    between atoms: C_2  and  C_3
REMARK    3  A    between atoms: C_4  and  C_5
REMARK    4  A    between atoms: C_10  and  N_11
REMARK    5  A    between atoms: C_14  and  C_15
REMARK                            x       y       z     vdW  Elec       q    Type
REMARK                         _______ _______ _______ _____ _____    ______ ____
ROOT
ATOM      1  N   UNL     1       1.578   8.717  19.351  0.00  0.00    +0.000 NA
ATOM      2  C   UNL     1       1.722   7.608  20.306  0.00  0.00    +0.000 C 
ATOM      3  C   UNL     1       3.037   6.838  20.176  0.00  0.00    +0.000 C 
ATOM      4  C   UNL     1       3.241   6.322  18.755  0.00  0.00    +0.000 C 
ATOM      5  C   UNL     1       3.188   7.520  17.806  0.00  0.00    +0.000 C 
ATOM      6  C   UNL     1       1.931   8.377  17.974  0.00  0.00    +0.000 C 
ENDROOT
BRANCH   1  12
ATOM      7  C   UNL     1       0.037  13.600  20.679  0.00  0.00    +0.000 C 
ATOM      8  O   UNL     1      -0.025  14.482  19.826  0.00  0.00    +0.000 OA
ATOM      9  N   UNL     1       0.227  12.256  20.387  0.00  0.00    +0.000 N 
ATOM     10  C   UNL     1       0.552  11.930  19.003  0.00  0.00    +0.000 C 
ATOM     11  C   UNL     1      -0.052  10.601  18.580  0.00  0.00    +0.000 C 
ATOM     12  C   UNL     1       0.273   9.421  19.522  0.00  0.00    +0.000 C 
ATOM     13  C   UNL     1      -0.060   9.847  20.968  0.00  0.00    +0.000 C 
ATOM     14  C   UNL     1       0.485  11.215  21.382  0.00  0.00    +0.000 C 
BRANCH   7  18
ATOM     15  C   UNL     1      -1.381  14.585  24.120  0.00  0.00    +0.000 C 
ATOM     16  C   UNL     1      -1.291  14.076  22.708  0.00  0.00    +0.000 C 
ATOM     17  C   UNL     1      -2.582  13.717  22.024  0.00  0.00    +0.000 C 
ATOM     18  C   UNL     1      -0.087  13.971  22.110  0.00  0.00    +0.000 C 
ENDBRANCH   7  18
ENDBRANCH   1  12
BRANCH   4  19
ATOM     19  C   UNL     1       2.218   5.248  18.345  0.00  0.00    +0.000 C 
ATOM     20  O   UNL     1       1.365   5.488  17.487  0.00  0.00    +0.000 OA
ATOM     21  N   UNL     1       2.262   4.004  18.945  0.00  0.00    +0.000 N 
ATOM     22  C   UNL     1       3.199   3.550  19.973  0.00  0.00    +0.000 C 
ATOM     23  C   UNL     1       4.189   2.553  19.362  0.00  0.00    +0.000 C 
ATOM     24  O   UNL     1       3.494   1.444  18.764  0.00  0.00    +0.000 OA
ATOM     25  C   UNL     1       2.591   1.891  17.734  0.00  0.00    +0.000 C 
ATOM     26  C   UNL     1       1.563   2.889  18.290  0.00  0.00    +0.000 C 
ENDBRANCH   4  19
TORSDOF 3
ENDMDL
MODEL 8
REMARK VINA RESULT:      -6.1      1.082      1.182
REMARK  Name = 
REMARK  5 active torsions:
REMARK  status: ('A' for Active; 'I' for Inactive)
REMARK    1  A    between atoms: C_1  and  C_2
REMARK    2  A    between atoms: C_2  and  C_3
REMARK    3  A    between atoms: C_4  and  C_5
REMARK    4  A    between atoms: C_10  and  N_11
REMARK    5  A    between atoms: C_14  and  C_15
REMARK                            x       y       z     vdW  Elec       q    Type
REMARK                         _______ _______ _______ _____ _____    ______ ____
ROOT
ATOM      1  N   UNL     1       1.167  11.388  19.372  0.00  0.00    +0.000 NA
ATOM      2  C   UNL     1       0.794  12.429  18.402  0.00  0.00    +0.000 C 
ATOM      3  C   UNL     1       1.395  13.804  18.698  0.00  0.00    +0.000 C 
ATOM      4  C   UNL     1       1.050  14.269  20.109  0.00  0.00    +0.000 C 
ATOM      5  C   UNL     1       1.548  13.207  21.091  0.00  0.00    +0.000 C 
ATOM      6  C   UNL     1       1.048  11.796  20.770  0.00  0.00    +0.000 C 
ENDROOT
BRANCH   1  12
ATOM      7  C   UNL     1       2.588   6.303  19.702  0.00  0.00    +0.000 C 
ATOM      8  O   UNL     1       2.430   5.684  20.751  0.00  0.00    +0.000 OA
ATOM      9  N   UNL     1       2.059   7.564  19.463  0.00  0.00    +0.000 N 
ATOM     10  C   UNL     1       1.446   8.240  20.601  0.00  0.00    +0.000 C 
ATOM     11  C   UNL     1       0.253   9.084  20.182  0.00  0.00    +0.000 C 
ATOM     12  C   UNL     1       0.542  10.075  19.034  0.00  0.00    +0.000 C 
ATOM     13  C   UNL     1       1.220   9.302  17.882  0.00  0.00    +0.000 C 
ATOM     14  C   UNL     1       2.378   8.396  18.303  0.00  0.00    +0.000 C 
BRANCH   7  18
ATOM     15  C   UNL     1       3.774   4.041  16.822  0.00  0.00    +0.000 C 
ATOM     16  C   UNL     1       2.885   4.730  17.819  0.00  0.00    +0.000 C 
ATOM     17  C   UNL     1       1.448   4.290  17.878  0.00  0.00    +0.000 C 
ATOM     18  C   UNL     1       3.393   5.690  18.618  0.00  0.00    +0.000 C 
ENDBRANCH   7  18
ENDBRANCH   1  12
BRANCH   4  19
ATOM     19  C   UNL     1      -0.451  14.543  20.309  0.00  0.00    +0.000 C 
ATOM     20  O   UNL     1      -1.186  13.687  20.807  0.00  0.00    +0.000 OA
ATOM     21  N   UNL     1      -0.975  15.765  19.928  0.00  0.00    +0.000 N 
ATOM     22  C   UNL     1      -0.254  16.887  19.325  0.00  0.00    +0.000 C 
ATOM     23  C   UNL     1      -0.117  18.018  20.350  0.00  0.00    +0.000 C 
ATOM     24  O   UNL     1      -1.408  18.427  20.836  0.00  0.00    +0.000 OA
ATOM     25  C   UNL     1      -2.104  17.327  21.451  0.00  0.00    +0.000 C 
ATOM     26  C   UNL     1      -2.284  16.161  20.467  0.00  0.00    +0.000 C 
ENDBRANCH   4  19
TORSDOF 3
ENDMDL
MODEL 9
REMARK VINA RESULT:      -6.1      3.482      9.021
REMARK  Name = 
REMARK  5 active torsions:
REMARK  status: ('A' for Active; 'I' for Inactive)
REMARK    1  A    between atoms: C_1  and  C_2
REMARK    2  A    between atoms: C_2  and  C_3
REMARK    3  A    between atoms: C_4  and  C_5
REMARK    4  A    between atoms: C_10  and  N_11
REMARK    5  A    between atoms: C_14  and  C_15
REMARK                            x       y       z     vdW  Elec       q    Type
REMARK                         _______ _______ _______ _____ _____    ______ ____
ROOT
ATOM      1  N   UNL     1       0.203  11.944  19.064  0.00  0.00    +0.000 NA
ATOM      2  C   UNL     1       1.633  11.600  19.102  0.00  0.00    +0.000 C 
ATOM      3  C   UNL     1       2.055  10.565  18.059  0.00  0.00    +0.000 C 
ATOM      4  C   UNL     1       1.216   9.294  18.165  0.00  0.00    +0.000 C 
ATOM      5  C   UNL     1      -0.254   9.686  18.015  0.00  0.00    +0.000 C 
ATOM      6  C   UNL     1      -0.693  10.794  18.977  0.00  0.00    +0.000 C 
ENDROOT
BRANCH   1  12
ATOM      7  C   UNL     1      -3.551  12.441  22.758  0.00  0.00    +0.000 C 
ATOM      8  O   UNL     1      -3.415  11.902  23.853  0.00  0.00    +0.000 OA
ATOM      9  N   UNL     1      -2.537  12.538  21.814  0.00  0.00    +0.000 N 
ATOM     10  C   UNL     1      -1.316  11.789  22.091  0.00  0.00    +0.000 C 
ATOM     11  C   UNL     1      -0.080  12.519  21.592  0.00  0.00    +0.000 C 
ATOM     12  C   UNL     1      -0.146  12.950  20.110  0.00  0.00    +0.000 C 
ATOM     13  C   UNL     1      -1.475  13.703  19.881  0.00  0.00    +0.000 C 
ATOM     14  C   UNL     1      -2.718  13.010  20.441  0.00  0.00    +0.000 C 
BRANCH   7  18
ATOM     15  C   UNL     1      -6.630  14.743  22.553  0.00  0.00    +0.000 C 
ATOM     16  C   UNL     1      -5.237  14.247  22.826  0.00  0.00    +0.000 C 
ATOM     17  C   UNL     1      -4.319  15.161  23.590  0.00  0.00    +0.000 C 
ATOM     18  C   UNL     1      -4.867  13.022  22.398  0.00  0.00    +0.000 C 
ENDBRANCH   7  18
ENDBRANCH   1  12
BRANCH   4  19
ATOM     19  C   UNL     1       1.450   8.520  19.474  0.00  0.00    +0.000 C 
ATOM     20  O   UNL     1       0.908   8.879  20.523  0.00  0.00    +0.000 OA
ATOM     21  N   UNL     1       2.273   7.409  19.469  0.00  0.00    +0.000 N 
ATOM     22  C   UNL     1       2.991   6.846  18.325  0.00  0.00    +0.000 C 
ATOM     23  C   UNL     1       2.330   5.531  17.900  0.00  0.00    +0.000 C 
ATOM     24  O   UNL     1       2.287   4.602  18.998  0.00  0.00    +0.000 OA
ATOM     25  C   UNL     1       1.558   5.149  20.113  0.00  0.00    +0.000 C 
ATOM     26  C   UNL     1       2.182   6.468  20.594  0.00  0.00    +0.000 C 
ENDBRANCH   4  19
TORSDOF 3
ENDMDL
