MODEL 1
REMARK VINA RESULT:      -6.9      0.000      0.000
REMARK  Name = 
REMARK  10 active torsions:
REMARK  status: ('A' for Active; 'I' for Inactive)
REMARK    1  A    between atoms: C_1  and  C_2
REMARK    2  A    between atoms: C_5  and  S_6
REMARK    3  A    between atoms: S_6  and  N_9
REMARK    4  A    between atoms: N_9  and  C_10
REMARK    5  A    between atoms: C_10  and  C_11
REMARK    6  A    between atoms: C_10  and  C_15
REMARK    7  A    between atoms: C_11  and  C_12
REMARK    8  A    between atoms: C_12  and  C_13
REMARK    9  A    between atoms: C_12  and  C_14
REMARK   10  A    between atoms: C_20  and  C_21
REMARK                            x       y       z     vdW  Elec       q    Type
REMARK                         _______ _______ _______ _____ _____    ______ ____
ROOT
ATOM      1  C   UNL     1       3.518   3.986  17.836  0.00  0.00    +0.000 C 
ENDROOT
BRANCH   1   2
ATOM      2  C   UNL     1       4.551   4.290  16.737  0.00  0.00    +0.000 C 
ATOM      3  O   UNL     1       4.197   4.221  15.555  0.00  0.00    +0.000 OA
ATOM      4  N   UNL     1       5.855   4.599  17.096  0.00  0.00    +0.000 N 
ATOM      5  C   UNL     1       6.389   4.617  18.450  0.00  0.00    +0.000 C 
ATOM      6  C   UNL     1       6.793   6.035  18.838  0.00  0.00    +0.000 C 
ATOM      7  C   UNL     1       7.796   6.607  17.824  0.00  0.00    +0.000 C 
ATOM      8  C   UNL     1       8.144   8.054  18.166  0.00  0.00    +0.000 C 
ATOM      9  C   UNL     1       7.244   6.498  16.392  0.00  0.00    +0.000 C 
ATOM     10  C   UNL     1       6.779   5.074  16.070  0.00  0.00    +0.000 C 
ENDBRANCH   1   2
BRANCH   1  11
ATOM     11  N   UNL     1       2.608   5.166  18.001  0.00  0.00    +0.000 NA
ATOM     12  H   UNL     1       2.914   5.915  17.375  0.00  0.00    +0.000 HD
BRANCH  11  13
ATOM     13  S   UNL     1       2.471   5.774  19.587  0.00  0.00    +0.000 S 
ATOM     14  O   UNL     1       3.770   5.675  20.220  0.00  0.00    +0.000 OA
ATOM     15  O   UNL     1       1.300   5.152  20.169  0.00  0.00    +0.000 OA
BRANCH  13  20
ATOM     16  C   UNL     1       0.575  11.466  18.693  0.00  0.00    +0.000 C 
ATOM     17  C   UNL     1       1.160  10.106  18.951  0.00  0.00    +0.000 A 
ATOM     18  C   UNL     1       1.840   9.415  17.939  0.00  0.00    +0.000 A 
ATOM     19  C   UNL     1       2.283   8.107  18.150  0.00  0.00    +0.000 A 
ATOM     20  C   UNL     1       2.064   7.493  19.387  0.00  0.00    +0.000 A 
ATOM     21  C   UNL     1       1.431   8.187  20.419  0.00  0.00    +0.000 A 
ATOM     22  C   UNL     1       0.980   9.492  20.199  0.00  0.00    +0.000 A 
ENDBRANCH  13  20
ENDBRANCH  11  13
ENDBRANCH   1  11
BRANCH   1  23
ATOM     23  C   UNL     1       2.686   2.767  17.395  0.00  0.00    +0.000 C 
BRANCH  23  24
ATOM     24  C   UNL     1       2.126   1.885  18.529  0.00  0.00    +0.000 C 
ATOM     25  C   UNL     1       2.982   2.063  19.791  0.00  0.00    +0.000 C 
ATOM     26  C   UNL     1       0.667   2.190  18.865  0.00  0.00    +0.000 C 
ENDBRANCH  23  24
ENDBRANCH   1  23
TORSDOF 6
ENDMDL
MODEL 2
REMARK VINA RESULT:      -6.6      2.009      4.645
REMARK  Name = 
REMARK  10 active torsions:
REMARK  status: ('A' for Active; 'I' for Inactive)
REMARK    1  A    between atoms: C_1  and  C_2
REMARK    2  A    between atoms: C_5  and  S_6
REMARK    3  A    between atoms: S_6  and  N_9
REMARK    4  A    between atoms: N_9  and  C_10
REMARK    5  A    between atoms: C_10  and  C_11
REMARK    6  A    between atoms: C_10  and  C_15
REMARK    7  A    between atoms: C_11  and  C_12
REMARK    8  A    between atoms: C_12  and  C_13
REMARK    9  A    between atoms: C_12  and  C_14
REMARK   10  A    between atoms: C_20  and  C_21
REMARK                            x       y       z     vdW  Elec       q    Type
REMARK                         _______ _______ _______ _____ _____    ______ ____
ROOT
ATOM      1  C   UNL     1       4.438   5.666  17.673  0.00  0.00    +0.000 C 
ENDROOT
BRANCH   1   2
ATOM      2  C   UNL     1       4.908   4.486  18.540  0.00  0.00    +0.000 C 
ATOM      3  O   UNL     1       6.088   4.450  18.904  0.00  0.00    +0.000 OA
ATOM      4  N   UNL     1       4.010   3.478  18.862  0.00  0.00    +0.000 N 
ATOM      5  C   UNL     1       2.629   3.385  18.409  0.00  0.00    +0.000 C 
ATOM      6  C   UNL     1       1.676   3.516  19.592  0.00  0.00    +0.000 C 
ATOM      7  C   UNL     1       1.996   2.462  20.663  0.00  0.00    +0.000 C 
ATOM      8  C   UNL     1       1.094   2.641  21.883  0.00  0.00    +0.000 C 
ATOM      9  C   UNL     1       3.480   2.526  21.064  0.00  0.00    +0.000 C 
ATOM     10  C   UNL     1       4.401   2.466  19.840  0.00  0.00    +0.000 C 
ENDBRANCH   1   2
BRANCH   1  11
ATOM     11  N   UNL     1       3.867   6.734  18.556  0.00  0.00    +0.000 NA
ATOM     12  H   UNL     1       3.692   6.343  19.484  0.00  0.00    +0.000 HD
BRANCH  11  13
ATOM     13  S   UNL     1       2.449   7.486  17.981  0.00  0.00    +0.000 S 
ATOM     14  O   UNL     1       1.533   6.448  17.553  0.00  0.00    +0.000 OA
ATOM     15  O   UNL     1       2.874   8.535  17.078  0.00  0.00    +0.000 OA
BRANCH  13  20
ATOM     16  C   UNL     1      -0.414  10.048  22.674  0.00  0.00    +0.000 C 
ATOM     17  C   UNL     1       0.402   9.481  21.547  0.00  0.00    +0.000 A 
ATOM     18  C   UNL     1       0.466  10.134  20.309  0.00  0.00    +0.000 A 
ATOM     19  C   UNL     1       1.132   9.546  19.231  0.00  0.00    +0.000 A 
ATOM     20  C   UNL     1       1.758   8.308  19.398  0.00  0.00    +0.000 A 
ATOM     21  C   UNL     1       1.744   7.668  20.639  0.00  0.00    +0.000 A 
ATOM     22  C   UNL     1       1.066   8.257  21.711  0.00  0.00    +0.000 A 
ENDBRANCH  13  20
ENDBRANCH  11  13
ENDBRANCH   1  11
BRANCH   1  23
ATOM     23  C   UNL     1       5.658   6.232  16.922  0.00  0.00    +0.000 C 
BRANCH  23  24
ATOM     24  C   UNL     1       5.972   5.585  15.558  0.00  0.00    +0.000 C 
ATOM     25  C   UNL     1       7.340   4.890  15.620  0.00  0.00    +0.000 C 
ATOM     26  C   UNL     1       4.916   4.575  15.112  0.00  0.00    +0.000 C 
ENDBRANCH  23  24
ENDBRANCH   1  23
TORSDOF 6
ENDMDL
MODEL 3
REMARK VINA RESULT:      -6.6      2.237      5.803
REMARK  Name = 
REMARK  10 active torsions:
REMARK  status: ('A' for Active; 'I' for Inactive)
REMARK    1  A    between atoms: C_1  and  C_2
REMARK    2  A    between atoms: C_5  and  S_6
REMARK    3  A    between atoms: S_6  and  N_9
REMARK    4  A    between atoms: N_9  and  C_10
REMARK    5  A    between atoms: C_10  and  C_11
REMARK    6  A    between atoms: C_10  and  C_15
REMARK    7  A    between atoms: C_11  and  C_12
REMARK    8  A    between atoms: C_12  and  C_13
REMARK    9  A    between atoms: C_12  and  C_14
REMARK   10  A    between atoms: C_20  and  C_21
REMARK                            x       y       z     vdW  Elec       q    Type
REMARK                         _______ _______ _______ _____ _____    ______ ____
ROOT
ATOM      1  C   UNL     1       4.507   4.965  19.013  0.00  0.00    +0.000 C 
ENDROOT
BRANCH   1   2
ATOM      2  C   UNL     1       3.287   5.471  19.803  0.00  0.00    +0.000 C 
ATOM      3  O   UNL     1       3.123   5.072  20.961  0.00  0.00    +0.000 OA
ATOM      4  N   UNL     1       2.388   6.331  19.189  0.00  0.00    +0.000 N 
ATOM      5  C   UNL     1       2.445   6.785  17.807  0.00  0.00    +0.000 C 
ATOM      6  C   UNL     1       2.690   8.289  17.756  0.00  0.00    +0.000 C 
ATOM      7  C   UNL     1       1.614   9.039  18.557  0.00  0.00    +0.000 C 
ATOM      8  C   UNL     1       1.900  10.539  18.572  0.00  0.00    +0.000 C 
ATOM      9  C   UNL     1       1.515   8.484  19.988  0.00  0.00    +0.000 C 
ATOM     10  C   UNL     1       1.346   6.960  19.995  0.00  0.00    +0.000 C 
ENDBRANCH   1   2
BRANCH   1  11
ATOM     11  N   UNL     1       5.745   5.632  19.532  0.00  0.00    +0.000 NA
ATOM     12  H   UNL     1       5.512   6.579  19.840  0.00  0.00    +0.000 HD
BRANCH  11  13
ATOM     13  S   UNL     1       7.057   5.697  18.446  0.00  0.00    +0.000 S 
ATOM     14  O   UNL     1       8.052   4.741  18.889  0.00  0.00    +0.000 OA
ATOM     15  O   UNL     1       7.382   7.097  18.272  0.00  0.00    +0.000 OA
BRANCH  13  20
ATOM     16  C   UNL     1       5.250   4.077  12.887  0.00  0.00    +0.000 C 
ATOM     17  C   UNL     1       5.586   4.428  14.310  0.00  0.00    +0.000 A 
ATOM     18  C   UNL     1       5.192   5.657  14.856  0.00  0.00    +0.000 A 
ATOM     19  C   UNL     1       5.603   6.025  16.140  0.00  0.00    +0.000 A 
ATOM     20  C   UNL     1       6.393   5.150  16.890  0.00  0.00    +0.000 A 
ATOM     21  C   UNL     1       6.752   3.902  16.377  0.00  0.00    +0.000 A 
ATOM     22  C   UNL     1       6.347   3.544  15.088  0.00  0.00    +0.000 A 
ENDBRANCH  13  20
ENDBRANCH  11  13
ENDBRANCH   1  11
BRANCH   1  23
ATOM     23  C   UNL     1       4.626   3.445  19.228  0.00  0.00    +0.000 C 
BRANCH  23  24
ATOM     24  C   UNL     1       3.797   2.561  18.275  0.00  0.00    +0.000 C 
ATOM     25  C   UNL     1       2.700   1.836  19.068  0.00  0.00    +0.000 C 
ATOM     26  C   UNL     1       3.155   3.344  17.131  0.00  0.00    +0.000 C 
ENDBRANCH  23  24
ENDBRANCH   1  23
TORSDOF 6
ENDMDL
MODEL 4
REMARK VINA RESULT:      -6.5      0.454      1.070
REMARK  Name = 
REMARK  10 active torsions:
REMARK  status: ('A' for Active; 'I' for Inactive)
REMARK    1  A    between atoms: C_1  and  C_2
REMARK    2  A    between atoms: C_5  and  S_6
REMARK    3  A    between atoms: S_6  and  N_9
REMARK    4  A    between atoms: N_9  and  C_10
REMARK    5  A    between atoms: C_10  and  C_11
REMARK    6  A    between atoms: C_10  and  C_15
REMARK    7  A    between atoms: C_11  and  C_12
REMARK    8  A    between atoms: C_12  and  C_13
REMARK    9  A    between atoms: C_12  and  C_14
REMARK   10  A    between atoms: C_20  and  C_21
REMARK                            x       y       z     vdW  Elec       q    Type
REMARK                         _______ _______ _______ _____ _____    ______ ____
ROOT
ATOM      1  C   UNL     1       3.889   3.979  17.906  0.00  0.00    +0.000 C 
ENDROOT
BRANCH   1   2
ATOM      2  C   UNL     1       4.817   4.405  16.756  0.00  0.00    +0.000 C 
ATOM      3  O   UNL     1       4.392   4.343  15.597  0.00  0.00    +0.000 OA
ATOM      4  N   UNL     1       6.112   4.813  17.041  0.00  0.00    +0.000 N 
ATOM      5  C   UNL     1       6.732   4.834  18.359  0.00  0.00    +0.000 C 
ATOM      6  C   UNL     1       7.042   6.268  18.773  0.00  0.00    +0.000 C 
ATOM      7  C   UNL     1       7.923   6.956  17.718  0.00  0.00    +0.000 C 
ATOM      8  C   UNL     1       8.171   8.416  18.091  0.00  0.00    +0.000 C 
ATOM      9  C   UNL     1       7.287   6.846  16.321  0.00  0.00    +0.000 C 
ATOM     10  C   UNL     1       6.922   5.398  15.977  0.00  0.00    +0.000 C 
ENDBRANCH   1   2
BRANCH   1  11
ATOM     11  N   UNL     1       2.784   4.981  18.048  0.00  0.00    +0.000 NA
ATOM     12  H   UNL     1       2.901   5.712  17.343  0.00  0.00    +0.000 HD
BRANCH  11  13
ATOM     13  S   UNL     1       2.633   5.698  19.588  0.00  0.00    +0.000 S 
ATOM     14  O   UNL     1       3.954   5.774  20.178  0.00  0.00    +0.000 OA
ATOM     15  O   UNL     1       1.546   5.014  20.258  0.00  0.00    +0.000 OA
BRANCH  13  20
ATOM     16  C   UNL     1       1.160  11.517  18.716  0.00  0.00    +0.000 C 
ATOM     17  C   UNL     1       1.404  10.044  18.892  0.00  0.00    +0.000 A 
ATOM     18  C   UNL     1       1.109   9.410  20.106  0.00  0.00    +0.000 A 
ATOM     19  C   UNL     1       1.442   8.067  20.303  0.00  0.00    +0.000 A 
ATOM     20  C   UNL     1       2.053   7.349  19.271  0.00  0.00    +0.000 A 
ATOM     21  C   UNL     1       2.309   7.955  18.040  0.00  0.00    +0.000 A 
ATOM     22  C   UNL     1       1.983   9.302  17.853  0.00  0.00    +0.000 A 
ENDBRANCH  13  20
ENDBRANCH  11  13
ENDBRANCH   1  11
BRANCH   1  23
ATOM     23  C   UNL     1       3.283   2.607  17.557  0.00  0.00    +0.000 C 
BRANCH  23  24
ATOM     24  C   UNL     1       2.955   1.689  18.751  0.00  0.00    +0.000 C 
ATOM     25  C   UNL     1       3.925   1.978  19.905  0.00  0.00    +0.000 C 
ATOM     26  C   UNL     1       1.519   1.840  19.252  0.00  0.00    +0.000 C 
ENDBRANCH  23  24
ENDBRANCH   1  23
TORSDOF 6
ENDMDL
MODEL 5
REMARK VINA RESULT:      -6.5      1.553      4.517
REMARK  Name = 
REMARK  10 active torsions:
REMARK  status: ('A' for Active; 'I' for Inactive)
REMARK    1  A    between atoms: C_1  and  C_2
REMARK    2  A    between atoms: C_5  and  S_6
REMARK    3  A    between atoms: S_6  and  N_9
REMARK    4  A    between atoms: N_9  and  C_10
REMARK    5  A    between atoms: C_10  and  C_11
REMARK    6  A    between atoms: C_10  and  C_15
REMARK    7  A    between atoms: C_11  and  C_12
REMARK    8  A    between atoms: C_12  and  C_13
REMARK    9  A    between atoms: C_12  and  C_14
REMARK   10  A    between atoms: C_20  and  C_21
REMARK                            x       y       z     vdW  Elec       q    Type
REMARK                         _______ _______ _______ _____ _____    ______ ____
ROOT
ATOM      1  C   UNL     1       4.800   6.191  17.566  0.00  0.00    +0.000 C 
ENDROOT
BRANCH   1   2
ATOM      2  C   UNL     1       4.952   5.110  18.651  0.00  0.00    +0.000 C 
ATOM      3  O   UNL     1       5.632   5.366  19.651  0.00  0.00    +0.000 OA
ATOM      4  N   UNL     1       4.356   3.872  18.466  0.00  0.00    +0.000 N 
ATOM      5  C   UNL     1       3.614   3.446  17.288  0.00  0.00    +0.000 C 
ATOM      6  C   UNL     1       2.151   3.205  17.643  0.00  0.00    +0.000 C 
ATOM      7  C   UNL     1       2.034   2.187  18.788  0.00  0.00    +0.000 C 
ATOM      8  C   UNL     1       0.575   2.002  19.199  0.00  0.00    +0.000 C 
ATOM      9  C   UNL     1       2.894   2.617  19.990  0.00  0.00    +0.000 C 
ATOM     10  C   UNL     1       4.337   2.921  19.574  0.00  0.00    +0.000 C 
ENDBRANCH   1   2
BRANCH   1  11
ATOM     11  N   UNL     1       4.094   7.379  18.146  0.00  0.00    +0.000 NA
ATOM     12  H   UNL     1       4.648   7.753  18.920  0.00  0.00    +0.000 HD
BRANCH  11  13
ATOM     13  S   UNL     1       2.497   7.102  18.674  0.00  0.00    +0.000 S 
ATOM     14  O   UNL     1       2.558   6.440  19.961  0.00  0.00    +0.000 OA
ATOM     15  O   UNL     1       1.788   6.514  17.556  0.00  0.00    +0.000 OA
BRANCH  13  20
ATOM     16  C   UNL     1       0.601  12.766  19.732  0.00  0.00    +0.000 C 
ATOM     17  C   UNL     1       0.954  11.340  19.414  0.00  0.00    +0.000 A 
ATOM     18  C   UNL     1       0.667  10.312  20.323  0.00  0.00    +0.000 A 
ATOM     19  C   UNL     1       1.098   9.006  20.073  0.00  0.00    +0.000 A 
ATOM     20  C   UNL     1       1.800   8.723  18.899  0.00  0.00    +0.000 A 
ATOM     21  C   UNL     1       2.052   9.727  17.963  0.00  0.00    +0.000 A 
ATOM     22  C   UNL     1       1.628  11.034  18.223  0.00  0.00    +0.000 A 
ENDBRANCH  13  20
ENDBRANCH  11  13
ENDBRANCH   1  11
BRANCH   1  23
ATOM     23  C   UNL     1       6.206   6.616  17.105  0.00  0.00    +0.000 C 
BRANCH  23  24
ATOM     24  C   UNL     1       6.874   5.710  16.051  0.00  0.00    +0.000 C 
ATOM     25  C   UNL     1       7.540   4.514  16.746  0.00  0.00    +0.000 C 
ATOM     26  C   UNL     1       5.899   5.196  14.993  0.00  0.00    +0.000 C 
ENDBRANCH  23  24
ENDBRANCH   1  23
TORSDOF 6
ENDMDL
MODEL 6
REMARK VINA RESULT:      -6.5      1.529      4.417
REMARK  Name = 
REMARK  10 active torsions:
REMARK  status: ('A' for Active; 'I' for Inactive)
REMARK    1  A    between atoms: C_1  and  C_2
REMARK    2  A    between atoms: C_5  and  S_6
REMARK    3  A    between atoms: S_6  and  N_9
REMARK    4  A    between atoms: N_9  and  C_10
REMARK    5  A    between atoms: C_10  and  C_11
REMARK    6  A    between atoms: C_10  and  C_15
REMARK    7  A    between atoms: C_11  and  C_12
REMARK    8  A    between atoms: C_12  and  C_13
REMARK    9  A    between atoms: C_12  and  C_14
REMARK   10  A    between atoms: C_20  and  C_21
REMARK                            x       y       z     vdW  Elec       q    Type
REMARK                         _______ _______ _______ _____ _____    ______ ____
ROOT
ATOM      1  C   UNL     1       4.816   6.154  17.608  0.00  0.00    +0.000 C 
ENDROOT
BRANCH   1   2
ATOM      2  C   UNL     1       4.982   5.059  18.676  0.00  0.00    +0.000 C 
ATOM      3  O   UNL     1       5.686   5.296  19.664  0.00  0.00    +0.000 OA
ATOM      4  N   UNL     1       4.370   3.828  18.491  0.00  0.00    +0.000 N 
ATOM      5  C   UNL     1       3.598   3.423  17.324  0.00  0.00    +0.000 C 
ATOM      6  C   UNL     1       2.141   3.192  17.709  0.00  0.00    +0.000 C 
ATOM      7  C   UNL     1       2.040   2.162  18.845  0.00  0.00    +0.000 C 
ATOM      8  C   UNL     1       0.588   1.986  19.286  0.00  0.00    +0.000 C 
ATOM      9  C   UNL     1       2.930   2.569  20.032  0.00  0.00    +0.000 C 
ATOM     10  C   UNL     1       4.366   2.865  19.588  0.00  0.00    +0.000 C 
ENDBRANCH   1   2
BRANCH   1  11
ATOM     11  N   UNL     1       4.095   7.324  18.205  0.00  0.00    +0.000 NA
ATOM     12  H   UNL     1       4.639   7.687  18.992  0.00  0.00    +0.000 HD
BRANCH  11  13
ATOM     13  S   UNL     1       2.496   7.024  18.714  0.00  0.00    +0.000 S 
ATOM     14  O   UNL     1       2.552   6.255  19.941  0.00  0.00    +0.000 OA
ATOM     15  O   UNL     1       1.777   6.539  17.553  0.00  0.00    +0.000 OA
BRANCH  13  20
ATOM     16  C   UNL     1      -0.303  12.311  19.713  0.00  0.00    +0.000 C 
ATOM     17  C   UNL     1       0.500  11.056  19.512  0.00  0.00    +0.000 A 
ATOM     18  C   UNL     1       1.189  10.831  18.313  0.00  0.00    +0.000 A 
ATOM     19  C   UNL     1       1.839   9.615  18.087  0.00  0.00    +0.000 A 
ATOM     20  C   UNL     1       1.820   8.628  19.076  0.00  0.00    +0.000 A 
ATOM     21  C   UNL     1       1.179   8.856  20.294  0.00  0.00    +0.000 A 
ATOM     22  C   UNL     1       0.520  10.071  20.510  0.00  0.00    +0.000 A 
ENDBRANCH  13  20
ENDBRANCH  11  13
ENDBRANCH   1  11
BRANCH   1  23
ATOM     23  C   UNL     1       6.217   6.603  17.153  0.00  0.00    +0.000 C 
BRANCH  23  24
ATOM     24  C   UNL     1       6.892   5.728  16.078  0.00  0.00    +0.000 C 
ATOM     25  C   UNL     1       7.576   4.527  16.746  0.00  0.00    +0.000 C 
ATOM     26  C   UNL     1       5.919   5.224  15.013  0.00  0.00    +0.000 C 
ENDBRANCH  23  24
ENDBRANCH   1  23
TORSDOF 6
ENDMDL
MODEL 7
REMARK VINA RESULT:      -6.4      1.260      1.670
REMARK  Name = 
REMARK  10 active torsions:
REMARK  status: ('A' for Active; 'I' for Inactive)
REMARK    1  A    between atoms: C_1  and  C_2
REMARK    2  A    between atoms: C_5  and  S_6
REMARK    3  A    between atoms: S_6  and  N_9
REMARK    4  A    between atoms: N_9  and  C_10
REMARK    5  A    between atoms: C_10  and  C_11
REMARK    6  A    between atoms: C_10  and  C_15
REMARK    7  A    between atoms: C_11  and  C_12
REMARK    8  A    between atoms: C_12  and  C_13
REMARK    9  A    between atoms: C_12  and  C_14
REMARK   10  A    between atoms: C_20  and  C_21
REMARK                            x       y       z     vdW  Elec       q    Type
REMARK                         _______ _______ _______ _____ _____    ______ ____
ROOT
ATOM      1  C   UNL     1       2.692   4.450  18.195  0.00  0.00    +0.000 C 
ENDROOT
BRANCH   1   2
ATOM      2  C   UNL     1       3.852   4.265  17.202  0.00  0.00    +0.000 C 
ATOM      3  O   UNL     1       3.588   4.088  16.008  0.00  0.00    +0.000 OA
ATOM      4  N   UNL     1       5.157   4.266  17.673  0.00  0.00    +0.000 N 
ATOM      5  C   UNL     1       5.565   4.376  19.066  0.00  0.00    +0.000 C 
ATOM      6  C   UNL     1       6.329   5.676  19.292  0.00  0.00    +0.000 C 
ATOM      7  C   UNL     1       7.531   5.768  18.338  0.00  0.00    +0.000 C 
ATOM      8  C   UNL     1       8.252   7.103  18.508  0.00  0.00    +0.000 C 
ATOM      9  C   UNL     1       7.086   5.564  16.880  0.00  0.00    +0.000 C 
ATOM     10  C   UNL     1       6.257   4.286  16.713  0.00  0.00    +0.000 C 
ENDBRANCH   1   2
BRANCH   1  11
ATOM     11  N   UNL     1       2.061   5.791  17.976  0.00  0.00    +0.000 NA
ATOM     12  H   UNL     1       1.978   5.962  16.971  0.00  0.00    +0.000 HD
BRANCH  11  13
ATOM     13  S   UNL     1       2.855   7.108  18.711  0.00  0.00    +0.000 S 
ATOM     14  O   UNL     1       3.802   7.650  17.758  0.00  0.00    +0.000 OA
ATOM     15  O   UNL     1       3.278   6.657  20.021  0.00  0.00    +0.000 OA
BRANCH  13  20
ATOM     16  C   UNL     1      -1.077  11.604  19.767  0.00  0.00    +0.000 C 
ATOM     17  C   UNL     1      -0.206  10.409  19.497  0.00  0.00    +0.000 A 
ATOM     18  C   UNL     1       0.269   9.618  20.552  0.00  0.00    +0.000 A 
ATOM     19  C   UNL     1       1.169   8.578  20.306  0.00  0.00    +0.000 A 
ATOM     20  C   UNL     1       1.578   8.313  18.996  0.00  0.00    +0.000 A 
ATOM     21  C   UNL     1       1.076   9.062  17.931  0.00  0.00    +0.000 A 
ATOM     22  C   UNL     1       0.184  10.109  18.184  0.00  0.00    +0.000 A 
ENDBRANCH  13  20
ENDBRANCH  11  13
ENDBRANCH   1  11
BRANCH   1  23
ATOM     23  C   UNL     1       1.646   3.351  17.928  0.00  0.00    +0.000 C 
BRANCH  23  24
ATOM     24  C   UNL     1       1.496   2.279  19.026  0.00  0.00    +0.000 C 
ATOM     25  C   UNL     1       2.836   1.558  19.230  0.00  0.00    +0.000 C 
ATOM     26  C   UNL     1       1.024   2.849  20.364  0.00  0.00    +0.000 C 
ENDBRANCH  23  24
ENDBRANCH   1  23
TORSDOF 6
ENDMDL
MODEL 8
REMARK VINA RESULT:      -6.4      2.958      7.217
REMARK  Name = 
REMARK  10 active torsions:
REMARK  status: ('A' for Active; 'I' for Inactive)
REMARK    1  A    between atoms: C_1  and  C_2
REMARK    2  A    between atoms: C_5  and  S_6
REMARK    3  A    between atoms: S_6  and  N_9
REMARK    4  A    between atoms: N_9  and  C_10
REMARK    5  A    between atoms: C_10  and  C_11
REMARK    6  A    between atoms: C_10  and  C_15
REMARK    7  A    between atoms: C_11  and  C_12
REMARK    8  A    between atoms: C_12  and  C_13
REMARK    9  A    between atoms: C_12  and  C_14
REMARK   10  A    between atoms: C_20  and  C_21
REMARK                            x       y       z     vdW  Elec       q    Type
REMARK                         _______ _______ _______ _____ _____    ______ ____
ROOT
ATOM      1  C   UNL     1       5.129   5.569  17.709  0.00  0.00    +0.000 C 
ENDROOT
BRANCH   1   2
ATOM      2  C   UNL     1       5.187   4.608  18.909  0.00  0.00    +0.000 C 
ATOM      3  O   UNL     1       6.006   4.830  19.808  0.00  0.00    +0.000 OA
ATOM      4  N   UNL     1       4.349   3.504  18.938  0.00  0.00    +0.000 N 
ATOM      5  C   UNL     1       3.418   3.108  17.891  0.00  0.00    +0.000 C 
ATOM      6  C   UNL     1       1.982   3.211  18.394  0.00  0.00    +0.000 C 
ATOM      7  C   UNL     1       1.795   2.372  19.668  0.00  0.00    +0.000 C 
ATOM      8  C   UNL     1       0.380   2.536  20.219  0.00  0.00    +0.000 C 
ATOM      9  C   UNL     1       2.845   2.751  20.728  0.00  0.00    +0.000 C 
ATOM     10  C   UNL     1       4.267   2.707  20.159  0.00  0.00    +0.000 C 
ENDBRANCH   1   2
BRANCH   1  11
ATOM     11  N   UNL     1       5.503   4.826  16.462  0.00  0.00    +0.000 NA
ATOM     12  H   UNL     1       6.109   4.040  16.708  0.00  0.00    +0.000 HD
BRANCH  11  13
ATOM     13  S   UNL     1       6.251   5.758  15.246  0.00  0.00    +0.000 S 
ATOM     14  O   UNL     1       7.608   6.041  15.669  0.00  0.00    +0.000 OA
ATOM     15  O   UNL     1       5.328   6.823  14.914  0.00  0.00    +0.000 OA
BRANCH  13  20
ATOM     16  C   UNL     1       6.706   1.742  10.723  0.00  0.00    +0.000 C 
ATOM     17  C   UNL     1       6.543   2.821  11.757  0.00  0.00    +0.000 A 
ATOM     18  C   UNL     1       7.567   3.749  11.989  0.00  0.00    +0.000 A 
ATOM     19  C   UNL     1       7.457   4.679  13.027  0.00  0.00    +0.000 A 
ATOM     20  C   UNL     1       6.307   4.695  13.822  0.00  0.00    +0.000 A 
ATOM     21  C   UNL     1       5.260   3.808  13.570  0.00  0.00    +0.000 A 
ATOM     22  C   UNL     1       5.380   2.873  12.538  0.00  0.00    +0.000 A 
ENDBRANCH  13  20
ENDBRANCH  11  13
ENDBRANCH   1  11
BRANCH   1  23
ATOM     23  C   UNL     1       3.686   6.087  17.573  0.00  0.00    +0.000 C 
BRANCH  23  24
ATOM     24  C   UNL     1       3.257   7.167  18.587  0.00  0.00    +0.000 C 
ATOM     25  C   UNL     1       2.503   8.288  17.858  0.00  0.00    +0.000 C 
ATOM     26  C   UNL     1       2.380   6.621  19.713  0.00  0.00    +0.000 C 
ENDBRANCH  23  24
ENDBRANCH   1  23
TORSDOF 6
ENDMDL
MODEL 9
REMARK VINA RESULT:      -6.4      3.227      7.371
REMARK  Name = 
REMARK  10 active torsions:
REMARK  status: ('A' for Active; 'I' for Inactive)
REMARK    1  A    between atoms: C_1  and  C_2
REMARK    2  A    between atoms: C_5  and  S_6
REMARK    3  A    between atoms: S_6  and  N_9
REMARK    4  A    between atoms: N_9  and  C_10
REMARK    5  A    between atoms: C_10  and  C_11
REMARK    6  A    between atoms: C_10  and  C_15
REMARK    7  A    between atoms: C_11  and  C_12
REMARK    8  A    between atoms: C_12  and  C_13
REMARK    9  A    between atoms: C_12  and  C_14
REMARK   10  A    between atoms: C_20  and  C_21
REMARK                            x       y       z     vdW  Elec       q    Type
REMARK                         _______ _______ _______ _____ _____    ______ ____
ROOT
ATOM      1  C   UNL     1       5.890   6.432  17.042  0.00  0.00    +0.000 C 
ENDROOT
BRANCH   1   2
ATOM      2  C   UNL     1       4.417   6.607  17.449  0.00  0.00    +0.000 C 
ATOM      3  O   UNL     1       3.751   7.491  16.900  0.00  0.00    +0.000 OA
ATOM      4  N   UNL     1       3.884   5.796  18.441  0.00  0.00    +0.000 N 
ATOM      5  C   UNL     1       4.609   4.792  19.207  0.00  0.00    +0.000 C 
ATOM      6  C   UNL     1       4.071   3.400  18.893  0.00  0.00    +0.000 C 
ATOM      7  C   UNL     1       2.558   3.334  19.156  0.00  0.00    +0.000 C 
ATOM      8  C   UNL     1       2.002   1.965  18.770  0.00  0.00    +0.000 C 
ATOM      9  C   UNL     1       1.825   4.458  18.403  0.00  0.00    +0.000 C 
ATOM     10  C   UNL     1       2.446   5.830  18.687  0.00  0.00    +0.000 C 
ENDBRANCH   1   2
BRANCH   1  11
ATOM     11  N   UNL     1       5.976   6.243  15.558  0.00  0.00    +0.000 NA
ATOM     12  H   UNL     1       5.039   6.064  15.188  0.00  0.00    +0.000 HD
BRANCH  11  13
ATOM     13  S   UNL     1       7.036   5.017  15.031  0.00  0.00    +0.000 S 
ATOM     14  O   UNL     1       7.243   4.099  16.133  0.00  0.00    +0.000 OA
ATOM     15  O   UNL     1       8.148   5.682  14.384  0.00  0.00    +0.000 OA
BRANCH  13  20
ATOM     16  C   UNL     1       3.908   2.645  10.407  0.00  0.00    +0.000 C 
ATOM     17  C   UNL     1       4.695   3.111  11.600  0.00  0.00    +0.000 A 
ATOM     18  C   UNL     1       4.049   3.452  12.795  0.00  0.00    +0.000 A 
ATOM     19  C   UNL     1       4.772   3.992  13.862  0.00  0.00    +0.000 A 
ATOM     20  C   UNL     1       6.153   4.169  13.741  0.00  0.00    +0.000 A 
ATOM     21  C   UNL     1       6.817   3.788  12.574  0.00  0.00    +0.000 A 
ATOM     22  C   UNL     1       6.086   3.259  11.506  0.00  0.00    +0.000 A 
ENDBRANCH  13  20
ENDBRANCH  11  13
ENDBRANCH   1  11
BRANCH   1  23
ATOM     23  C   UNL     1       6.655   7.711  17.432  0.00  0.00    +0.000 C 
BRANCH  23  24
ATOM     24  C   UNL     1       8.070   7.503  18.009  0.00  0.00    +0.000 C 
ATOM     25  C   UNL     1       8.584   8.821  18.603  0.00  0.00    +0.000 C 
ATOM     26  C   UNL     1       8.131   6.412  19.078  0.00  0.00    +0.000 C 
ENDBRANCH  23  24
ENDBRANCH   1  23
TORSDOF 6
ENDMDL
