MODEL 1
REMARK VINA RESULT:      -7.2      0.000      0.000
REMARK  Name = 
REMARK  5 active torsions:
REMARK  status: ('A' for Active; 'I' for Inactive)
REMARK    1  A    between atoms: C_1  and  C_2
REMARK    2  A    between atoms: C_2  and  C_3
REMARK    3  A    between atoms: C_3  and  N_4
REMARK    4  A    between atoms: N_4  and  C_5
REMARK    5  A    between atoms: N_8  and  C_9
REMARK                            x       y       z     vdW  Elec       q    Type
REMARK                         _______ _______ _______ _____ _____    ______ ____
ROOT
ATOM      1  C   UNL     1       6.601   5.512  16.218  0.00  0.00    +0.000 A 
ATOM      2  C   UNL     1       5.241   6.089  16.068  0.00  0.00    +0.000 A 
ATOM      3  N   UNL     1       4.263   6.026  16.910  0.00  0.00    +0.000 NA
ATOM      4  N   UNL     1       4.488   5.382  18.105  0.00  0.00    +0.000 N 
ATOM      5  C   UNL     1       5.703   4.753  18.414  0.00  0.00    +0.000 A 
ATOM      6  O   UNL     1       5.912   4.078  19.424  0.00  0.00    +0.000 OA
ATOM      7  C   UNL     1       6.787   4.897  17.397  0.00  0.00    +0.000 A 
ATOM      8 CL   UNL     1       8.330   4.239  17.853  0.00  0.00    +0.000 Cl
ENDROOT
BRANCH   4   9
ATOM      9  C   UNL     1       3.377   5.441  19.011  0.00  0.00    +0.000 A 
ATOM     10  C   UNL     1       2.776   4.281  19.521  0.00  0.00    +0.000 A 
ATOM     11  C   UNL     1       1.724   4.357  20.439  0.00  0.00    +0.000 A 
ATOM     12 CL   UNL     1       1.045   2.908  21.075  0.00  0.00    +0.000 Cl
ATOM     13  C   UNL     1       1.236   5.587  20.858  0.00  0.00    +0.000 A 
ATOM     14  C   UNL     1       1.814   6.746  20.355  0.00  0.00    +0.000 A 
ATOM     15 CL   UNL     1       1.209   8.279  20.855  0.00  0.00    +0.000 Cl
ATOM     16  C   UNL     1       2.878   6.680  19.450  0.00  0.00    +0.000 A 
ENDBRANCH   4   9
BRANCH   1  17
ATOM     17  N   UNL     1       7.491   5.675  15.152  0.00  0.00    +0.000 N 
ATOM     18  H   UNL     1       7.746   6.652  15.008  0.00  0.00    +0.000 HD
BRANCH  17  19
ATOM     19  C   UNL     1       7.241   5.013  13.868  0.00  0.00    +0.000 C 
BRANCH  19  21
ATOM     20  C   UNL     1       5.725   3.415  12.682  0.00  0.00    +0.000 C 
ATOM     21  C   UNL     1       6.239   3.877  14.038  0.00  0.00    +0.000 C 
ENDBRANCH  19  21
ENDBRANCH  17  19
ENDBRANCH   1  17
TORSDOF 4
ENDMDL
MODEL 2
REMARK VINA RESULT:      -7.0      3.629      6.855
REMARK  Name = 
REMARK  5 active torsions:
REMARK  status: ('A' for Active; 'I' for Inactive)
REMARK    1  A    between atoms: C_1  and  C_2
REMARK    2  A    between atoms: C_2  and  C_3
REMARK    3  A    between atoms: C_3  and  N_4
REMARK    4  A    between atoms: N_4  and  C_5
REMARK    5  A    between atoms: N_8  and  C_9
REMARK                            x       y       z     vdW  Elec       q    Type
REMARK                         _______ _______ _______ _____ _____    ______ ____
ROOT
ATOM      1  C   UNL     1       0.986   9.908  19.198  0.00  0.00    +0.000 A 
ATOM      2  C   UNL     1       1.673   9.662  17.904  0.00  0.00    +0.000 A 
ATOM      3  N   UNL     1       2.364   8.625  17.565  0.00  0.00    +0.000 NA
ATOM      4  N   UNL     1       2.469   7.600  18.478  0.00  0.00    +0.000 N 
ATOM      5  C   UNL     1       1.909   7.664  19.762  0.00  0.00    +0.000 A 
ATOM      6  O   UNL     1       2.066   6.817  20.643  0.00  0.00    +0.000 OA
ATOM      7  C   UNL     1       1.104   8.886  20.060  0.00  0.00    +0.000 A 
ATOM      8 CL   UNL     1       0.295   8.889  21.598  0.00  0.00    +0.000 Cl
ENDROOT
BRANCH   4   9
ATOM      9  C   UNL     1       3.178   6.455  17.981  0.00  0.00    +0.000 A 
ATOM     10  C   UNL     1       2.597   5.178  17.959  0.00  0.00    +0.000 A 
ATOM     11  C   UNL     1       3.284   4.083  17.429  0.00  0.00    +0.000 A 
ATOM     12 CL   UNL     1       2.516   2.542  17.379  0.00  0.00    +0.000 Cl
ATOM     13  C   UNL     1       4.569   4.227  16.925  0.00  0.00    +0.000 A 
ATOM     14  C   UNL     1       5.162   5.483  16.948  0.00  0.00    +0.000 A 
ATOM     15 CL   UNL     1       6.761   5.675  16.338  0.00  0.00    +0.000 Cl
ATOM     16  C   UNL     1       4.477   6.589  17.460  0.00  0.00    +0.000 A 
ENDBRANCH   4   9
BRANCH   1  17
ATOM     17  N   UNL     1       0.323  11.129  19.353  0.00  0.00    +0.000 N 
ATOM     18  H   UNL     1       0.074  11.311  20.325  0.00  0.00    +0.000 HD
BRANCH  17  19
ATOM     19  C   UNL     1      -0.782  11.492  18.460  0.00  0.00    +0.000 C 
BRANCH  19  21
ATOM     20  C   UNL     1      -2.175  10.068  16.948  0.00  0.00    +0.000 C 
ATOM     21  C   UNL     1      -1.809  10.367  18.394  0.00  0.00    +0.000 C 
ENDBRANCH  19  21
ENDBRANCH  17  19
ENDBRANCH   1  17
TORSDOF 4
ENDMDL
MODEL 3
REMARK VINA RESULT:      -6.9      1.155      2.357
REMARK  Name = 
REMARK  5 active torsions:
REMARK  status: ('A' for Active; 'I' for Inactive)
REMARK    1  A    between atoms: C_1  and  C_2
REMARK    2  A    between atoms: C_2  and  C_3
REMARK    3  A    between atoms: C_3  and  N_4
REMARK    4  A    between atoms: N_4  and  C_5
REMARK    5  A    between atoms: N_8  and  C_9
REMARK                            x       y       z     vdW  Elec       q    Type
REMARK                         _______ _______ _______ _____ _____    ______ ____
ROOT
ATOM      1  C   UNL     1       5.947   3.893  15.839  0.00  0.00    +0.000 A 
ATOM      2  C   UNL     1       4.463   3.858  15.862  0.00  0.00    +0.000 A 
ATOM      3  N   UNL     1       3.686   4.084  16.868  0.00  0.00    +0.000 NA
ATOM      4  N   UNL     1       4.273   4.428  18.065  0.00  0.00    +0.000 N 
ATOM      5  C   UNL     1       5.663   4.487  18.242  0.00  0.00    +0.000 A 
ATOM      6  O   UNL     1       6.230   4.688  19.317  0.00  0.00    +0.000 OA
ATOM      7  C   UNL     1       6.485   4.238  17.020  0.00  0.00    +0.000 A 
ATOM      8 CL   UNL     1       8.198   4.457  17.216  0.00  0.00    +0.000 Cl
ENDROOT
BRANCH   4   9
ATOM      9  C   UNL     1       3.331   4.747  19.100  0.00  0.00    +0.000 A 
ATOM     10  C   UNL     1       2.933   6.068  19.356  0.00  0.00    +0.000 A 
ATOM     11  C   UNL     1       1.980   6.357  20.336  0.00  0.00    +0.000 A 
ATOM     12 CL   UNL     1       1.486   7.987  20.586  0.00  0.00    +0.000 Cl
ATOM     13  C   UNL     1       1.412   5.342  21.094  0.00  0.00    +0.000 A 
ATOM     14  C   UNL     1       1.802   4.030  20.860  0.00  0.00    +0.000 A 
ATOM     15 CL   UNL     1       1.117   2.762  21.803  0.00  0.00    +0.000 Cl
ATOM     16  C   UNL     1       2.743   3.729  19.870  0.00  0.00    +0.000 A 
ENDBRANCH   4   9
BRANCH   1  17
ATOM     17  N   UNL     1       6.581   3.577  14.634  0.00  0.00    +0.000 N 
ATOM     18  H   UNL     1       7.597   3.575  14.721  0.00  0.00    +0.000 HD
BRANCH  17  19
ATOM     19  C   UNL     1       6.172   4.229  13.386  0.00  0.00    +0.000 C 
BRANCH  19  21
ATOM     20  C   UNL     1       4.588   3.283  11.697  0.00  0.00    +0.000 C 
ATOM     21  C   UNL     1       5.992   3.199  12.277  0.00  0.00    +0.000 C 
ENDBRANCH  19  21
ENDBRANCH  17  19
ENDBRANCH   1  17
TORSDOF 4
ENDMDL
MODEL 4
REMARK VINA RESULT:      -6.9      1.072      1.134
REMARK  Name = 
REMARK  5 active torsions:
REMARK  status: ('A' for Active; 'I' for Inactive)
REMARK    1  A    between atoms: C_1  and  C_2
REMARK    2  A    between atoms: C_2  and  C_3
REMARK    3  A    between atoms: C_3  and  N_4
REMARK    4  A    between atoms: N_4  and  C_5
REMARK    5  A    between atoms: N_8  and  C_9
REMARK                            x       y       z     vdW  Elec       q    Type
REMARK                         _______ _______ _______ _____ _____    ______ ____
ROOT
ATOM      1  C   UNL     1       6.069   3.976  15.921  0.00  0.00    +0.000 A 
ATOM      2  C   UNL     1       4.585   3.976  15.862  0.00  0.00    +0.000 A 
ATOM      3  N   UNL     1       3.759   4.180  16.834  0.00  0.00    +0.000 NA
ATOM      4  N   UNL     1       4.287   4.463  18.074  0.00  0.00    +0.000 N 
ATOM      5  C   UNL     1       5.666   4.481  18.327  0.00  0.00    +0.000 A 
ATOM      6  O   UNL     1       6.177   4.626  19.439  0.00  0.00    +0.000 OA
ATOM      7  C   UNL     1       6.548   4.261  17.143  0.00  0.00    +0.000 A 
ATOM      8 CL   UNL     1       8.252   4.430  17.440  0.00  0.00    +0.000 Cl
ENDROOT
BRANCH   4   9
ATOM      9  C   UNL     1       3.296   4.764  19.068  0.00  0.00    +0.000 A 
ATOM     10  C   UNL     1       2.710   3.761  19.854  0.00  0.00    +0.000 A 
ATOM     11  C   UNL     1       1.781   4.077  20.850  0.00  0.00    +0.000 A 
ATOM     12 CL   UNL     1       1.119   2.820  21.823  0.00  0.00    +0.000 Cl
ATOM     13  C   UNL     1       1.402   5.393  21.075  0.00  0.00    +0.000 A 
ATOM     14  C   UNL     1       1.967   6.397  20.299  0.00  0.00    +0.000 A 
ATOM     15 CL   UNL     1       1.497   8.033  20.558  0.00  0.00    +0.000 Cl
ATOM     16  C   UNL     1       2.910   6.093  19.312  0.00  0.00    +0.000 A 
ENDBRANCH   4   9
BRANCH   1  17
ATOM     17  N   UNL     1       6.761   3.692  14.741  0.00  0.00    +0.000 N 
ATOM     18  H   UNL     1       7.762   3.577  14.898  0.00  0.00    +0.000 HD
BRANCH  17  19
ATOM     19  C   UNL     1       6.517   4.481  13.529  0.00  0.00    +0.000 C 
BRANCH  19  21
ATOM     20  C   UNL     1       5.022   3.238  11.955  0.00  0.00    +0.000 C 
ATOM     21  C   UNL     1       6.463   3.577  12.303  0.00  0.00    +0.000 C 
ENDBRANCH  19  21
ENDBRANCH  17  19
ENDBRANCH   1  17
TORSDOF 4
ENDMDL
MODEL 5
REMARK VINA RESULT:      -6.9      4.684      6.938
REMARK  Name = 
REMARK  5 active torsions:
REMARK  status: ('A' for Active; 'I' for Inactive)
REMARK    1  A    between atoms: C_1  and  C_2
REMARK    2  A    between atoms: C_2  and  C_3
REMARK    3  A    between atoms: C_3  and  N_4
REMARK    4  A    between atoms: N_4  and  C_5
REMARK    5  A    between atoms: N_8  and  C_9
REMARK                            x       y       z     vdW  Elec       q    Type
REMARK                         _______ _______ _______ _____ _____    ______ ____
ROOT
ATOM      1  C   UNL     1       2.375   6.737  19.951  0.00  0.00    +0.000 A 
ATOM      2  C   UNL     1       1.508   7.612  20.780  0.00  0.00    +0.000 A 
ATOM      3  N   UNL     1       0.996   8.751  20.451  0.00  0.00    +0.000 NA
ATOM      4  N   UNL     1       1.241   9.219  19.180  0.00  0.00    +0.000 N 
ATOM      5  C   UNL     1       2.059   8.542  18.264  0.00  0.00    +0.000 A 
ATOM      6  O   UNL     1       2.388   8.974  17.158  0.00  0.00    +0.000 OA
ATOM      7  C   UNL     1       2.588   7.221  18.717  0.00  0.00    +0.000 A 
ATOM      8 CL   UNL     1       3.479   6.325  17.524  0.00  0.00    +0.000 Cl
ENDROOT
BRANCH   4   9
ATOM      9  C   UNL     1       0.559  10.445  18.874  0.00  0.00    +0.000 A 
ATOM     10  C   UNL     1      -0.799  10.467  18.521  0.00  0.00    +0.000 A 
ATOM     11  C   UNL     1      -1.459  11.674  18.272  0.00  0.00    +0.000 A 
ATOM     12 CL   UNL     1      -3.137  11.660  17.887  0.00  0.00    +0.000 Cl
ATOM     13  C   UNL     1      -0.782  12.883  18.352  0.00  0.00    +0.000 A 
ATOM     14  C   UNL     1       0.565  12.877  18.690  0.00  0.00    +0.000 A 
ATOM     15 CL   UNL     1       1.422  14.368  18.779  0.00  0.00    +0.000 Cl
ATOM     16  C   UNL     1       1.231  11.677  18.959  0.00  0.00    +0.000 A 
ENDBRANCH   4   9
BRANCH   1  17
ATOM     17  N   UNL     1       2.845   5.557  20.534  0.00  0.00    +0.000 N 
ATOM     18  H   UNL     1       3.849   5.588  20.713  0.00  0.00    +0.000 HD
BRANCH  17  19
ATOM     19  C   UNL     1       2.459   4.253  19.987  0.00  0.00    +0.000 C 
BRANCH  19  21
ATOM     20  C   UNL     1       1.433   2.650  21.611  0.00  0.00    +0.000 C 
ATOM     21  C   UNL     1       1.158   3.771  20.619  0.00  0.00    +0.000 C 
ENDBRANCH  19  21
ENDBRANCH  17  19
ENDBRANCH   1  17
TORSDOF 4
ENDMDL
MODEL 6
REMARK VINA RESULT:      -6.8      3.571      7.063
REMARK  Name = 
REMARK  5 active torsions:
REMARK  status: ('A' for Active; 'I' for Inactive)
REMARK    1  A    between atoms: C_1  and  C_2
REMARK    2  A    between atoms: C_2  and  C_3
REMARK    3  A    between atoms: C_3  and  N_4
REMARK    4  A    between atoms: N_4  and  C_5
REMARK    5  A    between atoms: N_8  and  C_9
REMARK                            x       y       z     vdW  Elec       q    Type
REMARK                         _______ _______ _______ _____ _____    ______ ____
ROOT
ATOM      1  C   UNL     1       1.002   9.786  19.097  0.00  0.00    +0.000 A 
ATOM      2  C   UNL     1       1.709   9.541  17.814  0.00  0.00    +0.000 A 
ATOM      3  N   UNL     1       2.429   8.518  17.496  0.00  0.00    +0.000 NA
ATOM      4  N   UNL     1       2.550   7.507  18.423  0.00  0.00    +0.000 N 
ATOM      5  C   UNL     1       1.974   7.573  19.700  0.00  0.00    +0.000 A 
ATOM      6  O   UNL     1       2.143   6.742  20.594  0.00  0.00    +0.000 OA
ATOM      7  C   UNL     1       1.136   8.779  19.974  0.00  0.00    +0.000 A 
ATOM      8 CL   UNL     1       0.311   8.781  21.504  0.00  0.00    +0.000 Cl
ENDROOT
BRANCH   4   9
ATOM      9  C   UNL     1       3.292   6.374  17.949  0.00  0.00    +0.000 A 
ATOM     10  C   UNL     1       4.626   6.487  17.529  0.00  0.00    +0.000 A 
ATOM     11  C   UNL     1       5.348   5.365  17.114  0.00  0.00    +0.000 A 
ATOM     12 CL   UNL     1       6.997   5.540  16.650  0.00  0.00    +0.000 Cl
ATOM     13  C   UNL     1       4.757   4.109  17.092  0.00  0.00    +0.000 A 
ATOM     14  C   UNL     1       3.435   3.982  17.495  0.00  0.00    +0.000 A 
ATOM     15 CL   UNL     1       2.684   2.432  17.460  0.00  0.00    +0.000 Cl
ATOM     16  C   UNL     1       2.708   5.095  17.929  0.00  0.00    +0.000 A 
ENDBRANCH   4   9
BRANCH   1  17
ATOM     17  N   UNL     1       0.306  10.992  19.230  0.00  0.00    +0.000 N 
ATOM     18  H   UNL     1       0.602  11.519  20.051  0.00  0.00    +0.000 HD
BRANCH  17  19
ATOM     19  C   UNL     1      -1.153  11.025  19.092  0.00  0.00    +0.000 C 
BRANCH  19  21
ATOM     20  C   UNL     1      -3.015  10.004  17.770  0.00  0.00    +0.000 C 
ATOM     21  C   UNL     1      -1.575  10.494  17.728  0.00  0.00    +0.000 C 
ENDBRANCH  19  21
ENDBRANCH  17  19
ENDBRANCH   1  17
TORSDOF 4
ENDMDL
MODEL 7
REMARK VINA RESULT:      -6.7      4.762      7.067
REMARK  Name = 
REMARK  5 active torsions:
REMARK  status: ('A' for Active; 'I' for Inactive)
REMARK    1  A    between atoms: C_1  and  C_2
REMARK    2  A    between atoms: C_2  and  C_3
REMARK    3  A    between atoms: C_3  and  N_4
REMARK    4  A    between atoms: N_4  and  C_5
REMARK    5  A    between atoms: N_8  and  C_9
REMARK                            x       y       z     vdW  Elec       q    Type
REMARK                         _______ _______ _______ _____ _____    ______ ____
ROOT
ATOM      1  C   UNL     1       2.274   6.830  20.076  0.00  0.00    +0.000 A 
ATOM      2  C   UNL     1       1.388   7.708  20.881  0.00  0.00    +0.000 A 
ATOM      3  N   UNL     1       0.876   8.841  20.532  0.00  0.00    +0.000 NA
ATOM      4  N   UNL     1       1.141   9.299  19.261  0.00  0.00    +0.000 N 
ATOM      5  C   UNL     1       1.979   8.618  18.366  0.00  0.00    +0.000 A 
ATOM      6  O   UNL     1       2.326   9.041  17.262  0.00  0.00    +0.000 OA
ATOM      7  C   UNL     1       2.507   7.304  18.842  0.00  0.00    +0.000 A 
ATOM      8 CL   UNL     1       3.424   6.401  17.673  0.00  0.00    +0.000 Cl
ENDROOT
BRANCH   4   9
ATOM      9  C   UNL     1       0.458  10.518  18.931  0.00  0.00    +0.000 A 
ATOM     10  C   UNL     1       1.093  11.766  19.013  0.00  0.00    +0.000 A 
ATOM     11  C   UNL     1       0.427  12.938  18.643  0.00  0.00    +0.000 A 
ATOM     12 CL   UNL     1       1.258  14.445  18.715  0.00  0.00    +0.000 Cl
ATOM     13  C   UNL     1      -0.888  12.898  18.201  0.00  0.00    +0.000 A 
ATOM     14  C   UNL     1      -1.533  11.671  18.123  0.00  0.00    +0.000 A 
ATOM     15 CL   UNL     1      -3.169  11.608  17.589  0.00  0.00    +0.000 Cl
ATOM     16  C   UNL     1      -0.871  10.490  18.474  0.00  0.00    +0.000 A 
ENDBRANCH   4   9
BRANCH   1  17
ATOM     17  N   UNL     1       2.741   5.658  20.680  0.00  0.00    +0.000 N 
ATOM     18  H   UNL     1       3.711   5.740  20.983  0.00  0.00    +0.000 HD
BRANCH  17  19
ATOM     19  C   UNL     1       2.505   4.355  20.050  0.00  0.00    +0.000 C 
BRANCH  19  21
ATOM     20  C   UNL     1       0.687   2.799  19.322  0.00  0.00    +0.000 C 
ATOM     21  C   UNL     1       1.081   3.881  20.315  0.00  0.00    +0.000 C 
ENDBRANCH  19  21
ENDBRANCH  17  19
ENDBRANCH   1  17
TORSDOF 4
ENDMDL
MODEL 8
REMARK VINA RESULT:      -6.7      3.770      7.084
REMARK  Name = 
REMARK  5 active torsions:
REMARK  status: ('A' for Active; 'I' for Inactive)
REMARK    1  A    between atoms: C_1  and  C_2
REMARK    2  A    between atoms: C_2  and  C_3
REMARK    3  A    between atoms: C_3  and  N_4
REMARK    4  A    between atoms: N_4  and  C_5
REMARK    5  A    between atoms: N_8  and  C_9
REMARK                            x       y       z     vdW  Elec       q    Type
REMARK                         _______ _______ _______ _____ _____    ______ ____
ROOT
ATOM      1  C   UNL     1       1.076   9.842  19.281  0.00  0.00    +0.000 A 
ATOM      2  C   UNL     1       1.718   9.604  17.963  0.00  0.00    +0.000 A 
ATOM      3  N   UNL     1       2.373   8.558  17.584  0.00  0.00    +0.000 NA
ATOM      4  N   UNL     1       2.479   7.513  18.474  0.00  0.00    +0.000 N 
ATOM      5  C   UNL     1       1.959   7.565  19.775  0.00  0.00    +0.000 A 
ATOM      6  O   UNL     1       2.121   6.698  20.636  0.00  0.00    +0.000 OA
ATOM      7  C   UNL     1       1.194   8.801  20.120  0.00  0.00    +0.000 A 
ATOM      8 CL   UNL     1       0.432   8.794  21.682  0.00  0.00    +0.000 Cl
ENDROOT
BRANCH   4   9
ATOM      9  C   UNL     1       3.144   6.361  17.935  0.00  0.00    +0.000 A 
ATOM     10  C   UNL     1       2.570   5.082  17.991  0.00  0.00    +0.000 A 
ATOM     11  C   UNL     1       3.210   3.979  17.419  0.00  0.00    +0.000 A 
ATOM     12 CL   UNL     1       2.449   2.435  17.470  0.00  0.00    +0.000 Cl
ATOM     13  C   UNL     1       4.442   4.118  16.795  0.00  0.00    +0.000 A 
ATOM     14  C   UNL     1       5.029   5.375  16.740  0.00  0.00    +0.000 A 
ATOM     15 CL   UNL     1       6.563   5.561  15.980  0.00  0.00    +0.000 Cl
ATOM     16  C   UNL     1       4.388   6.489  17.293  0.00  0.00    +0.000 A 
ENDBRANCH   4   9
BRANCH   1  17
ATOM     17  N   UNL     1       0.448  11.075  19.479  0.00  0.00    +0.000 N 
ATOM     18  H   UNL     1       0.782  11.548  20.318  0.00  0.00    +0.000 HD
BRANCH  17  19
ATOM     19  C   UNL     1      -1.010  11.192  19.366  0.00  0.00    +0.000 C 
BRANCH  19  21
ATOM     20  C   UNL     1      -0.386  13.348  18.263  0.00  0.00    +0.000 C 
ATOM     21  C   UNL     1      -1.384  12.201  18.287  0.00  0.00    +0.000 C 
ENDBRANCH  19  21
ENDBRANCH  17  19
ENDBRANCH   1  17
TORSDOF 4
ENDMDL
MODEL 9
REMARK VINA RESULT:      -6.7      2.760      6.918
REMARK  Name = 
REMARK  5 active torsions:
REMARK  status: ('A' for Active; 'I' for Inactive)
REMARK    1  A    between atoms: C_1  and  C_2
REMARK    2  A    between atoms: C_2  and  C_3
REMARK    3  A    between atoms: C_3  and  N_4
REMARK    4  A    between atoms: N_4  and  C_5
REMARK    5  A    between atoms: N_8  and  C_9
REMARK                            x       y       z     vdW  Elec       q    Type
REMARK                         _______ _______ _______ _____ _____    ______ ____
ROOT
ATOM      1  C   UNL     1       4.740   4.358  18.694  0.00  0.00    +0.000 A 
ATOM      2  C   UNL     1       4.081   3.812  17.481  0.00  0.00    +0.000 A 
ATOM      3  N   UNL     1       4.521   3.837  16.268  0.00  0.00    +0.000 NA
ATOM      4  N   UNL     1       5.756   4.405  16.046  0.00  0.00    +0.000 N 
ATOM      5  C   UNL     1       6.515   4.996  17.066  0.00  0.00    +0.000 A 
ATOM      6  O   UNL     1       7.573   5.605  16.897  0.00  0.00    +0.000 OA
ATOM      7  C   UNL     1       5.943   4.898  18.443  0.00  0.00    +0.000 A 
ATOM      8 CL   UNL     1       6.959   5.504  19.717  0.00  0.00    +0.000 Cl
ENDROOT
BRANCH   4   9
ATOM      9  C   UNL     1       6.201   4.307  14.686  0.00  0.00    +0.000 A 
ATOM     10  C   UNL     1       5.663   3.364  13.797  0.00  0.00    +0.000 A 
ATOM     11  C   UNL     1       6.076   3.313  12.463  0.00  0.00    +0.000 A 
ATOM     12 CL   UNL     1       5.357   2.170  11.395  0.00  0.00    +0.000 Cl
ATOM     13  C   UNL     1       7.043   4.187  11.986  0.00  0.00    +0.000 A 
ATOM     14  C   UNL     1       7.592   5.121  12.854  0.00  0.00    +0.000 A 
ATOM     15 CL   UNL     1       8.803   6.202  12.280  0.00  0.00    +0.000 Cl
ATOM     16  C   UNL     1       7.174   5.191  14.187  0.00  0.00    +0.000 A 
ENDBRANCH   4   9
BRANCH   1  17
ATOM     17  N   UNL     1       4.053   4.247  19.907  0.00  0.00    +0.000 N 
ATOM     18  H   UNL     1       4.623   4.536  20.701  0.00  0.00    +0.000 HD
BRANCH  17  19
ATOM     19  C   UNL     1       3.304   3.027  20.226  0.00  0.00    +0.000 C 
BRANCH  19  21
ATOM     20  C   UNL     1       0.991   3.969  20.369  0.00  0.00    +0.000 C 
ATOM     21  C   UNL     1       2.136   3.344  21.152  0.00  0.00    +0.000 C 
ENDBRANCH  19  21
ENDBRANCH  17  19
ENDBRANCH   1  17
TORSDOF 4
ENDMDL
