MODEL 1
REMARK VINA RESULT:      -8.1      0.000      0.000
REMARK  Name = 
REMARK  8 active torsions:
REMARK  status: ('A' for Active; 'I' for Inactive)
REMARK    1  A    between atoms: C_1  and  C_2
REMARK    2  A    between atoms: C_2  and  N_3
REMARK    3  A    between atoms: N_3  and  C_4
REMARK    4  A    between atoms: C_4  and  C_5
REMARK    5  A    between atoms: C_6  and  C_8
REMARK    6  A    between atoms: C_8  and  C_9
REMARK    7  A    between atoms: C_9  and  C_10
REMARK    8  A    between atoms: C_10  and  C_11
REMARK                            x       y       z     vdW  Elec       q    Type
REMARK                         _______ _______ _______ _____ _____    ______ ____
ROOT
ATOM      1  C   UNL     1       4.989   5.500  16.914  0.00  0.00    +0.000 C 
ATOM      2  C   UNL     1       4.193   4.406  17.695  0.00  0.00    +0.000 A 
ATOM      3  C   UNL     1       3.024   3.732  17.356  0.00  0.00    +0.000 A 
ATOM      4  C   UNL     1       2.533   2.761  18.235  0.00  0.00    +0.000 A 
ATOM      5  C   UNL     1       3.224   2.438  19.416  0.00  0.00    +0.000 A 
ATOM      6  C   UNL     1       4.415   3.087  19.747  0.00  0.00    +0.000 A 
ATOM      7  C   UNL     1       4.873   4.063  18.886  0.00  0.00    +0.000 A 
ATOM      8  C   UNL     1       6.048   4.872  18.956  0.00  0.00    +0.000 A 
ATOM      9  N   UNL     1       7.050   5.069  19.770  0.00  0.00    +0.000 NA
ATOM     10  C   UNL     1       7.777   6.077  19.160  0.00  0.00    +0.000 A 
ATOM     11  C   UNL     1       7.202   6.481  17.966  0.00  0.00    +0.000 A 
ATOM     12  N   UNL     1       6.124   5.674  17.852  0.00  0.00    +0.000 N 
ENDROOT
BRANCH   1  13
ATOM     13  C   UNL     1       5.549   4.992  15.563  0.00  0.00    +0.000 A 
ATOM     14  C   UNL     1       6.884   5.230  15.180  0.00  0.00    +0.000 A 
ATOM     15  C   UNL     1       7.382   4.771  13.954  0.00  0.00    +0.000 A 
ATOM     16  C   UNL     1       6.564   4.046  13.094  0.00  0.00    +0.000 A 
ATOM     17 CL   UNL     1       7.175   3.495  11.584  0.00  0.00    +0.000 Cl
ATOM     18  C   UNL     1       5.255   3.764  13.459  0.00  0.00    +0.000 A 
ATOM     19  C   UNL     1       4.757   4.223  14.683  0.00  0.00    +0.000 A 
ENDBRANCH   1  13
BRANCH   1  20
ATOM     20  C   UNL     1       4.173   6.830  16.849  0.00  0.00    +0.000 C 
BRANCH  20  21
ATOM     21  C   UNL     1       3.610   7.271  18.203  0.00  0.00    +0.000 C 
BRANCH  21  23
ATOM     22  N   UNL     1       1.724   8.405  19.325  0.00  0.00    +0.000 N 
ATOM     23  C   UNL     1       2.495   8.303  18.152  0.00  0.00    +0.000 C 
ATOM     24  O   UNL     1       2.299   8.990  17.152  0.00  0.00    +0.000 OA
BRANCH  22  26
ATOM     25  C   UNL     1       0.031   9.596  20.714  0.00  0.00    +0.000 C 
ATOM     26  C   UNL     1       0.620   9.369  19.327  0.00  0.00    +0.000 C 
ENDBRANCH  22  26
BRANCH  22  27
ATOM     27  C   UNL     1       1.981   7.542  20.491  0.00  0.00    +0.000 C 
ATOM     28  C   UNL     1       1.533   6.092  20.452  0.00  0.00    +0.000 C 
ENDBRANCH  22  27
ENDBRANCH  21  23
ENDBRANCH  20  21
ENDBRANCH   1  20
TORSDOF 6
ENDMDL
MODEL 2
REMARK VINA RESULT:      -8.0      0.535      1.140
REMARK  Name = 
REMARK  8 active torsions:
REMARK  status: ('A' for Active; 'I' for Inactive)
REMARK    1  A    between atoms: C_1  and  C_2
REMARK    2  A    between atoms: C_2  and  N_3
REMARK    3  A    between atoms: N_3  and  C_4
REMARK    4  A    between atoms: C_4  and  C_5
REMARK    5  A    between atoms: C_6  and  C_8
REMARK    6  A    between atoms: C_8  and  C_9
REMARK    7  A    between atoms: C_9  and  C_10
REMARK    8  A    between atoms: C_10  and  C_11
REMARK                            x       y       z     vdW  Elec       q    Type
REMARK                         _______ _______ _______ _____ _____    ______ ____
ROOT
ATOM      1  C   UNL     1       4.891   5.504  16.953  0.00  0.00    +0.000 C 
ATOM      2  C   UNL     1       4.046   4.449  17.737  0.00  0.00    +0.000 A 
ATOM      3  C   UNL     1       2.859   3.812  17.391  0.00  0.00    +0.000 A 
ATOM      4  C   UNL     1       2.322   2.871  18.276  0.00  0.00    +0.000 A 
ATOM      5  C   UNL     1       2.985   2.540  19.470  0.00  0.00    +0.000 A 
ATOM      6  C   UNL     1       4.194   3.151  19.809  0.00  0.00    +0.000 A 
ATOM      7  C   UNL     1       4.698   4.098  18.942  0.00  0.00    +0.000 A 
ATOM      8  C   UNL     1       5.900   4.866  19.017  0.00  0.00    +0.000 A 
ATOM      9  N   UNL     1       6.898   5.038  19.842  0.00  0.00    +0.000 NA
ATOM     10  C   UNL     1       7.668   6.012  19.229  0.00  0.00    +0.000 A 
ATOM     11  C   UNL     1       7.123   6.419  18.022  0.00  0.00    +0.000 A 
ATOM     12  N   UNL     1       6.019   5.649  17.904  0.00  0.00    +0.000 N 
ENDROOT
BRANCH   1  13
ATOM     13  C   UNL     1       5.451   4.958  15.616  0.00  0.00    +0.000 A 
ATOM     14  C   UNL     1       4.629   4.284  14.691  0.00  0.00    +0.000 A 
ATOM     15  C   UNL     1       5.144   3.789  13.486  0.00  0.00    +0.000 A 
ATOM     16  C   UNL     1       6.486   3.975  13.171  0.00  0.00    +0.000 A 
ATOM     17 CL   UNL     1       7.118   3.354  11.697  0.00  0.00    +0.000 Cl
ATOM     18  C   UNL     1       7.313   4.665  14.045  0.00  0.00    +0.000 A 
ATOM     19  C   UNL     1       6.799   5.160  15.249  0.00  0.00    +0.000 A 
ENDBRANCH   1  13
BRANCH   1  20
ATOM     20  C   UNL     1       4.124   6.861  16.860  0.00  0.00    +0.000 C 
BRANCH  20  21
ATOM     21  C   UNL     1       3.243   7.153  18.078  0.00  0.00    +0.000 C 
BRANCH  21  23
ATOM     22  N   UNL     1       1.742   8.758  19.206  0.00  0.00    +0.000 N 
ATOM     23  C   UNL     1       2.480   8.467  18.043  0.00  0.00    +0.000 C 
ATOM     24  O   UNL     1       2.519   9.208  17.063  0.00  0.00    +0.000 OA
BRANCH  22  26
ATOM     25  C   UNL     1      -0.273   9.943  18.343  0.00  0.00    +0.000 C 
ATOM     26  C   UNL     1       0.969  10.002  19.223  0.00  0.00    +0.000 C 
ENDBRANCH  22  26
BRANCH  22  27
ATOM     27  C   UNL     1       1.707   7.826  20.346  0.00  0.00    +0.000 C 
ATOM     28  C   UNL     1       0.763   8.107  21.502  0.00  0.00    +0.000 C 
ENDBRANCH  22  27
ENDBRANCH  21  23
ENDBRANCH  20  21
ENDBRANCH   1  20
TORSDOF 6
ENDMDL
MODEL 3
REMARK VINA RESULT:      -7.9      3.056      6.740
REMARK  Name = 
REMARK  8 active torsions:
REMARK  status: ('A' for Active; 'I' for Inactive)
REMARK    1  A    between atoms: C_1  and  C_2
REMARK    2  A    between atoms: C_2  and  N_3
REMARK    3  A    between atoms: N_3  and  C_4
REMARK    4  A    between atoms: C_4  and  C_5
REMARK    5  A    between atoms: C_6  and  C_8
REMARK    6  A    between atoms: C_8  and  C_9
REMARK    7  A    between atoms: C_9  and  C_10
REMARK    8  A    between atoms: C_10  and  C_11
REMARK                            x       y       z     vdW  Elec       q    Type
REMARK                         _______ _______ _______ _____ _____    ______ ____
ROOT
ATOM      1  C   UNL     1       4.461   5.814  17.593  0.00  0.00    +0.000 C 
ATOM      2  C   UNL     1       5.918   6.186  18.014  0.00  0.00    +0.000 A 
ATOM      3  C   UNL     1       6.700   7.284  17.669  0.00  0.00    +0.000 A 
ATOM      4  C   UNL     1       7.981   7.393  18.220  0.00  0.00    +0.000 A 
ATOM      5  C   UNL     1       8.458   6.440  19.136  0.00  0.00    +0.000 A 
ATOM      6  C   UNL     1       7.666   5.353  19.513  0.00  0.00    +0.000 A 
ATOM      7  C   UNL     1       6.417   5.241  18.941  0.00  0.00    +0.000 A 
ATOM      8  C   UNL     1       5.398   4.260  19.140  0.00  0.00    +0.000 A 
ATOM      9  N   UNL     1       5.227   3.154  19.815  0.00  0.00    +0.000 NA
ATOM     10  C   UNL     1       3.961   2.735  19.444  0.00  0.00    +0.000 A 
ATOM     11  C   UNL     1       3.371   3.604  18.541  0.00  0.00    +0.000 A 
ATOM     12  N   UNL     1       4.297   4.577  18.396  0.00  0.00    +0.000 N 
ENDROOT
BRANCH   1  13
ATOM     13  C   UNL     1       3.410   6.845  18.073  0.00  0.00    +0.000 A 
ATOM     14  C   UNL     1       2.834   6.771  19.356  0.00  0.00    +0.000 A 
ATOM     15  C   UNL     1       1.881   7.706  19.781  0.00  0.00    +0.000 A 
ATOM     16  C   UNL     1       1.498   8.746  18.940  0.00  0.00    +0.000 A 
ATOM     17 CL   UNL     1       0.318   9.884  19.460  0.00  0.00    +0.000 Cl
ATOM     18  C   UNL     1       2.075   8.867  17.683  0.00  0.00    +0.000 A 
ATOM     19  C   UNL     1       3.026   7.934  17.259  0.00  0.00    +0.000 A 
ENDBRANCH   1  13
BRANCH   1  20
ATOM     20  C   UNL     1       4.404   5.447  16.076  0.00  0.00    +0.000 C 
BRANCH  20  21
ATOM     21  C   UNL     1       5.151   4.157  15.728  0.00  0.00    +0.000 C 
BRANCH  21  23
ATOM     22  N   UNL     1       6.227   4.000  13.511  0.00  0.00    +0.000 N 
ATOM     23  C   UNL     1       6.394   4.322  14.870  0.00  0.00    +0.000 C 
ATOM     24  O   UNL     1       7.458   4.712  15.348  0.00  0.00    +0.000 OA
BRANCH  22  26
ATOM     25  C   UNL     1       7.654   5.549  12.178  0.00  0.00    +0.000 C 
ATOM     26  C   UNL     1       7.398   4.120  12.638  0.00  0.00    +0.000 C 
ENDBRANCH  22  26
BRANCH  22  27
ATOM     27  C   UNL     1       4.939   3.513  12.989  0.00  0.00    +0.000 C 
ATOM     28  C   UNL     1       4.826   3.145  11.521  0.00  0.00    +0.000 C 
ENDBRANCH  22  27
ENDBRANCH  21  23
ENDBRANCH  20  21
ENDBRANCH   1  20
TORSDOF 6
ENDMDL
MODEL 4
REMARK VINA RESULT:      -7.5      1.017      1.447
REMARK  Name = 
REMARK  8 active torsions:
REMARK  status: ('A' for Active; 'I' for Inactive)
REMARK    1  A    between atoms: C_1  and  C_2
REMARK    2  A    between atoms: C_2  and  N_3
REMARK    3  A    between atoms: N_3  and  C_4
REMARK    4  A    between atoms: C_4  and  C_5
REMARK    5  A    between atoms: C_6  and  C_8
REMARK    6  A    between atoms: C_8  and  C_9
REMARK    7  A    between atoms: C_9  and  C_10
REMARK    8  A    between atoms: C_10  and  C_11
REMARK                            x       y       z     vdW  Elec       q    Type
REMARK                         _______ _______ _______ _____ _____    ______ ____
ROOT
ATOM      1  C   UNL     1       4.979   5.458  17.075  0.00  0.00    +0.000 C 
ATOM      2  C   UNL     1       4.242   4.293  17.810  0.00  0.00    +0.000 A 
ATOM      3  C   UNL     1       3.104   3.580  17.447  0.00  0.00    +0.000 A 
ATOM      4  C   UNL     1       2.666   2.548  18.283  0.00  0.00    +0.000 A 
ATOM      5  C   UNL     1       3.380   2.205  19.444  0.00  0.00    +0.000 A 
ATOM      6  C   UNL     1       4.542   2.895  19.798  0.00  0.00    +0.000 A 
ATOM      7  C   UNL     1       4.947   3.929  18.981  0.00  0.00    +0.000 A 
ATOM      8  C   UNL     1       6.082   4.789  19.081  0.00  0.00    +0.000 A 
ATOM      9  N   UNL     1       7.081   4.997  19.897  0.00  0.00    +0.000 NA
ATOM     10  C   UNL     1       7.754   6.065  19.330  0.00  0.00    +0.000 A 
ATOM     11  C   UNL     1       7.151   6.495  18.159  0.00  0.00    +0.000 A 
ATOM     12  N   UNL     1       6.112   5.643  18.014  0.00  0.00    +0.000 N 
ENDROOT
BRANCH   1  13
ATOM     13  C   UNL     1       5.552   5.039  15.700  0.00  0.00    +0.000 A 
ATOM     14  C   UNL     1       6.899   5.274  15.357  0.00  0.00    +0.000 A 
ATOM     15  C   UNL     1       7.409   4.896  14.109  0.00  0.00    +0.000 A 
ATOM     16  C   UNL     1       6.591   4.256  13.184  0.00  0.00    +0.000 A 
ATOM     17 CL   UNL     1       7.216   3.805  11.647  0.00  0.00    +0.000 Cl
ATOM     18  C   UNL     1       5.269   3.978  13.505  0.00  0.00    +0.000 A 
ATOM     19  C   UNL     1       4.759   4.356  14.751  0.00  0.00    +0.000 A 
ENDBRANCH   1  13
BRANCH   1  20
ATOM     20  C   UNL     1       4.101   6.750  17.076  0.00  0.00    +0.000 C 
BRANCH  20  21
ATOM     21  C   UNL     1       2.688   6.531  17.624  0.00  0.00    +0.000 C 
BRANCH  21  23
ATOM     22  N   UNL     1       1.861   8.235  19.209  0.00  0.00    +0.000 N 
ATOM     23  C   UNL     1       2.459   6.970  19.061  0.00  0.00    +0.000 C 
ATOM     24  O   UNL     1       2.778   6.256  20.010  0.00  0.00    +0.000 OA
BRANCH  22  26
ATOM     25  C   UNL     1       0.194   9.145  20.823  0.00  0.00    +0.000 C 
ATOM     26  C   UNL     1       1.635   8.721  20.574  0.00  0.00    +0.000 C 
ENDBRANCH  22  26
BRANCH  22  27
ATOM     27  C   UNL     1       1.519   9.065  18.042  0.00  0.00    +0.000 C 
ATOM     28  C   UNL     1       2.006  10.501  17.987  0.00  0.00    +0.000 C 
ENDBRANCH  22  27
ENDBRANCH  21  23
ENDBRANCH  20  21
ENDBRANCH   1  20
TORSDOF 6
ENDMDL
MODEL 5
REMARK VINA RESULT:      -7.4      4.225      8.766
REMARK  Name = 
REMARK  8 active torsions:
REMARK  status: ('A' for Active; 'I' for Inactive)
REMARK    1  A    between atoms: C_1  and  C_2
REMARK    2  A    between atoms: C_2  and  N_3
REMARK    3  A    between atoms: N_3  and  C_4
REMARK    4  A    between atoms: C_4  and  C_5
REMARK    5  A    between atoms: C_6  and  C_8
REMARK    6  A    between atoms: C_8  and  C_9
REMARK    7  A    between atoms: C_9  and  C_10
REMARK    8  A    between atoms: C_10  and  C_11
REMARK                            x       y       z     vdW  Elec       q    Type
REMARK                         _______ _______ _______ _____ _____    ______ ____
ROOT
ATOM      1  C   UNL     1       0.268  10.411  18.976  0.00  0.00    +0.000 C 
ATOM      2  C   UNL     1       1.090  11.726  19.166  0.00  0.00    +0.000 A 
ATOM      3  C   UNL     1       1.523  12.657  18.227  0.00  0.00    +0.000 A 
ATOM      4  C   UNL     1       2.226  13.780  18.675  0.00  0.00    +0.000 A 
ATOM      5  C   UNL     1       2.458  13.990  20.045  0.00  0.00    +0.000 A 
ATOM      6  C   UNL     1       1.999  13.075  20.996  0.00  0.00    +0.000 A 
ATOM      7  C   UNL     1       1.332  11.958  20.539  0.00  0.00    +0.000 A 
ATOM      8  C   UNL     1       0.746  10.877  21.266  0.00  0.00    +0.000 A 
ATOM      9  N   UNL     1       0.636  10.480  22.505  0.00  0.00    +0.000 NA
ATOM     10  C   UNL     1      -0.044   9.278  22.407  0.00  0.00    +0.000 A 
ATOM     11  C   UNL     1      -0.346   8.959  21.094  0.00  0.00    +0.000 A 
ATOM     12  N   UNL     1       0.142  10.010  20.399  0.00  0.00    +0.000 N 
ENDROOT
BRANCH   1  13
ATOM     13  C   UNL     1      -1.154  10.662  18.416  0.00  0.00    +0.000 A 
ATOM     14  C   UNL     1      -1.650   9.945  17.309  0.00  0.00    +0.000 A 
ATOM     15  C   UNL     1      -2.935  10.182  16.806  0.00  0.00    +0.000 A 
ATOM     16  C   UNL     1      -3.760  11.125  17.410  0.00  0.00    +0.000 A 
ATOM     17 CL   UNL     1      -5.332  11.423  16.781  0.00  0.00    +0.000 Cl
ATOM     18  C   UNL     1      -3.314  11.823  18.524  0.00  0.00    +0.000 A 
ATOM     19  C   UNL     1      -2.030  11.587  19.027  0.00  0.00    +0.000 A 
ENDBRANCH   1  13
BRANCH   1  20
ATOM     20  C   UNL     1       1.113   9.339  18.218  0.00  0.00    +0.000 C 
BRANCH  20  21
ATOM     21  C   UNL     1       1.934   8.437  19.144  0.00  0.00    +0.000 C 
BRANCH  21  23
ATOM     22  N   UNL     1       2.728   6.099  19.078  0.00  0.00    +0.000 N 
ATOM     23  C   UNL     1       2.761   7.363  18.458  0.00  0.00    +0.000 C 
ATOM     24  O   UNL     1       3.404   7.598  17.437  0.00  0.00    +0.000 OA
BRANCH  22  26
ATOM     25  C   UNL     1       4.889   4.860  19.127  0.00  0.00    +0.000 C 
ATOM     26  C   UNL     1       3.524   5.027  18.473  0.00  0.00    +0.000 C 
ENDBRANCH  22  26
BRANCH  22  27
ATOM     27  C   UNL     1       1.962   5.871  20.315  0.00  0.00    +0.000 C 
ATOM     28  C   UNL     1       1.323   4.514  20.550  0.00  0.00    +0.000 C 
ENDBRANCH  22  27
ENDBRANCH  21  23
ENDBRANCH  20  21
ENDBRANCH   1  20
TORSDOF 6
ENDMDL
MODEL 6
REMARK VINA RESULT:      -7.3      4.227      8.849
REMARK  Name = 
REMARK  8 active torsions:
REMARK  status: ('A' for Active; 'I' for Inactive)
REMARK    1  A    between atoms: C_1  and  C_2
REMARK    2  A    between atoms: C_2  and  N_3
REMARK    3  A    between atoms: N_3  and  C_4
REMARK    4  A    between atoms: C_4  and  C_5
REMARK    5  A    between atoms: C_6  and  C_8
REMARK    6  A    between atoms: C_8  and  C_9
REMARK    7  A    between atoms: C_9  and  C_10
REMARK    8  A    between atoms: C_10  and  C_11
REMARK                            x       y       z     vdW  Elec       q    Type
REMARK                         _______ _______ _______ _____ _____    ______ ____
ROOT
ATOM      1  C   UNL     1       0.056  10.436  18.882  0.00  0.00    +0.000 C 
ATOM      2  C   UNL     1       0.908  11.740  19.007  0.00  0.00    +0.000 A 
ATOM      3  C   UNL     1       1.242  12.690  18.048  0.00  0.00    +0.000 A 
ATOM      4  C   UNL     1       2.003  13.796  18.439  0.00  0.00    +0.000 A 
ATOM      5  C   UNL     1       2.389  13.972  19.779  0.00  0.00    +0.000 A 
ATOM      6  C   UNL     1       2.029  13.039  20.754  0.00  0.00    +0.000 A 
ATOM      7  C   UNL     1       1.304  11.938  20.350  0.00  0.00    +0.000 A 
ATOM      8  C   UNL     1       0.792  10.844  21.113  0.00  0.00    +0.000 A 
ATOM      9  N   UNL     1       0.817  10.420  22.348  0.00  0.00    +0.000 NA
ATOM     10  C   UNL     1       0.119   9.226  22.300  0.00  0.00    +0.000 A 
ATOM     11  C   UNL     1      -0.332   8.940  21.021  0.00  0.00    +0.000 A 
ATOM     12  N   UNL     1       0.086  10.003  20.300  0.00  0.00    +0.000 N 
ENDROOT
BRANCH   1  13
ATOM     13  C   UNL     1      -1.417  10.712  18.490  0.00  0.00    +0.000 A 
ATOM     14  C   UNL     1      -2.188  11.688  19.153  0.00  0.00    +0.000 A 
ATOM     15  C   UNL     1      -3.521  11.928  18.796  0.00  0.00    +0.000 A 
ATOM     16  C   UNL     1      -4.106  11.213  17.755  0.00  0.00    +0.000 A 
ATOM     17 CL   UNL     1      -5.746  11.501  17.329  0.00  0.00    +0.000 Cl
ATOM     18  C   UNL     1      -3.362  10.270  17.059  0.00  0.00    +0.000 A 
ATOM     19  C   UNL     1      -2.030  10.030  17.416  0.00  0.00    +0.000 A 
ENDBRANCH   1  13
BRANCH   1  20
ATOM     20  C   UNL     1       0.799   9.376  18.009  0.00  0.00    +0.000 C 
BRANCH  20  21
ATOM     21  C   UNL     1       2.204   9.039  18.518  0.00  0.00    +0.000 C 
BRANCH  21  23
ATOM     22  N   UNL     1       2.902   6.674  18.656  0.00  0.00    +0.000 N 
ATOM     23  C   UNL     1       2.873   7.839  17.868  0.00  0.00    +0.000 C 
ATOM     24  O   UNL     1       3.346   7.902  16.735  0.00  0.00    +0.000 OA
BRANCH  22  26
ATOM     25  C   UNL     1       4.915   5.205  18.712  0.00  0.00    +0.000 C 
ATOM     26  C   UNL     1       3.554   5.490  18.090  0.00  0.00    +0.000 C 
ENDBRANCH  22  26
BRANCH  22  27
ATOM     27  C   UNL     1       2.344   6.653  20.019  0.00  0.00    +0.000 C 
ATOM     28  C   UNL     1       1.715   5.375  20.542  0.00  0.00    +0.000 C 
ENDBRANCH  22  27
ENDBRANCH  21  23
ENDBRANCH  20  21
ENDBRANCH   1  20
TORSDOF 6
ENDMDL
MODEL 7
REMARK VINA RESULT:      -7.3      4.211      8.863
REMARK  Name = 
REMARK  8 active torsions:
REMARK  status: ('A' for Active; 'I' for Inactive)
REMARK    1  A    between atoms: C_1  and  C_2
REMARK    2  A    between atoms: C_2  and  N_3
REMARK    3  A    between atoms: N_3  and  C_4
REMARK    4  A    between atoms: C_4  and  C_5
REMARK    5  A    between atoms: C_6  and  C_8
REMARK    6  A    between atoms: C_8  and  C_9
REMARK    7  A    between atoms: C_9  and  C_10
REMARK    8  A    between atoms: C_10  and  C_11
REMARK                            x       y       z     vdW  Elec       q    Type
REMARK                         _______ _______ _______ _____ _____    ______ ____
ROOT
ATOM      1  C   UNL     1       0.125  10.336  18.900  0.00  0.00    +0.000 C 
ATOM      2  C   UNL     1       1.023  11.611  19.003  0.00  0.00    +0.000 A 
ATOM      3  C   UNL     1       1.429  12.506  18.018  0.00  0.00    +0.000 A 
ATOM      4  C   UNL     1       2.218  13.598  18.392  0.00  0.00    +0.000 A 
ATOM      5  C   UNL     1       2.561  13.817  19.737  0.00  0.00    +0.000 A 
ATOM      6  C   UNL     1       2.131  12.941  20.735  0.00  0.00    +0.000 A 
ATOM      7  C   UNL     1       1.377  11.852  20.351  0.00  0.00    +0.000 A 
ATOM      8  C   UNL     1       0.796  10.812  21.138  0.00  0.00    +0.000 A 
ATOM      9  N   UNL     1       0.760  10.440  22.390  0.00  0.00    +0.000 NA
ATOM     10  C   UNL     1       0.017   9.272  22.365  0.00  0.00    +0.000 A 
ATOM     11  C   UNL     1      -0.398   8.949  21.083  0.00  0.00    +0.000 A 
ATOM     12  N   UNL     1       0.087   9.964  20.335  0.00  0.00    +0.000 N 
ENDROOT
BRANCH   1  13
ATOM     13  C   UNL     1      -1.320  10.650  18.442  0.00  0.00    +0.000 A 
ATOM     14  C   UNL     1      -2.106  11.624  19.089  0.00  0.00    +0.000 A 
ATOM     15  C   UNL     1      -3.414  11.899  18.672  0.00  0.00    +0.000 A 
ATOM     16  C   UNL     1      -3.958  11.222  17.585  0.00  0.00    +0.000 A 
ATOM     17 CL   UNL     1      -5.569  11.552  17.084  0.00  0.00    +0.000 Cl
ATOM     18  C   UNL     1      -3.197  10.283  16.904  0.00  0.00    +0.000 A 
ATOM     19  C   UNL     1      -1.890  10.007  17.321  0.00  0.00    +0.000 A 
ENDBRANCH   1  13
BRANCH   1  20
ATOM     20  C   UNL     1       0.858   9.212  18.101  0.00  0.00    +0.000 C 
BRANCH  20  21
ATOM     21  C   UNL     1       2.247   8.876  18.650  0.00  0.00    +0.000 C 
BRANCH  21  23
ATOM     22  N   UNL     1       3.298   6.676  18.254  0.00  0.00    +0.000 N 
ATOM     23  C   UNL     1       2.456   7.435  19.087  0.00  0.00    +0.000 C 
ATOM     24  O   UNL     1       1.921   6.986  20.098  0.00  0.00    +0.000 OA
BRANCH  22  26
ATOM     25  C   UNL     1       2.533   4.324  17.944  0.00  0.00    +0.000 C 
ATOM     26  C   UNL     1       3.520   5.272  18.613  0.00  0.00    +0.000 C 
ENDBRANCH  22  26
BRANCH  22  27
ATOM     27  C   UNL     1       3.898   7.251  17.038  0.00  0.00    +0.000 C 
ATOM     28  C   UNL     1       5.065   6.539  16.380  0.00  0.00    +0.000 C 
ENDBRANCH  22  27
ENDBRANCH  21  23
ENDBRANCH  20  21
ENDBRANCH   1  20
TORSDOF 6
ENDMDL
MODEL 8
REMARK VINA RESULT:      -7.2      6.529      9.141
REMARK  Name = 
REMARK  8 active torsions:
REMARK  status: ('A' for Active; 'I' for Inactive)
REMARK    1  A    between atoms: C_1  and  C_2
REMARK    2  A    between atoms: C_2  and  N_3
REMARK    3  A    between atoms: N_3  and  C_4
REMARK    4  A    between atoms: C_4  and  C_5
REMARK    5  A    between atoms: C_6  and  C_8
REMARK    6  A    between atoms: C_8  and  C_9
REMARK    7  A    between atoms: C_9  and  C_10
REMARK    8  A    between atoms: C_10  and  C_11
REMARK                            x       y       z     vdW  Elec       q    Type
REMARK                         _______ _______ _______ _____ _____    ______ ____
ROOT
ATOM      1  C   UNL     1       0.362  11.986  19.691  0.00  0.00    +0.000 C 
ATOM      2  C   UNL     1       0.791  10.494  19.867  0.00  0.00    +0.000 A 
ATOM      3  C   UNL     1       1.461   9.644  18.993  0.00  0.00    +0.000 A 
ATOM      4  C   UNL     1       1.753   8.344  19.418  0.00  0.00    +0.000 A 
ATOM      5  C   UNL     1       1.418   7.913  20.713  0.00  0.00    +0.000 A 
ATOM      6  C   UNL     1       0.774   8.772  21.607  0.00  0.00    +0.000 A 
ATOM      7  C   UNL     1       0.466  10.041  21.166  0.00  0.00    +0.000 A 
ATOM      8  C   UNL     1      -0.168  11.123  21.850  0.00  0.00    +0.000 A 
ATOM      9  N   UNL     1      -0.713  11.356  23.014  0.00  0.00    +0.000 NA
ATOM     10  C   UNL     1      -1.169  12.659  22.909  0.00  0.00    +0.000 A 
ATOM     11  C   UNL     1      -0.887  13.209  21.669  0.00  0.00    +0.000 A 
ATOM     12  N   UNL     1      -0.223  12.218  21.034  0.00  0.00    +0.000 N 
ENDROOT
BRANCH   1  13
ATOM     13  C   UNL     1       1.566  12.945  19.515  0.00  0.00    +0.000 A 
ATOM     14  C   UNL     1       1.901  13.488  18.259  0.00  0.00    +0.000 A 
ATOM     15  C   UNL     1       2.993  14.351  18.107  0.00  0.00    +0.000 A 
ATOM     16  C   UNL     1       3.763  14.705  19.210  0.00  0.00    +0.000 A 
ATOM     17 CL   UNL     1       5.112  15.753  19.018  0.00  0.00    +0.000 Cl
ATOM     18  C   UNL     1       3.437  14.215  20.467  0.00  0.00    +0.000 A 
ATOM     19  C   UNL     1       2.346  13.353  20.619  0.00  0.00    +0.000 A 
ENDBRANCH   1  13
BRANCH   1  20
ATOM     20  C   UNL     1      -0.764  12.111  18.616  0.00  0.00    +0.000 C 
BRANCH  20  21
ATOM     21  C   UNL     1      -1.904  11.107  18.803  0.00  0.00    +0.000 C 
BRANCH  21  23
ATOM     22  N   UNL     1      -4.105  11.253  17.690  0.00  0.00    +0.000 N 
ATOM     23  C   UNL     1      -3.309  11.685  18.767  0.00  0.00    +0.000 C 
ATOM     24  O   UNL     1      -3.703  12.470  19.628  0.00  0.00    +0.000 OA
BRANCH  22  26
ATOM     25  C   UNL     1      -6.502  10.922  18.285  0.00  0.00    +0.000 C 
ATOM     26  C   UNL     1      -5.463  11.794  17.592  0.00  0.00    +0.000 C 
ENDBRANCH  22  26
BRANCH  22  27
ATOM     27  C   UNL     1      -3.580  10.329  16.670  0.00  0.00    +0.000 C 
ATOM     28  C   UNL     1      -3.144  10.882  15.325  0.00  0.00    +0.000 C 
ENDBRANCH  22  27
ENDBRANCH  21  23
ENDBRANCH  20  21
ENDBRANCH   1  20
TORSDOF 6
ENDMDL
MODEL 9
REMARK VINA RESULT:      -7.1      5.415      8.297
REMARK  Name = 
REMARK  8 active torsions:
REMARK  status: ('A' for Active; 'I' for Inactive)
REMARK    1  A    between atoms: C_1  and  C_2
REMARK    2  A    between atoms: C_2  and  N_3
REMARK    3  A    between atoms: N_3  and  C_4
REMARK    4  A    between atoms: C_4  and  C_5
REMARK    5  A    between atoms: C_6  and  C_8
REMARK    6  A    between atoms: C_8  and  C_9
REMARK    7  A    between atoms: C_9  and  C_10
REMARK    8  A    between atoms: C_10  and  C_11
REMARK                            x       y       z     vdW  Elec       q    Type
REMARK                         _______ _______ _______ _____ _____    ______ ____
ROOT
ATOM      1  C   UNL     1       0.413  10.436  19.561  0.00  0.00    +0.000 C 
ATOM      2  C   UNL     1       1.215   9.108  19.375  0.00  0.00    +0.000 A 
ATOM      3  C   UNL     1       1.920   8.633  18.274  0.00  0.00    +0.000 A 
ATOM      4  C   UNL     1       2.586   7.407  18.385  0.00  0.00    +0.000 A 
ATOM      5  C   UNL     1       2.582   6.689  19.592  0.00  0.00    +0.000 A 
ATOM      6  C   UNL     1       1.903   7.176  20.711  0.00  0.00    +0.000 A 
ATOM      7  C   UNL     1       1.227   8.371  20.580  0.00  0.00    +0.000 A 
ATOM      8  C   UNL     1       0.469   9.108  21.541  0.00  0.00    +0.000 A 
ATOM      9  N   UNL     1       0.081   8.983  22.782  0.00  0.00    +0.000 NA
ATOM     10  C   UNL     1      -0.689  10.113  23.001  0.00  0.00    +0.000 A 
ATOM     11  C   UNL     1      -0.755  10.921  21.878  0.00  0.00    +0.000 A 
ATOM     12  N   UNL     1       0.017  10.269  20.981  0.00  0.00    +0.000 N 
ENDROOT
BRANCH   1  13
ATOM     13  C   UNL     1       1.301  11.700  19.451  0.00  0.00    +0.000 A 
ATOM     14  C   UNL     1       1.494  12.566  20.546  0.00  0.00    +0.000 A 
ATOM     15  C   UNL     1       2.295  13.709  20.438  0.00  0.00    +0.000 A 
ATOM     16  C   UNL     1       2.939  14.001  19.239  0.00  0.00    +0.000 A 
ATOM     17 CL   UNL     1       3.911  15.413  19.106  0.00  0.00    +0.000 Cl
ATOM     18  C   UNL     1       2.798  13.149  18.153  0.00  0.00    +0.000 A 
ATOM     19  C   UNL     1       1.997  12.007  18.261  0.00  0.00    +0.000 A 
ENDBRANCH   1  13
BRANCH   1  20
ATOM     20  C   UNL     1      -0.869  10.433  18.670  0.00  0.00    +0.000 C 
BRANCH  20  21
ATOM     21  C   UNL     1      -1.439  11.830  18.409  0.00  0.00    +0.000 C 
BRANCH  21  23
ATOM     22  N   UNL     1      -3.717  11.676  17.468  0.00  0.00    +0.000 N 
ATOM     23  C   UNL     1      -2.939  11.980  18.600  0.00  0.00    +0.000 C 
ATOM     24  O   UNL     1      -3.419  12.339  19.674  0.00  0.00    +0.000 OA
BRANCH  22  26
ATOM     25  C   UNL     1      -5.837  10.628  18.257  0.00  0.00    +0.000 C 
ATOM     26  C   UNL     1      -5.171  11.822  17.586  0.00  0.00    +0.000 C 
ENDBRANCH  22  26
BRANCH  22  27
ATOM     27  C   UNL     1      -3.096  11.272  16.195  0.00  0.00    +0.000 C 
ATOM     28  C   UNL     1      -3.094   9.805  15.804  0.00  0.00    +0.000 C 
ENDBRANCH  22  27
ENDBRANCH  21  23
ENDBRANCH  20  21
ENDBRANCH   1  20
TORSDOF 6
ENDMDL
