MODEL 1
REMARK VINA RESULT:      -8.5      0.000      0.000
REMARK  Name = 
REMARK  2 active torsions:
REMARK  status: ('A' for Active; 'I' for Inactive)
REMARK    1  A    between atoms: N_10  and  C_11
REMARK    2  A    between atoms: C_11  and  C_12
REMARK                            x       y       z     vdW  Elec       q    Type
REMARK                         _______ _______ _______ _____ _____    ______ ____
ROOT
ATOM      1  O   UNL     1       1.096  12.038  18.628  0.00  0.00    +0.000 OA
ATOM      2  C   UNL     1       1.402  10.861  18.693  0.00  0.00    +0.000 A 
ATOM      3  C   UNL     1       2.183  10.136  17.638  0.00  0.00    +0.000 A 
ATOM      4  C   UNL     1       2.516   8.830  17.717  0.00  0.00    +0.000 A 
ATOM      5  C   UNL     1       2.118   8.027  18.874  0.00  0.00    +0.000 A 
ATOM      6  C   UNL     1       1.396   8.721  19.831  0.00  0.00    +0.000 A 
ATOM      7  C   UNL     1       0.908   8.161  20.989  0.00  0.00    +0.000 A 
ATOM      8  C   UNL     1       1.176   6.806  21.207  0.00  0.00    +0.000 A 
ATOM      9  C   UNL     1       1.891   6.116  20.229  0.00  0.00    +0.000 A 
ATOM     10  N   UNL     1       2.345   6.714  19.095  0.00  0.00    +0.000 N 
ATOM     11  C   UNL     1       0.216   9.193  21.688  0.00  0.00    +0.000 A 
ATOM     12  C   UNL     1      -0.490   9.231  22.909  0.00  0.00    +0.000 A 
ATOM     13  C   UNL     1      -1.058  10.433  23.340  0.00  0.00    +0.000 A 
ATOM     14  C   UNL     1      -0.937  11.587  22.575  0.00  0.00    +0.000 A 
ATOM     15  C   UNL     1      -0.255  11.575  21.356  0.00  0.00    +0.000 A 
ATOM     16  C   UNL     1       0.318  10.367  20.927  0.00  0.00    +0.000 A 
ATOM     17  N   UNL     1       1.038  10.055  19.783  0.00  0.00    +0.000 N 
ENDROOT
BRANCH  10  18
ATOM     18  C   UNL     1       3.001   5.854  18.073  0.00  0.00    +0.000 C 
BRANCH  18  19
ATOM     19  C   UNL     1       4.504   5.836  18.147  0.00  0.00    +0.000 A 
ATOM     20  C   UNL     1       5.171   5.295  19.260  0.00  0.00    +0.000 A 
ATOM     21  C   UNL     1       6.558   5.441  19.387  0.00  0.00    +0.000 A 
ATOM     22  C   UNL     1       7.279   6.117  18.410  0.00  0.00    +0.000 A 
ATOM     23  F   UNL     1       8.596   6.296  18.567  0.00  0.00    +0.000 F 
ATOM     24  C   UNL     1       6.649   6.632  17.289  0.00  0.00    +0.000 A 
ATOM     25  C   UNL     1       5.271   6.488  17.171  0.00  0.00    +0.000 A 
ATOM     26  F   UNL     1       4.661   7.032  16.111  0.00  0.00    +0.000 F 
ENDBRANCH  18  19
ENDBRANCH  10  18
TORSDOF 2
ENDMDL
MODEL 2
REMARK VINA RESULT:      -8.4      2.155      2.623
REMARK  Name = 
REMARK  2 active torsions:
REMARK  status: ('A' for Active; 'I' for Inactive)
REMARK    1  A    between atoms: N_10  and  C_11
REMARK    2  A    between atoms: C_11  and  C_12
REMARK                            x       y       z     vdW  Elec       q    Type
REMARK                         _______ _______ _______ _____ _____    ______ ____
ROOT
ATOM      1  O   UNL     1       0.882  12.296  18.720  0.00  0.00    +0.000 OA
ATOM      2  C   UNL     1       1.246  11.135  18.751  0.00  0.00    +0.000 A 
ATOM      3  C   UNL     1       2.052  10.477  17.670  0.00  0.00    +0.000 A 
ATOM      4  C   UNL     1       2.449   9.188  17.712  0.00  0.00    +0.000 A 
ATOM      5  C   UNL     1       2.104   8.337  18.851  0.00  0.00    +0.000 A 
ATOM      6  C   UNL     1       1.358   8.968  19.832  0.00  0.00    +0.000 A 
ATOM      7  C   UNL     1       0.909   8.355  20.979  0.00  0.00    +0.000 A 
ATOM      8  C   UNL     1       1.246   7.010  21.159  0.00  0.00    +0.000 A 
ATOM      9  C   UNL     1       1.985   6.382  20.156  0.00  0.00    +0.000 A 
ATOM     10  N   UNL     1       2.397   7.031  19.035  0.00  0.00    +0.000 N 
ATOM     11  C   UNL     1       0.174   9.333  21.711  0.00  0.00    +0.000 A 
ATOM     12  C   UNL     1      -0.521   9.303  22.939  0.00  0.00    +0.000 A 
ATOM     13  C   UNL     1      -1.143  10.464  23.407  0.00  0.00    +0.000 A 
ATOM     14  C   UNL     1      -1.087  11.643  22.671  0.00  0.00    +0.000 A 
ATOM     15  C   UNL     1      -0.417  11.696  21.446  0.00  0.00    +0.000 A 
ATOM     16  C   UNL     1       0.210  10.529  20.980  0.00  0.00    +0.000 A 
ATOM     17  N   UNL     1       0.934  10.284  19.822  0.00  0.00    +0.000 N 
ENDROOT
BRANCH  10  18
ATOM     18  C   UNL     1       3.085   6.231  17.985  0.00  0.00    +0.000 C 
BRANCH  18  19
ATOM     19  C   UNL     1       3.185   4.761  18.287  0.00  0.00    +0.000 A 
ATOM     20  C   UNL     1       4.326   4.221  18.906  0.00  0.00    +0.000 A 
ATOM     21  C   UNL     1       4.472   2.834  19.024  0.00  0.00    +0.000 A 
ATOM     22  C   UNL     1       3.486   1.986  18.531  0.00  0.00    +0.000 A 
ATOM     23  F   UNL     1       3.660   0.661  18.602  0.00  0.00    +0.000 F 
ATOM     24  C   UNL     1       2.338   2.494  17.944  0.00  0.00    +0.000 A 
ATOM     25  C   UNL     1       2.202   3.873  17.827  0.00  0.00    +0.000 A 
ATOM     26  F   UNL     1       1.115   4.356  17.214  0.00  0.00    +0.000 F 
ENDBRANCH  18  19
ENDBRANCH  10  18
TORSDOF 2
ENDMDL
MODEL 3
REMARK VINA RESULT:      -8.4      2.555      4.375
REMARK  Name = 
REMARK  2 active torsions:
REMARK  status: ('A' for Active; 'I' for Inactive)
REMARK    1  A    between atoms: N_10  and  C_11
REMARK    2  A    between atoms: C_11  and  C_12
REMARK                            x       y       z     vdW  Elec       q    Type
REMARK                         _______ _______ _______ _____ _____    ______ ____
ROOT
ATOM      1  O   UNL     1      -0.579  10.983  23.128  0.00  0.00    +0.000 OA
ATOM      2  C   UNL     1       0.025  10.273  22.345  0.00  0.00    +0.000 A 
ATOM      3  C   UNL     1       0.615   8.941  22.702  0.00  0.00    +0.000 A 
ATOM      4  C   UNL     1       1.286   8.161  21.828  0.00  0.00    +0.000 A 
ATOM      5  C   UNL     1       1.479   8.588  20.441  0.00  0.00    +0.000 A 
ATOM      6  C   UNL     1       0.926   9.822  20.140  0.00  0.00    +0.000 A 
ATOM      7  C   UNL     1       1.003  10.425  18.906  0.00  0.00    +0.000 A 
ATOM      8  C   UNL     1       1.673   9.729  17.895  0.00  0.00    +0.000 A 
ATOM      9  C   UNL     1       2.237   8.495  18.215  0.00  0.00    +0.000 A 
ATOM     10  N   UNL     1       2.142   7.946  19.455  0.00  0.00    +0.000 N 
ATOM     11  C   UNL     1       0.330  11.677  19.015  0.00  0.00    +0.000 A 
ATOM     12  C   UNL     1       0.086  12.727  18.104  0.00  0.00    +0.000 A 
ATOM     13  C   UNL     1      -0.638  13.848  18.522  0.00  0.00    +0.000 A 
ATOM     14  C   UNL     1      -1.113  13.937  19.826  0.00  0.00    +0.000 A 
ATOM     15  C   UNL     1      -0.874  12.917  20.751  0.00  0.00    +0.000 A 
ATOM     16  C   UNL     1      -0.150  11.792  20.327  0.00  0.00    +0.000 A 
ATOM     17  N   UNL     1       0.235  10.646  21.009  0.00  0.00    +0.000 N 
ENDROOT
BRANCH  10  18
ATOM     18  C   UNL     1       2.876   6.676  19.709  0.00  0.00    +0.000 C 
BRANCH  18  19
ATOM     19  C   UNL     1       2.090   5.430  19.400  0.00  0.00    +0.000 A 
ATOM     20  C   UNL     1       1.313   4.797  20.385  0.00  0.00    +0.000 A 
ATOM     21  C   UNL     1       0.728   3.551  20.127  0.00  0.00    +0.000 A 
ATOM     22  C   UNL     1       0.912   2.940  18.892  0.00  0.00    +0.000 A 
ATOM     23  F   UNL     1       0.393   1.726  18.673  0.00  0.00    +0.000 F 
ATOM     24  C   UNL     1       1.648   3.557  17.894  0.00  0.00    +0.000 A 
ATOM     25  C   UNL     1       2.229   4.792  18.159  0.00  0.00    +0.000 A 
ATOM     26  F   UNL     1       2.981   5.361  17.208  0.00  0.00    +0.000 F 
ENDBRANCH  18  19
ENDBRANCH  10  18
TORSDOF 2
ENDMDL
MODEL 4
REMARK VINA RESULT:      -8.4      3.639      7.190
REMARK  Name = 
REMARK  2 active torsions:
REMARK  status: ('A' for Active; 'I' for Inactive)
REMARK    1  A    between atoms: N_10  and  C_11
REMARK    2  A    between atoms: C_11  and  C_12
REMARK                            x       y       z     vdW  Elec       q    Type
REMARK                         _______ _______ _______ _____ _____    ______ ____
ROOT
ATOM      1  O   UNL     1       4.687   5.219  17.121  0.00  0.00    +0.000 OA
ATOM      2  C   UNL     1       3.951   6.033  17.648  0.00  0.00    +0.000 A 
ATOM      3  C   UNL     1       3.724   7.421  17.127  0.00  0.00    +0.000 A 
ATOM      4  C   UNL     1       2.908   8.319  17.719  0.00  0.00    +0.000 A 
ATOM      5  C   UNL     1       2.179   7.974  18.940  0.00  0.00    +0.000 A 
ATOM      6  C   UNL     1       2.410   6.688  19.400  0.00  0.00    +0.000 A 
ATOM      7  C   UNL     1       1.844   6.159  20.538  0.00  0.00    +0.000 A 
ATOM      8  C   UNL     1       0.972   6.980  21.259  0.00  0.00    +0.000 A 
ATOM      9  C   UNL     1       0.760   8.277  20.793  0.00  0.00    +0.000 A 
ATOM     10  N   UNL     1       1.351   8.756  19.666  0.00  0.00    +0.000 N 
ATOM     11  C   UNL     1       2.344   4.831  20.669  0.00  0.00    +0.000 A 
ATOM     12  C   UNL     1       2.139   3.809  21.621  0.00  0.00    +0.000 A 
ATOM     13  C   UNL     1       2.779   2.577  21.458  0.00  0.00    +0.000 A 
ATOM     14  C   UNL     1       3.617   2.353  20.371  0.00  0.00    +0.000 A 
ATOM     15  C   UNL     1       3.847   3.352  19.421  0.00  0.00    +0.000 A 
ATOM     16  C   UNL     1       3.201   4.587  19.586  0.00  0.00    +0.000 A 
ATOM     17  N   UNL     1       3.237   5.745  18.821  0.00  0.00    +0.000 N 
ENDROOT
BRANCH  10  18
ATOM     18  C   UNL     1       1.135  10.189  19.326  0.00  0.00    +0.000 C 
BRANCH  18  19
ATOM     19  C   UNL     1      -0.279  10.532  18.943  0.00  0.00    +0.000 A 
ATOM     20  C   UNL     1      -0.866  10.006  17.780  0.00  0.00    +0.000 A 
ATOM     21  C   UNL     1      -2.117  10.469  17.353  0.00  0.00    +0.000 A 
ATOM     22  C   UNL     1      -2.782  11.448  18.081  0.00  0.00    +0.000 A 
ATOM     23  F   UNL     1      -3.952  11.921  17.636  0.00  0.00    +0.000 F 
ATOM     24  C   UNL     1      -2.238  11.960  19.248  0.00  0.00    +0.000 A 
ATOM     25  C   UNL     1      -0.994  11.499  19.664  0.00  0.00    +0.000 A 
ATOM     26  F   UNL     1      -0.451  12.034  20.765  0.00  0.00    +0.000 F 
ENDBRANCH  18  19
ENDBRANCH  10  18
TORSDOF 2
ENDMDL
MODEL 5
REMARK VINA RESULT:      -8.2      3.377      7.021
REMARK  Name = 
REMARK  2 active torsions:
REMARK  status: ('A' for Active; 'I' for Inactive)
REMARK    1  A    between atoms: N_10  and  C_11
REMARK    2  A    between atoms: C_11  and  C_12
REMARK                            x       y       z     vdW  Elec       q    Type
REMARK                         _______ _______ _______ _____ _____    ______ ____
ROOT
ATOM      1  O   UNL     1       4.583   5.171  17.049  0.00  0.00    +0.000 OA
ATOM      2  C   UNL     1       3.890   6.023  17.575  0.00  0.00    +0.000 A 
ATOM      3  C   UNL     1       3.726   7.417  17.047  0.00  0.00    +0.000 A 
ATOM      4  C   UNL     1       2.957   8.356  17.638  0.00  0.00    +0.000 A 
ATOM      5  C   UNL     1       2.222   8.054  18.866  0.00  0.00    +0.000 A 
ATOM      6  C   UNL     1       2.394   6.761  19.333  0.00  0.00    +0.000 A 
ATOM      7  C   UNL     1       1.812   6.267  20.478  0.00  0.00    +0.000 A 
ATOM      8  C   UNL     1       0.985   7.133  21.200  0.00  0.00    +0.000 A 
ATOM      9  C   UNL     1       0.832   8.436  20.727  0.00  0.00    +0.000 A 
ATOM     10  N   UNL     1       1.437   8.879  19.593  0.00  0.00    +0.000 N 
ATOM     11  C   UNL     1       2.249   4.917  20.615  0.00  0.00    +0.000 A 
ATOM     12  C   UNL     1       2.002   3.912  21.574  0.00  0.00    +0.000 A 
ATOM     13  C   UNL     1       2.582   2.650  21.415  0.00  0.00    +0.000 A 
ATOM     14  C   UNL     1       3.400   2.380  20.323  0.00  0.00    +0.000 A 
ATOM     15  C   UNL     1       3.671   3.361  19.366  0.00  0.00    +0.000 A 
ATOM     16  C   UNL     1       3.085   4.627  19.527  0.00  0.00    +0.000 A 
ATOM     17  N   UNL     1       3.172   5.776  18.755  0.00  0.00    +0.000 N 
ENDROOT
BRANCH  10  18
ATOM     18  C   UNL     1       1.287  10.319  19.245  0.00  0.00    +0.000 C 
BRANCH  18  19
ATOM     19  C   UNL     1      -0.125  10.743  18.945  0.00  0.00    +0.000 A 
ATOM     20  C   UNL     1      -0.805  11.647  19.779  0.00  0.00    +0.000 A 
ATOM     21  C   UNL     1      -2.169  11.897  19.580  0.00  0.00    +0.000 A 
ATOM     22  C   UNL     1      -2.851  11.254  18.553  0.00  0.00    +0.000 A 
ATOM     23  F   UNL     1      -4.165  11.461  18.404  0.00  0.00    +0.000 F 
ATOM     24  C   UNL     1      -2.195  10.383  17.698  0.00  0.00    +0.000 A 
ATOM     25  C   UNL     1      -0.843  10.137  17.905  0.00  0.00    +0.000 A 
ATOM     26  F   UNL     1      -0.227   9.255  17.107  0.00  0.00    +0.000 F 
ENDBRANCH  18  19
ENDBRANCH  10  18
TORSDOF 2
ENDMDL
MODEL 6
REMARK VINA RESULT:      -8.1      3.544      7.677
REMARK  Name = 
REMARK  2 active torsions:
REMARK  status: ('A' for Active; 'I' for Inactive)
REMARK    1  A    between atoms: N_10  and  C_11
REMARK    2  A    between atoms: C_11  and  C_12
REMARK                            x       y       z     vdW  Elec       q    Type
REMARK                         _______ _______ _______ _____ _____    ______ ____
ROOT
ATOM      1  O   UNL     1       3.567   3.165  19.808  0.00  0.00    +0.000 OA
ATOM      2  C   UNL     1       3.116   4.296  19.813  0.00  0.00    +0.000 A 
ATOM      3  C   UNL     1       2.165   4.816  20.850  0.00  0.00    +0.000 A 
ATOM      4  C   UNL     1       1.668   6.071  20.846  0.00  0.00    +0.000 A 
ATOM      5  C   UNL     1       2.040   7.019  19.796  0.00  0.00    +0.000 A 
ATOM      6  C   UNL     1       2.916   6.511  18.851  0.00  0.00    +0.000 A 
ATOM      7  C   UNL     1       3.385   7.221  17.769  0.00  0.00    +0.000 A 
ATOM      8  C   UNL     1       2.950   8.542  17.634  0.00  0.00    +0.000 A 
ATOM      9  C   UNL     1       2.057   9.036  18.584  0.00  0.00    +0.000 A 
ATOM     10  N   UNL     1       1.616   8.291  19.632  0.00  0.00    +0.000 N 
ATOM     11  C   UNL     1       4.239   6.344  17.038  0.00  0.00    +0.000 A 
ATOM     12  C   UNL     1       4.993   6.491  15.854  0.00  0.00    +0.000 A 
ATOM     13  C   UNL     1       5.764   5.421  15.391  0.00  0.00    +0.000 A 
ATOM     14  C   UNL     1       5.791   4.215  16.084  0.00  0.00    +0.000 A 
ATOM     15  C   UNL     1       5.044   4.039  17.252  0.00  0.00    +0.000 A 
ATOM     16  C   UNL     1       4.273   5.117  17.716  0.00  0.00    +0.000 A 
ATOM     17  N   UNL     1       3.445   5.234  18.823  0.00  0.00    +0.000 N 
ENDROOT
BRANCH  10  18
ATOM     18  C   UNL     1       0.582   8.888  20.521  0.00  0.00    +0.000 C 
BRANCH  18  19
ATOM     19  C   UNL     1       0.260  10.327  20.223  0.00  0.00    +0.000 A 
ATOM     20  C   UNL     1       0.932  11.373  20.877  0.00  0.00    +0.000 A 
ATOM     21  C   UNL     1       0.503  12.696  20.714  0.00  0.00    +0.000 A 
ATOM     22  C   UNL     1      -0.588  12.978  19.899  0.00  0.00    +0.000 A 
ATOM     23  F   UNL     1      -1.022  14.239  19.790  0.00  0.00    +0.000 F 
ATOM     24  C   UNL     1      -1.248  11.967  19.219  0.00  0.00    +0.000 A 
ATOM     25  C   UNL     1      -0.819  10.656  19.389  0.00  0.00    +0.000 A 
ATOM     26  F   UNL     1      -1.492   9.679  18.769  0.00  0.00    +0.000 F 
ENDBRANCH  18  19
ENDBRANCH  10  18
TORSDOF 2
ENDMDL
MODEL 7
REMARK VINA RESULT:      -8.1      3.412      7.660
REMARK  Name = 
REMARK  2 active torsions:
REMARK  status: ('A' for Active; 'I' for Inactive)
REMARK    1  A    between atoms: N_10  and  C_11
REMARK    2  A    between atoms: C_11  and  C_12
REMARK                            x       y       z     vdW  Elec       q    Type
REMARK                         _______ _______ _______ _____ _____    ______ ____
ROOT
ATOM      1  O   UNL     1       3.608   3.083  19.858  0.00  0.00    +0.000 OA
ATOM      2  C   UNL     1       3.167   4.218  19.833  0.00  0.00    +0.000 A 
ATOM      3  C   UNL     1       2.210   4.770  20.847  0.00  0.00    +0.000 A 
ATOM      4  C   UNL     1       1.725   6.029  20.811  0.00  0.00    +0.000 A 
ATOM      5  C   UNL     1       2.118   6.951  19.744  0.00  0.00    +0.000 A 
ATOM      6  C   UNL     1       2.999   6.414  18.820  0.00  0.00    +0.000 A 
ATOM      7  C   UNL     1       3.487   7.095  17.728  0.00  0.00    +0.000 A 
ATOM      8  C   UNL     1       3.066   8.417  17.560  0.00  0.00    +0.000 A 
ATOM      9  C   UNL     1       2.168   8.940  18.489  0.00  0.00    +0.000 A 
ATOM     10  N   UNL     1       1.708   8.223  19.548  0.00  0.00    +0.000 N 
ATOM     11  C   UNL     1       4.341   6.194  17.027  0.00  0.00    +0.000 A 
ATOM     12  C   UNL     1       5.109   6.308  15.849  0.00  0.00    +0.000 A 
ATOM     13  C   UNL     1       5.875   5.221  15.417  0.00  0.00    +0.000 A 
ATOM     14  C   UNL     1       5.882   4.031  16.137  0.00  0.00    +0.000 A 
ATOM     15  C   UNL     1       5.121   3.887  17.300  0.00  0.00    +0.000 A 
ATOM     16  C   UNL     1       4.355   4.982  17.732  0.00  0.00    +0.000 A 
ATOM     17  N   UNL     1       3.516   5.132  18.827  0.00  0.00    +0.000 N 
ENDROOT
BRANCH  10  18
ATOM     18  C   UNL     1       0.670   8.848  20.411  0.00  0.00    +0.000 C 
BRANCH  18  19
ATOM     19  C   UNL     1       0.143  10.162  19.900  0.00  0.00    +0.000 A 
ATOM     20  C   UNL     1      -0.829  10.211  18.887  0.00  0.00    +0.000 A 
ATOM     21  C   UNL     1      -1.181  11.437  18.308  0.00  0.00    +0.000 A 
ATOM     22  C   UNL     1      -0.570  12.609  18.738  0.00  0.00    +0.000 A 
ATOM     23  F   UNL     1      -0.875  13.769  18.143  0.00  0.00    +0.000 F 
ATOM     24  C   UNL     1       0.369  12.591  19.757  0.00  0.00    +0.000 A 
ATOM     25  C   UNL     1       0.715  11.370  20.324  0.00  0.00    +0.000 A 
ATOM     26  F   UNL     1       1.660  11.353  21.273  0.00  0.00    +0.000 F 
ENDBRANCH  18  19
ENDBRANCH  10  18
TORSDOF 2
ENDMDL
MODEL 8
REMARK VINA RESULT:      -8.1      3.397      5.299
REMARK  Name = 
REMARK  2 active torsions:
REMARK  status: ('A' for Active; 'I' for Inactive)
REMARK    1  A    between atoms: N_10  and  C_11
REMARK    2  A    between atoms: C_11  and  C_12
REMARK                            x       y       z     vdW  Elec       q    Type
REMARK                         _______ _______ _______ _____ _____    ______ ____
ROOT
ATOM      1  O   UNL     1       1.871   3.879  21.513  0.00  0.00    +0.000 OA
ATOM      2  C   UNL     1       2.534   4.018  20.501  0.00  0.00    +0.000 A 
ATOM      3  C   UNL     1       3.357   2.929  19.880  0.00  0.00    +0.000 A 
ATOM      4  C   UNL     1       4.091   3.092  18.759  0.00  0.00    +0.000 A 
ATOM      5  C   UNL     1       4.125   4.382  18.070  0.00  0.00    +0.000 A 
ATOM      6  C   UNL     1       3.359   5.370  18.666  0.00  0.00    +0.000 A 
ATOM      7  C   UNL     1       3.258   6.661  18.199  0.00  0.00    +0.000 A 
ATOM      8  C   UNL     1       3.970   6.978  17.038  0.00  0.00    +0.000 A 
ATOM      9  C   UNL     1       4.748   5.978  16.456  0.00  0.00    +0.000 A 
ATOM     10  N   UNL     1       4.823   4.719  16.963  0.00  0.00    +0.000 N 
ATOM     11  C   UNL     1       2.396   7.358  19.095  0.00  0.00    +0.000 A 
ATOM     12  C   UNL     1       1.926   8.688  19.147  0.00  0.00    +0.000 A 
ATOM     13  C   UNL     1       1.055   9.071  20.171  0.00  0.00    +0.000 A 
ATOM     14  C   UNL     1       0.653   8.156  21.138  0.00  0.00    +0.000 A 
ATOM     15  C   UNL     1       1.114   6.837  21.117  0.00  0.00    +0.000 A 
ATOM     16  C   UNL     1       1.986   6.454  20.085  0.00  0.00    +0.000 A 
ATOM     17  N   UNL     1       2.596   5.239  19.812  0.00  0.00    +0.000 N 
ENDROOT
BRANCH  10  18
ATOM     18  C   UNL     1       5.770   3.767  16.320  0.00  0.00    +0.000 C 
BRANCH  18  19
ATOM     19  C   UNL     1       6.126   4.108  14.898  0.00  0.00    +0.000 A 
ATOM     20  C   UNL     1       5.495   3.468  13.817  0.00  0.00    +0.000 A 
ATOM     21  C   UNL     1       5.958   3.673  12.512  0.00  0.00    +0.000 A 
ATOM     22  C   UNL     1       7.041   4.515  12.282  0.00  0.00    +0.000 A 
ATOM     23  F   UNL     1       7.507   4.664  11.037  0.00  0.00    +0.000 F 
ATOM     24  C   UNL     1       7.659   5.181  13.327  0.00  0.00    +0.000 A 
ATOM     25  C   UNL     1       7.197   4.969  14.621  0.00  0.00    +0.000 A 
ATOM     26  F   UNL     1       7.831   5.576  15.632  0.00  0.00    +0.000 F 
ENDBRANCH  18  19
ENDBRANCH  10  18
TORSDOF 2
ENDMDL
MODEL 9
REMARK VINA RESULT:      -7.9      1.062      1.416
REMARK  Name = 
REMARK  2 active torsions:
REMARK  status: ('A' for Active; 'I' for Inactive)
REMARK    1  A    between atoms: N_10  and  C_11
REMARK    2  A    between atoms: C_11  and  C_12
REMARK                            x       y       z     vdW  Elec       q    Type
REMARK                         _______ _______ _______ _____ _____    ______ ____
ROOT
ATOM      1  O   UNL     1       0.922  12.464  18.620  0.00  0.00    +0.000 OA
ATOM      2  C   UNL     1       1.205  11.283  18.713  0.00  0.00    +0.000 A 
ATOM      3  C   UNL     1       1.957  10.514  17.668  0.00  0.00    +0.000 A 
ATOM      4  C   UNL     1       2.264   9.204  17.779  0.00  0.00    +0.000 A 
ATOM      5  C   UNL     1       1.866   8.441  18.962  0.00  0.00    +0.000 A 
ATOM      6  C   UNL     1       1.172   9.175  19.909  0.00  0.00    +0.000 A 
ATOM      7  C   UNL     1       0.687   8.657  21.089  0.00  0.00    +0.000 A 
ATOM      8  C   UNL     1       0.931   7.303  21.340  0.00  0.00    +0.000 A 
ATOM      9  C   UNL     1       1.619   6.573  20.372  0.00  0.00    +0.000 A 
ATOM     10  N   UNL     1       2.069   7.130  19.217  0.00  0.00    +0.000 N 
ATOM     11  C   UNL     1       0.026   9.722  21.767  0.00  0.00    +0.000 A 
ATOM     12  C   UNL     1      -0.662   9.807  22.997  0.00  0.00    +0.000 A 
ATOM     13  C   UNL     1      -1.201  11.032  23.402  0.00  0.00    +0.000 A 
ATOM     14  C   UNL     1      -1.067  12.162  22.603  0.00  0.00    +0.000 A 
ATOM     15  C   UNL     1      -0.401  12.103  21.376  0.00  0.00    +0.000 A 
ATOM     16  C   UNL     1       0.141  10.872  20.973  0.00  0.00    +0.000 A 
ATOM     17  N   UNL     1       0.840  10.514  19.829  0.00  0.00    +0.000 N 
ENDROOT
BRANCH  10  18
ATOM     18  C   UNL     1       2.695   6.229  18.210  0.00  0.00    +0.000 C 
BRANCH  18  19
ATOM     19  C   UNL     1       4.194   6.142  18.299  0.00  0.00    +0.000 A 
ATOM     20  C   UNL     1       5.018   6.834  17.394  0.00  0.00    +0.000 A 
ATOM     21  C   UNL     1       6.399   6.607  17.386  0.00  0.00    +0.000 A 
ATOM     22  C   UNL     1       6.960   5.698  18.276  0.00  0.00    +0.000 A 
ATOM     23  F   UNL     1       8.274   5.449  18.224  0.00  0.00    +0.000 F 
ATOM     24  C   UNL     1       6.173   5.026  19.198  0.00  0.00    +0.000 A 
ATOM     25  C   UNL     1       4.802   5.254  19.197  0.00  0.00    +0.000 A 
ATOM     26  F   UNL     1       4.041   4.564  20.056  0.00  0.00    +0.000 F 
ENDBRANCH  18  19
ENDBRANCH  10  18
TORSDOF 2
ENDMDL
