MODEL 1
REMARK VINA RESULT:      -6.9      0.000      0.000
REMARK  Name = 
REMARK  4 active torsions:
REMARK  status: ('A' for Active; 'I' for Inactive)
REMARK    1  A    between atoms: C_1  and  C_2
REMARK    2  A    between atoms: C_2  and  C_3
REMARK    3  A    between atoms: C_4  and  C_5
REMARK    4  A    between atoms: C_5  and  O_7
REMARK                            x       y       z     vdW  Elec       q    Type
REMARK                         _______ _______ _______ _____ _____    ______ ____
ROOT
ATOM      1  C   UNL     1       3.310   2.651  20.065  0.00  0.00    +0.000 C 
ATOM      2  C   UNL     1       2.512   3.852  19.508  0.00  0.00    +0.000 C 
ATOM      3  C   UNL     1       1.180   3.874  20.266  0.00  0.00    +0.000 C 
ATOM      4  C   UNL     1       3.339   5.159  19.542  0.00  0.00    +0.000 C 
ATOM      5  N   UNL     1       4.216   5.149  18.348  0.00  0.00    +0.000 N 
ATOM      6  C   UNL     1       5.367   4.400  18.370  0.00  0.00    +0.000 C 
ATOM      7  O   UNL     1       6.166   4.265  19.265  0.00  0.00    +0.000 OA
ATOM      8  C   UNL     1       5.016   3.689  17.039  0.00  0.00    +0.000 C 
ATOM      9 CL   UNL     1       6.150   4.032  15.699  0.00  0.00    +0.000 Cl
ATOM     10  C   UNL     1       3.701   4.475  17.115  0.00  0.00    +0.000 C 
ATOM     11  S   UNL     1       2.235   3.634  17.722  0.00  0.00    +0.000 S 
ATOM     12  O   UNL     1       2.318   2.225  17.394  0.00  0.00    +0.000 OA
ATOM     13  O   UNL     1       1.077   4.414  17.341  0.00  0.00    +0.000 OA
ENDROOT
BRANCH   4  14
ATOM     14  C   UNL     1       2.524   6.465  19.525  0.00  0.00    +0.000 C 
ATOM     15  O   UNL     1       2.238   7.084  18.513  0.00  0.00    +0.000 OA
BRANCH  14  16
ATOM     16  O   UNL     1       2.061   6.838  20.742  0.00  0.00    +0.000 OA
ATOM     17  H   UNL     1       2.511   6.366  21.471  0.00  0.00    +0.000 HD
ENDBRANCH  14  16
ENDBRANCH   4  14
TORSDOF 2
ENDMDL
MODEL 2
REMARK VINA RESULT:      -6.5      2.576      3.733
REMARK  Name = 
REMARK  4 active torsions:
REMARK  status: ('A' for Active; 'I' for Inactive)
REMARK    1  A    between atoms: C_1  and  C_2
REMARK    2  A    between atoms: C_2  and  C_3
REMARK    3  A    between atoms: C_4  and  C_5
REMARK    4  A    between atoms: C_5  and  O_7
REMARK                            x       y       z     vdW  Elec       q    Type
REMARK                         _______ _______ _______ _____ _____    ______ ____
ROOT
ATOM      1  C   UNL     1       3.913   3.609  16.914  0.00  0.00    +0.000 C 
ATOM      2  C   UNL     1       3.463   2.887  18.204  0.00  0.00    +0.000 C 
ATOM      3  C   UNL     1       3.482   1.387  17.889  0.00  0.00    +0.000 C 
ATOM      4  C   UNL     1       4.288   3.337  19.433  0.00  0.00    +0.000 C 
ATOM      5  N   UNL     1       3.701   4.613  19.906  0.00  0.00    +0.000 N 
ATOM      6  C   UNL     1       4.014   5.777  19.248  0.00  0.00    +0.000 C 
ATOM      7  O   UNL     1       5.082   6.141  18.818  0.00  0.00    +0.000 OA
ATOM      8  C   UNL     1       2.524   6.166  19.076  0.00  0.00    +0.000 C 
ATOM      9 CL   UNL     1       2.046   7.657  19.941  0.00  0.00    +0.000 Cl
ATOM     10  C   UNL     1       2.229   4.808  19.725  0.00  0.00    +0.000 C 
ATOM     11  S   UNL     1       1.787   3.429  18.662  0.00  0.00    +0.000 S 
ATOM     12  O   UNL     1       1.107   3.929  17.484  0.00  0.00    +0.000 OA
ATOM     13  O   UNL     1       1.183   2.401  19.483  0.00  0.00    +0.000 OA
ENDROOT
BRANCH   4  14
ATOM     14  C   UNL     1       4.311   2.354  20.618  0.00  0.00    +0.000 C 
ATOM     15  O   UNL     1       5.206   1.550  20.827  0.00  0.00    +0.000 OA
BRANCH  14  16
ATOM     16  O   UNL     1       3.281   2.513  21.483  0.00  0.00    +0.000 OA
ATOM     17  H   UNL     1       3.000   3.447  21.558  0.00  0.00    +0.000 HD
ENDBRANCH  14  16
ENDBRANCH   4  14
TORSDOF 2
ENDMDL
MODEL 3
REMARK VINA RESULT:      -6.4      0.913      1.113
REMARK  Name = 
REMARK  4 active torsions:
REMARK  status: ('A' for Active; 'I' for Inactive)
REMARK    1  A    between atoms: C_1  and  C_2
REMARK    2  A    between atoms: C_2  and  C_3
REMARK    3  A    between atoms: C_4  and  C_5
REMARK    4  A    between atoms: C_5  and  O_7
REMARK                            x       y       z     vdW  Elec       q    Type
REMARK                         _______ _______ _______ _____ _____    ______ ____
ROOT
ATOM      1  C   UNL     1       4.188   2.214  20.067  0.00  0.00    +0.000 C 
ATOM      2  C   UNL     1       2.990   3.157  19.816  0.00  0.00    +0.000 C 
ATOM      3  C   UNL     1       1.857   2.668  20.726  0.00  0.00    +0.000 C 
ATOM      4  C   UNL     1       3.388   4.645  19.962  0.00  0.00    +0.000 C 
ATOM      5  N   UNL     1       4.016   5.054  18.684  0.00  0.00    +0.000 N 
ATOM      6  C   UNL     1       5.323   4.710  18.442  0.00  0.00    +0.000 C 
ATOM      7  O   UNL     1       6.266   4.730  19.198  0.00  0.00    +0.000 OA
ATOM      8  C   UNL     1       4.981   4.086  17.065  0.00  0.00    +0.000 C 
ATOM      9 CL   UNL     1       5.721   4.925  15.670  0.00  0.00    +0.000 Cl
ATOM     10  C   UNL     1       3.525   4.401  17.430  0.00  0.00    +0.000 C 
ATOM     11  S   UNL     1       2.495   3.074  18.067  0.00  0.00    +0.000 S 
ATOM     12  O   UNL     1       2.934   1.813  17.505  0.00  0.00    +0.000 OA
ATOM     13  O   UNL     1       1.112   3.487  17.964  0.00  0.00    +0.000 OA
ENDROOT
BRANCH   4  14
ATOM     14  C   UNL     1       2.234   5.619  20.259  0.00  0.00    +0.000 C 
ATOM     15  O   UNL     1       1.160   5.289  20.736  0.00  0.00    +0.000 OA
BRANCH  14  16
ATOM     16  O   UNL     1       2.539   6.919  20.028  0.00  0.00    +0.000 OA
ATOM     17  H   UNL     1       3.367   7.020  19.518  0.00  0.00    +0.000 HD
ENDBRANCH  14  16
ENDBRANCH   4  14
TORSDOF 2
ENDMDL
MODEL 4
REMARK VINA RESULT:      -6.3      2.816      4.692
REMARK  Name = 
REMARK  4 active torsions:
REMARK  status: ('A' for Active; 'I' for Inactive)
REMARK    1  A    between atoms: C_1  and  C_2
REMARK    2  A    between atoms: C_2  and  C_3
REMARK    3  A    between atoms: C_4  and  C_5
REMARK    4  A    between atoms: C_5  and  O_7
REMARK                            x       y       z     vdW  Elec       q    Type
REMARK                         _______ _______ _______ _____ _____    ______ ____
ROOT
ATOM      1  C   UNL     1       4.908   7.385  17.400  0.00  0.00    +0.000 C 
ATOM      2  C   UNL     1       6.154   6.476  17.487  0.00  0.00    +0.000 C 
ATOM      3  C   UNL     1       7.368   7.383  17.257  0.00  0.00    +0.000 C 
ATOM      4  C   UNL     1       6.166   5.637  18.787  0.00  0.00    +0.000 C 
ATOM      5  N   UNL     1       5.289   4.466  18.555  0.00  0.00    +0.000 N 
ATOM      6  C   UNL     1       3.928   4.620  18.646  0.00  0.00    +0.000 C 
ATOM      7  O   UNL     1       3.289   5.250  19.454  0.00  0.00    +0.000 OA
ATOM      8  C   UNL     1       3.688   3.974  17.258  0.00  0.00    +0.000 C 
ATOM      9 CL   UNL     1       2.770   2.440  17.307  0.00  0.00    +0.000 Cl
ATOM     10  C   UNL     1       5.218   3.917  17.165  0.00  0.00    +0.000 C 
ATOM     11  S   UNL     1       6.065   5.181  16.210  0.00  0.00    +0.000 S 
ATOM     12  O   UNL     1       5.204   5.630  15.135  0.00  0.00    +0.000 OA
ATOM     13  O   UNL     1       7.408   4.717  15.937  0.00  0.00    +0.000 OA
ENDROOT
BRANCH   4  14
ATOM     14  C   UNL     1       7.544   5.121  19.237  0.00  0.00    +0.000 C 
ATOM     15  O   UNL     1       8.276   4.424  18.551  0.00  0.00    +0.000 OA
BRANCH  14  16
ATOM     16  O   UNL     1       7.934   5.583  20.449  0.00  0.00    +0.000 OA
ATOM     17  H   UNL     1       7.510   6.434  20.675  0.00  0.00    +0.000 HD
ENDBRANCH  14  16
ENDBRANCH   4  14
TORSDOF 2
ENDMDL
MODEL 5
REMARK VINA RESULT:      -6.3      2.414      4.079
REMARK  Name = 
REMARK  4 active torsions:
REMARK  status: ('A' for Active; 'I' for Inactive)
REMARK    1  A    between atoms: C_1  and  C_2
REMARK    2  A    between atoms: C_2  and  C_3
REMARK    3  A    between atoms: C_4  and  C_5
REMARK    4  A    between atoms: C_5  and  O_7
REMARK                            x       y       z     vdW  Elec       q    Type
REMARK                         _______ _______ _______ _____ _____    ______ ____
ROOT
ATOM      1  C   UNL     1       2.419   6.440  17.847  0.00  0.00    +0.000 C 
ATOM      2  C   UNL     1       3.648   5.503  17.862  0.00  0.00    +0.000 C 
ATOM      3  C   UNL     1       4.538   5.938  16.693  0.00  0.00    +0.000 C 
ATOM      4  C   UNL     1       4.322   5.460  19.254  0.00  0.00    +0.000 C 
ATOM      5  N   UNL     1       3.547   4.508  20.083  0.00  0.00    +0.000 N 
ATOM      6  C   UNL     1       2.366   4.921  20.648  0.00  0.00    +0.000 C 
ATOM      7  O   UNL     1       2.106   5.976  21.177  0.00  0.00    +0.000 OA
ATOM      8  C   UNL     1       1.585   3.709  20.081  0.00  0.00    +0.000 C 
ATOM      9 CL   UNL     1       0.933   2.603  21.326  0.00  0.00    +0.000 Cl
ATOM     10  C   UNL     1       2.905   3.348  19.389  0.00  0.00    +0.000 C 
ATOM     11  S   UNL     1       3.110   3.776  17.657  0.00  0.00    +0.000 S 
ATOM     12  O   UNL     1       1.818   3.753  17.000  0.00  0.00    +0.000 OA
ATOM     13  O   UNL     1       4.220   3.012  17.130  0.00  0.00    +0.000 OA
ENDROOT
BRANCH   4  14
ATOM     14  C   UNL     1       5.796   5.016  19.269  0.00  0.00    +0.000 C 
ATOM     15  O   UNL     1       6.729   5.741  19.575  0.00  0.00    +0.000 OA
BRANCH  14  16
ATOM     16  O   UNL     1       5.976   3.702  18.995  0.00  0.00    +0.000 OA
ATOM     17  H   UNL     1       5.796   3.491  18.057  0.00  0.00    +0.000 HD
ENDBRANCH  14  16
ENDBRANCH   4  14
TORSDOF 2
ENDMDL
MODEL 6
REMARK VINA RESULT:      -6.3      2.607      3.641
REMARK  Name = 
REMARK  4 active torsions:
REMARK  status: ('A' for Active; 'I' for Inactive)
REMARK    1  A    between atoms: C_1  and  C_2
REMARK    2  A    between atoms: C_2  and  C_3
REMARK    3  A    between atoms: C_4  and  C_5
REMARK    4  A    between atoms: C_5  and  O_7
REMARK                            x       y       z     vdW  Elec       q    Type
REMARK                         _______ _______ _______ _____ _____    ______ ____
ROOT
ATOM      1  C   UNL     1       5.768   3.948  16.038  0.00  0.00    +0.000 C 
ATOM      2  C   UNL     1       4.733   4.500  17.043  0.00  0.00    +0.000 C 
ATOM      3  C   UNL     1       3.393   3.844  16.690  0.00  0.00    +0.000 C 
ATOM      4  C   UNL     1       5.208   4.338  18.507  0.00  0.00    +0.000 C 
ATOM      5  N   UNL     1       6.130   5.461  18.791  0.00  0.00    +0.000 N 
ATOM      6  C   UNL     1       7.426   5.392  18.345  0.00  0.00    +0.000 C 
ATOM      7  O   UNL     1       8.180   4.448  18.347  0.00  0.00    +0.000 OA
ATOM      8  C   UNL     1       7.343   6.780  17.662  0.00  0.00    +0.000 C 
ATOM      9 CL   UNL     1       8.434   8.013  18.360  0.00  0.00    +0.000 Cl
ATOM     10  C   UNL     1       5.872   6.762  18.098  0.00  0.00    +0.000 C 
ATOM     11  S   UNL     1       4.625   6.311  16.887  0.00  0.00    +0.000 S 
ATOM     12  O   UNL     1       5.073   6.703  15.566  0.00  0.00    +0.000 OA
ATOM     13  O   UNL     1       3.335   6.736  17.387  0.00  0.00    +0.000 OA
ENDROOT
BRANCH   4  14
ATOM     14  C   UNL     1       4.099   4.348  19.574  0.00  0.00    +0.000 C 
ATOM     15  O   UNL     1       3.596   3.344  20.054  0.00  0.00    +0.000 OA
BRANCH  14  16
ATOM     16  O   UNL     1       3.776   5.586  20.018  0.00  0.00    +0.000 OA
ATOM     17  H   UNL     1       2.868   5.846  19.764  0.00  0.00    +0.000 HD
ENDBRANCH  14  16
ENDBRANCH   4  14
TORSDOF 2
ENDMDL
MODEL 7
REMARK VINA RESULT:      -6.3      2.455      3.899
REMARK  Name = 
REMARK  4 active torsions:
REMARK  status: ('A' for Active; 'I' for Inactive)
REMARK    1  A    between atoms: C_1  and  C_2
REMARK    2  A    between atoms: C_2  and  C_3
REMARK    3  A    between atoms: C_4  and  C_5
REMARK    4  A    between atoms: C_5  and  O_7
REMARK                            x       y       z     vdW  Elec       q    Type
REMARK                         _______ _______ _______ _____ _____    ______ ____
ROOT
ATOM      1  C   UNL     1       3.759   3.616  16.817  0.00  0.00    +0.000 C 
ATOM      2  C   UNL     1       3.925   4.933  17.610  0.00  0.00    +0.000 C 
ATOM      3  C   UNL     1       4.880   5.811  16.795  0.00  0.00    +0.000 C 
ATOM      4  C   UNL     1       2.558   5.562  17.972  0.00  0.00    +0.000 C 
ATOM      5  N   UNL     1       2.063   4.861  19.179  0.00  0.00    +0.000 N 
ATOM      6  C   UNL     1       1.477   3.627  19.042  0.00  0.00    +0.000 C 
ATOM      7  O   UNL     1       0.701   3.245  18.199  0.00  0.00    +0.000 OA
ATOM      8  C   UNL     1       2.394   2.992  20.117  0.00  0.00    +0.000 C 
ATOM      9 CL   UNL     1       1.532   2.415  21.574  0.00  0.00    +0.000 Cl
ATOM     10  C   UNL     1       3.079   4.363  20.158  0.00  0.00    +0.000 C 
ATOM     11  S   UNL     1       4.617   4.579  19.256  0.00  0.00    +0.000 S 
ATOM     12  O   UNL     1       5.331   3.318  19.213  0.00  0.00    +0.000 OA
ATOM     13  O   UNL     1       5.264   5.778  19.746  0.00  0.00    +0.000 OA
ENDROOT
BRANCH   4  14
ATOM     14  C   UNL     1       2.577   7.072  18.270  0.00  0.00    +0.000 C 
ATOM     15  O   UNL     1       2.564   7.943  17.415  0.00  0.00    +0.000 OA
BRANCH  14  16
ATOM     16  O   UNL     1       2.519   7.372  19.591  0.00  0.00    +0.000 OA
ATOM     17  H   UNL     1       3.276   7.004  20.088  0.00  0.00    +0.000 HD
ENDBRANCH  14  16
ENDBRANCH   4  14
TORSDOF 2
ENDMDL
MODEL 8
REMARK VINA RESULT:      -6.3      2.675      3.792
REMARK  Name = 
REMARK  4 active torsions:
REMARK  status: ('A' for Active; 'I' for Inactive)
REMARK    1  A    between atoms: C_1  and  C_2
REMARK    2  A    between atoms: C_2  and  C_3
REMARK    3  A    between atoms: C_4  and  C_5
REMARK    4  A    between atoms: C_5  and  O_7
REMARK                            x       y       z     vdW  Elec       q    Type
REMARK                         _______ _______ _______ _____ _____    ______ ____
ROOT
ATOM      1  C   UNL     1       5.270   4.151  15.680  0.00  0.00    +0.000 C 
ATOM      2  C   UNL     1       4.525   4.254  17.031  0.00  0.00    +0.000 C 
ATOM      3  C   UNL     1       3.160   3.590  16.823  0.00  0.00    +0.000 C 
ATOM      4  C   UNL     1       5.379   3.711  18.201  0.00  0.00    +0.000 C 
ATOM      5  N   UNL     1       6.311   4.792  18.597  0.00  0.00    +0.000 N 
ATOM      6  C   UNL     1       7.442   5.007  17.850  0.00  0.00    +0.000 C 
ATOM      7  O   UNL     1       8.196   4.197  17.365  0.00  0.00    +0.000 OA
ATOM      8  C   UNL     1       7.139   6.518  17.692  0.00  0.00    +0.000 C 
ATOM      9 CL   UNL     1       8.342   7.596  18.461  0.00  0.00    +0.000 Cl
ATOM     10  C   UNL     1       5.840   6.204  18.444  0.00  0.00    +0.000 C 
ATOM     11  S   UNL     1       4.328   6.003  17.495  0.00  0.00    +0.000 S 
ATOM     12  O   UNL     1       4.396   6.825  16.303  0.00  0.00    +0.000 OA
ATOM     13  O   UNL     1       3.207   6.110  18.404  0.00  0.00    +0.000 OA
ENDROOT
BRANCH   4  14
ATOM     14  C   UNL     1       4.595   3.274  19.452  0.00  0.00    +0.000 C 
ATOM     15  O   UNL     1       3.692   3.920  19.959  0.00  0.00    +0.000 OA
BRANCH  14  16
ATOM     16  O   UNL     1       4.932   2.044  19.908  0.00  0.00    +0.000 OA
ATOM     17  H   UNL     1       5.847   2.014  20.251  0.00  0.00    +0.000 HD
ENDBRANCH  14  16
ENDBRANCH   4  14
TORSDOF 2
ENDMDL
MODEL 9
REMARK VINA RESULT:      -6.2      1.667      2.044
REMARK  Name = 
REMARK  4 active torsions:
REMARK  status: ('A' for Active; 'I' for Inactive)
REMARK    1  A    between atoms: C_1  and  C_2
REMARK    2  A    between atoms: C_2  and  C_3
REMARK    3  A    between atoms: C_4  and  C_5
REMARK    4  A    between atoms: C_5  and  O_7
REMARK                            x       y       z     vdW  Elec       q    Type
REMARK                         _______ _______ _______ _____ _____    ______ ____
ROOT
ATOM      1  C   UNL     1       3.874   1.808  18.285  0.00  0.00    +0.000 C 
ATOM      2  C   UNL     1       2.827   2.710  18.977  0.00  0.00    +0.000 C 
ATOM      3  C   UNL     1       1.719   1.779  19.482  0.00  0.00    +0.000 C 
ATOM      4  C   UNL     1       3.474   3.638  20.033  0.00  0.00    +0.000 C 
ATOM      5  N   UNL     1       4.038   4.797  19.304  0.00  0.00    +0.000 N 
ATOM      6  C   UNL     1       5.243   4.661  18.661  0.00  0.00    +0.000 C 
ATOM      7  O   UNL     1       6.243   4.094  19.034  0.00  0.00    +0.000 OA
ATOM      8  C   UNL     1       4.677   5.210  17.327  0.00  0.00    +0.000 C 
ATOM      9 CL   UNL     1       5.411   6.752  16.794  0.00  0.00    +0.000 Cl
ATOM     10  C   UNL     1       3.332   5.248  18.064  0.00  0.00    +0.000 C 
ATOM     11  S   UNL     1       2.164   3.913  17.782  0.00  0.00    +0.000 S 
ATOM     12  O   UNL     1       2.337   3.398  16.439  0.00  0.00    +0.000 OA
ATOM     13  O   UNL     1       0.863   4.346  18.245  0.00  0.00    +0.000 OA
ENDROOT
BRANCH   4  14
ATOM     14  C   UNL     1       2.527   4.173  21.122  0.00  0.00    +0.000 C 
ATOM     15  O   UNL     1       2.187   3.541  22.110  0.00  0.00    +0.000 OA
BRANCH  14  16
ATOM     16  O   UNL     1       2.158   5.464  20.942  0.00  0.00    +0.000 OA
ATOM     17  H   UNL     1       1.392   5.711  21.498  0.00  0.00    +0.000 HD
ENDBRANCH  14  16
ENDBRANCH   4  14
TORSDOF 2
ENDMDL
