MODEL 1
REMARK VINA RESULT:      -7.6      0.000      0.000
REMARK  Name = 
REMARK  7 active torsions:
REMARK  status: ('A' for Active; 'I' for Inactive)
REMARK    1  A    between atoms: C_1  and  C_2
REMARK    2  A    between atoms: C_2  and  C_3
REMARK    3  A    between atoms: N_11  and  C1*_12
REMARK    4  A    between atoms: C4*_14  and  C5*_15
REMARK    5  A    between atoms: C5*_15  and  O5*_16
REMARK    6  A    between atoms: C3*_17  and  O3*_18
REMARK    7  A    between atoms: C2*_19  and  O2*_20
REMARK                            x       y       z     vdW  Elec       q    Type
REMARK                         _______ _______ _______ _____ _____    ______ ____
ROOT
ATOM      1  C1* UNL     1       4.780   6.229  16.928  0.00  0.00    +0.000 C 
ATOM      2  O4* UNL     1       5.794   6.878  17.725  0.00  0.00    +0.000 OA
ATOM      3  C4* UNL     1       7.057   6.213  17.509  0.00  0.00    +0.000 C 
ATOM      4  C3* UNL     1       6.778   4.899  16.788  0.00  0.00    +0.000 C 
ATOM      5  C2* UNL     1       5.480   5.190  16.045  0.00  0.00    +0.000 C 
ENDROOT
BRANCH   1  14
ATOM      6  C   UNL     1       1.643   3.404  19.312  0.00  0.00    +0.000 A 
ATOM      7  N   UNL     1       1.860   2.299  18.534  0.00  0.00    +0.000 NA
ATOM      8  C   UNL     1       2.705   2.402  17.487  0.00  0.00    +0.000 A 
ATOM      9  N   UNL     1       3.386   3.489  17.084  0.00  0.00    +0.000 NA
ATOM     10  C   UNL     1       3.163   4.538  17.887  0.00  0.00    +0.000 A 
ATOM     11  C   UNL     1       2.324   4.583  18.990  0.00  0.00    +0.000 A 
ATOM     12  N   UNL     1       2.352   5.831  19.568  0.00  0.00    +0.000 NA
ATOM     13  C   UNL     1       3.213   6.518  18.850  0.00  0.00    +0.000 A 
ATOM     14  N   UNL     1       3.740   5.773  17.823  0.00  0.00    +0.000 N 
BRANCH   6  16
ATOM     15  C   UNL     1       1.518   2.641  21.673  0.00  0.00    +0.000 C 
ATOM     16  C   UNL     1       0.753   3.249  20.508  0.00  0.00    +0.000 C 
ENDBRANCH   6  16
ENDBRANCH   1  14
BRANCH   4  17
ATOM     17  O3* UNL     1       7.843   4.565  15.896  0.00  0.00    +0.000 OA
ATOM     18  H3* UNL     1       7.538   4.795  14.995  0.00  0.00    +0.000 HD
ENDBRANCH   4  17
BRANCH   5  19
ATOM     19  O2* UNL     1       5.809   5.750  14.750  0.00  0.00    +0.000 OA
ATOM     20  H2* UNL     1       5.840   5.025  14.098  0.00  0.00    +0.000 HD
ENDBRANCH   5  19
BRANCH   3  21
ATOM     21  C5* UNL     1       7.773   6.031  18.848  0.00  0.00    +0.000 C 
BRANCH  21  22
ATOM     22  O5* UNL     1       6.919   5.431  19.818  0.00  0.00    +0.000 OA
ATOM     23  H5* UNL     1       6.869   6.046  20.573  0.00  0.00    +0.000 HD
ENDBRANCH  21  22
ENDBRANCH   3  21
TORSDOF 6
ENDMDL
MODEL 2
REMARK VINA RESULT:      -7.5      3.201      5.887
REMARK  Name = 
REMARK  7 active torsions:
REMARK  status: ('A' for Active; 'I' for Inactive)
REMARK    1  A    between atoms: C_1  and  C_2
REMARK    2  A    between atoms: C_2  and  C_3
REMARK    3  A    between atoms: N_11  and  C1*_12
REMARK    4  A    between atoms: C4*_14  and  C5*_15
REMARK    5  A    between atoms: C5*_15  and  O5*_16
REMARK    6  A    between atoms: C3*_17  and  O3*_18
REMARK    7  A    between atoms: C2*_19  and  O2*_20
REMARK                            x       y       z     vdW  Elec       q    Type
REMARK                         _______ _______ _______ _____ _____    ______ ____
ROOT
ATOM      1  C1* UNL     1       3.321   3.445  18.326  0.00  0.00    +0.000 C 
ATOM      2  O4* UNL     1       3.324   2.378  19.300  0.00  0.00    +0.000 OA
ATOM      3  C4* UNL     1       2.152   2.500  20.133  0.00  0.00    +0.000 C 
ATOM      4  C3* UNL     1       1.539   3.874  19.883  0.00  0.00    +0.000 C 
ATOM      5  C2* UNL     1       1.989   4.190  18.463  0.00  0.00    +0.000 C 
ENDROOT
BRANCH   1  14
ATOM      6  C   UNL     1       6.913   6.633  17.664  0.00  0.00    +0.000 A 
ATOM      7  N   UNL     1       6.496   7.029  16.422  0.00  0.00    +0.000 NA
ATOM      8  C   UNL     1       5.420   6.423  15.879  0.00  0.00    +0.000 A 
ATOM      9  N   UNL     1       4.674   5.438  16.411  0.00  0.00    +0.000 NA
ATOM     10  C   UNL     1       5.102   5.101  17.635  0.00  0.00    +0.000 A 
ATOM     11  C   UNL     1       6.188   5.629  18.316  0.00  0.00    +0.000 A 
ATOM     12  N   UNL     1       6.320   5.036  19.550  0.00  0.00    +0.000 NA
ATOM     13  C   UNL     1       5.317   4.189  19.628  0.00  0.00    +0.000 A 
ATOM     14  N   UNL     1       4.544   4.198  18.493  0.00  0.00    +0.000 N 
BRANCH   6  16
ATOM     15  C   UNL     1       8.064   8.827  17.856  0.00  0.00    +0.000 C 
ATOM     16  C   UNL     1       8.068   7.366  18.277  0.00  0.00    +0.000 C 
ENDBRANCH   6  16
ENDBRANCH   1  14
BRANCH   4  17
ATOM     17  O3* UNL     1       0.116   3.831  19.998  0.00  0.00    +0.000 OA
ATOM     18  H3* UNL     1      -0.163   4.694  20.369  0.00  0.00    +0.000 HD
ENDBRANCH   4  17
BRANCH   5  19
ATOM     19  O2* UNL     1       1.004   3.662  17.541  0.00  0.00    +0.000 OA
ATOM     20  H2* UNL     1       1.181   4.026  16.654  0.00  0.00    +0.000 HD
ENDBRANCH   5  19
BRANCH   3  21
ATOM     21  C5* UNL     1       2.538   2.263  21.594  0.00  0.00    +0.000 C 
BRANCH  21  22
ATOM     22  O5* UNL     1       1.435   2.490  22.467  0.00  0.00    +0.000 OA
ATOM     23  H5* UNL     1       1.803   2.815  23.310  0.00  0.00    +0.000 HD
ENDBRANCH  21  22
ENDBRANCH   3  21
TORSDOF 6
ENDMDL
MODEL 3
REMARK VINA RESULT:      -7.4      3.222      5.756
REMARK  Name = 
REMARK  7 active torsions:
REMARK  status: ('A' for Active; 'I' for Inactive)
REMARK    1  A    between atoms: C_1  and  C_2
REMARK    2  A    between atoms: C_2  and  C_3
REMARK    3  A    between atoms: N_11  and  C1*_12
REMARK    4  A    between atoms: C4*_14  and  C5*_15
REMARK    5  A    between atoms: C5*_15  and  O5*_16
REMARK    6  A    between atoms: C3*_17  and  O3*_18
REMARK    7  A    between atoms: C2*_19  and  O2*_20
REMARK                            x       y       z     vdW  Elec       q    Type
REMARK                         _______ _______ _______ _____ _____    ______ ____
ROOT
ATOM      1  C1* UNL     1       3.833   2.832  18.375  0.00  0.00    +0.000 C 
ATOM      2  O4* UNL     1       3.859   2.256  19.699  0.00  0.00    +0.000 OA
ATOM      3  C4* UNL     1       2.512   2.212  20.219  0.00  0.00    +0.000 C 
ATOM      4  C3* UNL     1       1.635   3.076  19.319  0.00  0.00    +0.000 C 
ATOM      5  C2* UNL     1       2.364   3.021  17.982  0.00  0.00    +0.000 C 
ENDROOT
BRANCH   1  14
ATOM      6  C   UNL     1       6.929   6.300  17.001  0.00  0.00    +0.000 A 
ATOM      7  N   UNL     1       7.252   5.708  15.810  0.00  0.00    +0.000 NA
ATOM      8  C   UNL     1       6.715   4.506  15.519  0.00  0.00    +0.000 A 
ATOM      9  N   UNL     1       5.875   3.776  16.275  0.00  0.00    +0.000 NA
ATOM     10  C   UNL     1       5.567   4.403  17.418  0.00  0.00    +0.000 A 
ATOM     11  C   UNL     1       6.041   5.632  17.851  0.00  0.00    +0.000 A 
ATOM     12  N   UNL     1       5.502   5.954  19.076  0.00  0.00    +0.000 NA
ATOM     13  C   UNL     1       4.694   4.956  19.363  0.00  0.00    +0.000 A 
ATOM     14  N   UNL     1       4.692   3.994  18.382  0.00  0.00    +0.000 N 
BRANCH   6  16
ATOM     15  C   UNL     1       8.318   7.664  18.545  0.00  0.00    +0.000 C 
ATOM     16  C   UNL     1       7.484   7.666  17.274  0.00  0.00    +0.000 C 
ENDBRANCH   6  16
ENDBRANCH   1  14
BRANCH   4  17
ATOM     17  O3* UNL     1       0.311   2.548  19.230  0.00  0.00    +0.000 OA
ATOM     18  H3* UNL     1       0.402   1.584  19.084  0.00  0.00    +0.000 HD
ENDBRANCH   4  17
BRANCH   5  19
ATOM     19  O2* UNL     1       1.875   1.876  17.241  0.00  0.00    +0.000 OA
ATOM     20  H2* UNL     1       2.419   1.100  17.473  0.00  0.00    +0.000 HD
ENDBRANCH   5  19
BRANCH   3  21
ATOM     21  C5* UNL     1       2.515   2.663  21.680  0.00  0.00    +0.000 C 
BRANCH  21  22
ATOM     22  O5* UNL     1       1.193   2.720  22.209  0.00  0.00    +0.000 OA
ATOM     23  H5* UNL     1       0.585   2.782  21.450  0.00  0.00    +0.000 HD
ENDBRANCH  21  22
ENDBRANCH   3  21
TORSDOF 6
ENDMDL
MODEL 4
REMARK VINA RESULT:      -7.3      3.083      5.868
REMARK  Name = 
REMARK  7 active torsions:
REMARK  status: ('A' for Active; 'I' for Inactive)
REMARK    1  A    between atoms: C_1  and  C_2
REMARK    2  A    between atoms: C_2  and  C_3
REMARK    3  A    between atoms: N_11  and  C1*_12
REMARK    4  A    between atoms: C4*_14  and  C5*_15
REMARK    5  A    between atoms: C5*_15  and  O5*_16
REMARK    6  A    between atoms: C3*_17  and  O3*_18
REMARK    7  A    between atoms: C2*_19  and  O2*_20
REMARK                            x       y       z     vdW  Elec       q    Type
REMARK                         _______ _______ _______ _____ _____    ______ ____
ROOT
ATOM      1  C1* UNL     1       4.034   3.509  18.671  0.00  0.00    +0.000 C 
ATOM      2  O4* UNL     1       3.465   3.798  19.966  0.00  0.00    +0.000 OA
ATOM      3  C4* UNL     1       2.041   3.565  19.915  0.00  0.00    +0.000 C 
ATOM      4  C3* UNL     1       1.641   3.421  18.450  0.00  0.00    +0.000 C 
ATOM      5  C2* UNL     1       2.922   2.915  17.799  0.00  0.00    +0.000 C 
ENDROOT
BRANCH   1  14
ATOM      6  C   UNL     1       7.325   7.007  18.008  0.00  0.00    +0.000 A 
ATOM      7  N   UNL     1       8.143   6.598  19.026  0.00  0.00    +0.000 NA
ATOM      8  C   UNL     1       7.757   5.550  19.783  0.00  0.00    +0.000 A 
ATOM      9  N   UNL     1       6.627   4.828  19.674  0.00  0.00    +0.000 NA
ATOM     10  C   UNL     1       5.870   5.247  18.652  0.00  0.00    +0.000 A 
ATOM     11  C   UNL     1       6.134   6.305  17.795  0.00  0.00    +0.000 A 
ATOM     12  N   UNL     1       5.127   6.437  16.865  0.00  0.00    +0.000 NA
ATOM     13  C   UNL     1       4.289   5.459  17.134  0.00  0.00    +0.000 A 
ATOM     14  N   UNL     1       4.701   4.704  18.205  0.00  0.00    +0.000 N 
BRANCH   6  16
ATOM     15  C   UNL     1       8.304   9.291  17.981  0.00  0.00    +0.000 C 
ATOM     16  C   UNL     1       7.805   8.129  17.137  0.00  0.00    +0.000 C 
ENDBRANCH   6  16
ENDBRANCH   1  14
BRANCH   4  17
ATOM     17  O3* UNL     1       0.562   2.498  18.299  0.00  0.00    +0.000 OA
ATOM     18  H3* UNL     1       0.912   1.614  18.534  0.00  0.00    +0.000 HD
ENDBRANCH   4  17
BRANCH   5  19
ATOM     19  O2* UNL     1       2.930   1.468  17.865  0.00  0.00    +0.000 OA
ATOM     20  H2* UNL     1       2.245   1.182  18.498  0.00  0.00    +0.000 HD
ENDBRANCH   5  19
BRANCH   3  21
ATOM     21  C5* UNL     1       1.313   4.700  20.635  0.00  0.00    +0.000 C 
BRANCH  21  22
ATOM     22  O5* UNL     1       2.227   5.677  21.125  0.00  0.00    +0.000 OA
ATOM     23  H5* UNL     1       2.429   6.275  20.382  0.00  0.00    +0.000 HD
ENDBRANCH  21  22
ENDBRANCH   3  21
TORSDOF 6
ENDMDL
MODEL 5
REMARK VINA RESULT:      -7.2      3.260      5.821
REMARK  Name = 
REMARK  7 active torsions:
REMARK  status: ('A' for Active; 'I' for Inactive)
REMARK    1  A    between atoms: C_1  and  C_2
REMARK    2  A    between atoms: C_2  and  C_3
REMARK    3  A    between atoms: N_11  and  C1*_12
REMARK    4  A    between atoms: C4*_14  and  C5*_15
REMARK    5  A    between atoms: C5*_15  and  O5*_16
REMARK    6  A    between atoms: C3*_17  and  O3*_18
REMARK    7  A    between atoms: C2*_19  and  O2*_20
REMARK                            x       y       z     vdW  Elec       q    Type
REMARK                         _______ _______ _______ _____ _____    ______ ____
ROOT
ATOM      1  C1* UNL     1       3.582   3.301  18.287  0.00  0.00    +0.000 C 
ATOM      2  O4* UNL     1       3.683   2.942  19.683  0.00  0.00    +0.000 OA
ATOM      3  C4* UNL     1       2.358   2.702  20.203  0.00  0.00    +0.000 C 
ATOM      4  C3* UNL     1       1.352   3.227  19.184  0.00  0.00    +0.000 C 
ATOM      5  C2* UNL     1       2.117   3.127  17.871  0.00  0.00    +0.000 C 
ENDROOT
BRANCH   1  14
ATOM      6  C   UNL     1       6.838   6.838  17.665  0.00  0.00    +0.000 A 
ATOM      7  N   UNL     1       7.929   6.033  17.853  0.00  0.00    +0.000 NA
ATOM      8  C   UNL     1       7.728   4.736  18.166  0.00  0.00    +0.000 A 
ATOM      9  N   UNL     1       6.553   4.102  18.331  0.00  0.00    +0.000 NA
ATOM     10  C   UNL     1       5.515   4.921  18.113  0.00  0.00    +0.000 A 
ATOM     11  C   UNL     1       5.566   6.268  17.791  0.00  0.00    +0.000 A 
ATOM     12  N   UNL     1       4.297   6.779  17.643  0.00  0.00    +0.000 NA
ATOM     13  C   UNL     1       3.495   5.754  17.840  0.00  0.00    +0.000 A 
ATOM     14  N   UNL     1       4.188   4.602  18.120  0.00  0.00    +0.000 N 
BRANCH   6  16
ATOM     15  C   UNL     1       8.237   8.856  18.042  0.00  0.00    +0.000 C 
ATOM     16  C   UNL     1       7.083   8.258  17.253  0.00  0.00    +0.000 C 
ENDBRANCH   6  16
ENDBRANCH   1  14
BRANCH   4  17
ATOM     17  O3* UNL     1       0.165   2.433  19.176  0.00  0.00    +0.000 OA
ATOM     18  H3* UNL     1       0.316   1.708  18.536  0.00  0.00    +0.000 HD
ENDBRANCH   4  17
BRANCH   5  19
ATOM     19  O2* UNL     1       1.892   1.811  17.309  0.00  0.00    +0.000 OA
ATOM     20  H2* UNL     1       1.111   1.852  16.725  0.00  0.00    +0.000 HD
ENDBRANCH   5  19
BRANCH   3  21
ATOM     21  C5* UNL     1       2.225   3.352  21.580  0.00  0.00    +0.000 C 
BRANCH  21  22
ATOM     22  O5* UNL     1       1.371   2.595  22.433  0.00  0.00    +0.000 OA
ATOM     23  H5* UNL     1       0.570   3.132  22.582  0.00  0.00    +0.000 HD
ENDBRANCH  21  22
ENDBRANCH   3  21
TORSDOF 6
ENDMDL
MODEL 6
REMARK VINA RESULT:      -7.1      1.005      1.005
REMARK  Name = 
REMARK  7 active torsions:
REMARK  status: ('A' for Active; 'I' for Inactive)
REMARK    1  A    between atoms: C_1  and  C_2
REMARK    2  A    between atoms: C_2  and  C_3
REMARK    3  A    between atoms: N_11  and  C1*_12
REMARK    4  A    between atoms: C4*_14  and  C5*_15
REMARK    5  A    between atoms: C5*_15  and  O5*_16
REMARK    6  A    between atoms: C3*_17  and  O3*_18
REMARK    7  A    between atoms: C2*_19  and  O2*_20
REMARK                            x       y       z     vdW  Elec       q    Type
REMARK                         _______ _______ _______ _____ _____    ______ ____
ROOT
ATOM      1  C1* UNL     1       4.926   6.313  17.006  0.00  0.00    +0.000 C 
ATOM      2  O4* UNL     1       5.980   6.739  17.896  0.00  0.00    +0.000 OA
ATOM      3  C4* UNL     1       7.194   6.036  17.556  0.00  0.00    +0.000 C 
ATOM      4  C3* UNL     1       6.826   4.891  16.618  0.00  0.00    +0.000 C 
ATOM      5  C2* UNL     1       5.555   5.399  15.949  0.00  0.00    +0.000 C 
ENDROOT
BRANCH   1  14
ATOM      6  C   UNL     1       2.374   3.542  20.058  0.00  0.00    +0.000 A 
ATOM      7  N   UNL     1       3.312   2.549  20.133  0.00  0.00    +0.000 NA
ATOM      8  C   UNL     1       4.428   2.656  19.381  0.00  0.00    +0.000 A 
ATOM      9  N   UNL     1       4.753   3.643  18.528  0.00  0.00    +0.000 NA
ATOM     10  C   UNL     1       3.819   4.604  18.505  0.00  0.00    +0.000 A 
ATOM     11  C   UNL     1       2.628   4.629  19.215  0.00  0.00    +0.000 A 
ATOM     12  N   UNL     1       1.924   5.778  18.936  0.00  0.00    +0.000 NA
ATOM     13  C   UNL     1       2.687   6.449  18.101  0.00  0.00    +0.000 A 
ATOM     14  N   UNL     1       3.853   5.781  17.815  0.00  0.00    +0.000 N 
BRANCH   6  16
ATOM     15  C   UNL     1       1.426   2.442  22.074  0.00  0.00    +0.000 C 
ATOM     16  C   UNL     1       1.175   3.437  20.951  0.00  0.00    +0.000 C 
ENDBRANCH   6  16
ENDBRANCH   1  14
BRANCH   4  17
ATOM     17  O3* UNL     1       7.868   4.645  15.673  0.00  0.00    +0.000 OA
ATOM     18  H3* UNL     1       8.598   5.261  15.891  0.00  0.00    +0.000 HD
ENDBRANCH   4  17
BRANCH   5  19
ATOM     19  O2* UNL     1       5.928   6.152  14.769  0.00  0.00    +0.000 OA
ATOM     20  H2* UNL     1       6.712   6.692  14.980  0.00  0.00    +0.000 HD
ENDBRANCH   5  19
BRANCH   3  21
ATOM     21  C5* UNL     1       7.890   5.572  18.837  0.00  0.00    +0.000 C 
BRANCH  21  22
ATOM     22  O5* UNL     1       6.954   5.355  19.889  0.00  0.00    +0.000 OA
ATOM     23  H5* UNL     1       7.185   5.972  20.607  0.00  0.00    +0.000 HD
ENDBRANCH  21  22
ENDBRANCH   3  21
TORSDOF 6
ENDMDL
MODEL 7
REMARK VINA RESULT:      -7.0      0.992      2.066
REMARK  Name = 
REMARK  7 active torsions:
REMARK  status: ('A' for Active; 'I' for Inactive)
REMARK    1  A    between atoms: C_1  and  C_2
REMARK    2  A    between atoms: C_2  and  C_3
REMARK    3  A    between atoms: N_11  and  C1*_12
REMARK    4  A    between atoms: C4*_14  and  C5*_15
REMARK    5  A    between atoms: C5*_15  and  O5*_16
REMARK    6  A    between atoms: C3*_17  and  O3*_18
REMARK    7  A    between atoms: C2*_19  and  O2*_20
REMARK                            x       y       z     vdW  Elec       q    Type
REMARK                         _______ _______ _______ _____ _____    ______ ____
ROOT
ATOM      1  C1* UNL     1       4.613   6.102  16.878  0.00  0.00    +0.000 C 
ATOM      2  O4* UNL     1       5.568   6.819  17.690  0.00  0.00    +0.000 OA
ATOM      3  C4* UNL     1       6.893   6.594  17.164  0.00  0.00    +0.000 C 
ATOM      4  C3* UNL     1       6.814   5.443  16.168  0.00  0.00    +0.000 C 
ATOM      5  C2* UNL     1       5.372   5.516  15.682  0.00  0.00    +0.000 C 
ENDROOT
BRANCH   1  14
ATOM      6  C   UNL     1       1.612   4.325  20.245  0.00  0.00    +0.000 A 
ATOM      7  N   UNL     1       1.297   5.544  20.781  0.00  0.00    +0.000 NA
ATOM      8  C   UNL     1       1.903   6.643  20.288  0.00  0.00    +0.000 A 
ATOM      9  N   UNL     1       2.819   6.706  19.304  0.00  0.00    +0.000 NA
ATOM     10  C   UNL     1       3.078   5.495  18.793  0.00  0.00    +0.000 A 
ATOM     11  C   UNL     1       2.538   4.283  19.197  0.00  0.00    +0.000 A 
ATOM     12  N   UNL     1       3.042   3.252  18.438  0.00  0.00    +0.000 NA
ATOM     13  C   UNL     1       3.845   3.831  17.571  0.00  0.00    +0.000 A 
ATOM     14  N   UNL     1       3.893   5.193  17.741  0.00  0.00    +0.000 N 
BRANCH   6  16
ATOM     15  C   UNL     1       1.688   2.418  21.836  0.00  0.00    +0.000 C 
ATOM     16  C   UNL     1       0.877   3.125  20.762  0.00  0.00    +0.000 C 
ENDBRANCH   6  16
ENDBRANCH   1  14
BRANCH   4  17
ATOM     17  O3* UNL     1       7.748   5.619  15.102  0.00  0.00    +0.000 OA
ATOM     18  H3* UNL     1       7.260   5.455  14.269  0.00  0.00    +0.000 HD
ENDBRANCH   4  17
BRANCH   5  19
ATOM     19  O2* UNL     1       5.316   6.411  14.544  0.00  0.00    +0.000 OA
ATOM     20  H2* UNL     1       4.970   5.917  13.777  0.00  0.00    +0.000 HD
ENDBRANCH   5  19
BRANCH   3  21
ATOM     21  C5* UNL     1       7.862   6.334  18.319  0.00  0.00    +0.000 C 
BRANCH  21  22
ATOM     22  O5* UNL     1       7.611   5.073  18.934  0.00  0.00    +0.000 OA
ATOM     23  H5* UNL     1       6.671   5.064  19.191  0.00  0.00    +0.000 HD
ENDBRANCH  21  22
ENDBRANCH   3  21
TORSDOF 6
ENDMDL
MODEL 8
REMARK VINA RESULT:      -6.9      2.963      6.065
REMARK  Name = 
REMARK  7 active torsions:
REMARK  status: ('A' for Active; 'I' for Inactive)
REMARK    1  A    between atoms: C_1  and  C_2
REMARK    2  A    between atoms: C_2  and  C_3
REMARK    3  A    between atoms: N_11  and  C1*_12
REMARK    4  A    between atoms: C4*_14  and  C5*_15
REMARK    5  A    between atoms: C5*_15  and  O5*_16
REMARK    6  A    between atoms: C3*_17  and  O3*_18
REMARK    7  A    between atoms: C2*_19  and  O2*_20
REMARK                            x       y       z     vdW  Elec       q    Type
REMARK                         _______ _______ _______ _____ _____    ______ ____
ROOT
ATOM      1  C1* UNL     1       2.481   5.074  18.818  0.00  0.00    +0.000 C 
ATOM      2  O4* UNL     1       1.296   4.287  18.568  0.00  0.00    +0.000 OA
ATOM      3  C4* UNL     1       1.040   3.447  19.713  0.00  0.00    +0.000 C 
ATOM      4  C3* UNL     1       2.282   3.471  20.599  0.00  0.00    +0.000 C 
ATOM      5  C2* UNL     1       2.906   4.820  20.268  0.00  0.00    +0.000 C 
ENDROOT
BRANCH   1  14
ATOM      6  C   UNL     1       6.303   5.325  15.846  0.00  0.00    +0.000 A 
ATOM      7  N   UNL     1       6.692   6.572  16.253  0.00  0.00    +0.000 NA
ATOM      8  C   UNL     1       5.934   7.219  17.164  0.00  0.00    +0.000 A 
ATOM      9  N   UNL     1       4.800   6.790  17.744  0.00  0.00    +0.000 NA
ATOM     10  C   UNL     1       4.472   5.556  17.336  0.00  0.00    +0.000 A 
ATOM     11  C   UNL     1       5.146   4.776  16.409  0.00  0.00    +0.000 A 
ATOM     12  N   UNL     1       4.513   3.565  16.244  0.00  0.00    +0.000 NA
ATOM     13  C   UNL     1       3.494   3.601  17.076  0.00  0.00    +0.000 A 
ATOM     14  N   UNL     1       3.432   4.785  17.768  0.00  0.00    +0.000 N 
BRANCH   6  16
ATOM     15  C   UNL     1       6.466   4.318  13.580  0.00  0.00    +0.000 C 
ATOM     16  C   UNL     1       7.195   4.597  14.885  0.00  0.00    +0.000 C 
ENDBRANCH   6  16
ENDBRANCH   1  14
BRANCH   4  17
ATOM     17  O3* UNL     1       1.930   3.366  21.979  0.00  0.00    +0.000 OA
ATOM     18  H3* UNL     1       2.090   2.436  22.241  0.00  0.00    +0.000 HD
ENDBRANCH   4  17
BRANCH   5  19
ATOM     19  O2* UNL     1       2.341   5.817  21.155  0.00  0.00    +0.000 OA
ATOM     20  H2* UNL     1       3.051   6.426  21.430  0.00  0.00    +0.000 HD
ENDBRANCH   5  19
BRANCH   3  21
ATOM     21  C5* UNL     1       0.657   2.044  19.240  0.00  0.00    +0.000 C 
BRANCH  21  22
ATOM     22  O5* UNL     1       1.802   1.304  18.826  0.00  0.00    +0.000 OA
ATOM     23  H5* UNL     1       1.485   0.426  18.542  0.00  0.00    +0.000 HD
ENDBRANCH  21  22
ENDBRANCH   3  21
TORSDOF 6
ENDMDL
MODEL 9
REMARK VINA RESULT:      -6.9      2.339      4.203
REMARK  Name = 
REMARK  7 active torsions:
REMARK  status: ('A' for Active; 'I' for Inactive)
REMARK    1  A    between atoms: C_1  and  C_2
REMARK    2  A    between atoms: C_2  and  C_3
REMARK    3  A    between atoms: N_11  and  C1*_12
REMARK    4  A    between atoms: C4*_14  and  C5*_15
REMARK    5  A    between atoms: C5*_15  and  O5*_16
REMARK    6  A    between atoms: C3*_17  and  O3*_18
REMARK    7  A    between atoms: C2*_19  and  O2*_20
REMARK                            x       y       z     vdW  Elec       q    Type
REMARK                         _______ _______ _______ _____ _____    ______ ____
ROOT
ATOM      1  C1* UNL     1       4.099   4.854  18.078  0.00  0.00    +0.000 C 
ATOM      2  O4* UNL     1       4.349   4.602  16.678  0.00  0.00    +0.000 OA
ATOM      3  C4* UNL     1       5.770   4.439  16.478  0.00  0.00    +0.000 C 
ATOM      4  C3* UNL     1       6.479   4.913  17.742  0.00  0.00    +0.000 C 
ATOM      5  C2* UNL     1       5.429   4.690  18.822  0.00  0.00    +0.000 C 
ENDROOT
BRANCH   1  14
ATOM      6  C   UNL     1       1.480   8.567  19.768  0.00  0.00    +0.000 A 
ATOM      7  N   UNL     1       1.043   7.908  20.885  0.00  0.00    +0.000 NA
ATOM      8  C   UNL     1       1.399   6.618  21.055  0.00  0.00    +0.000 A 
ATOM      9  N   UNL     1       2.150   5.858  20.238  0.00  0.00    +0.000 NA
ATOM     10  C   UNL     1       2.575   6.549  19.172  0.00  0.00    +0.000 A 
ATOM     11  C   UNL     1       2.289   7.871  18.864  0.00  0.00    +0.000 A 
ATOM     12  N   UNL     1       2.903   8.237  17.688  0.00  0.00    +0.000 NA
ATOM     13  C   UNL     1       3.571   7.169  17.309  0.00  0.00    +0.000 A 
ATOM     14  N   UNL     1       3.411   6.121  18.182  0.00  0.00    +0.000 N 
BRANCH   6  16
ATOM     15  C   UNL     1      -0.215  10.186  18.943  0.00  0.00    +0.000 C 
ATOM     16  C   UNL     1       1.129  10.018  19.634  0.00  0.00    +0.000 C 
ENDBRANCH   6  16
ENDBRANCH   1  14
BRANCH   4  17
ATOM     17  O3* UNL     1       7.665   4.154  17.982  0.00  0.00    +0.000 OA
ATOM     18  H3* UNL     1       7.674   3.429  17.323  0.00  0.00    +0.000 HD
ENDBRANCH   4  17
BRANCH   5  19
ATOM     19  O2* UNL     1       5.574   3.342  19.331  0.00  0.00    +0.000 OA
ATOM     20  H2* UNL     1       5.019   2.745  18.794  0.00  0.00    +0.000 HD
ENDBRANCH   5  19
BRANCH   3  21
ATOM     21  C5* UNL     1       6.197   5.197  15.220  0.00  0.00    +0.000 C 
BRANCH  21  22
ATOM     22  O5* UNL     1       7.569   5.578  15.282  0.00  0.00    +0.000 OA
ATOM     23  H5* UNL     1       7.595   6.489  15.629  0.00  0.00    +0.000 HD
ENDBRANCH  21  22
ENDBRANCH   3  21
TORSDOF 6
ENDMDL
