MODEL 1
REMARK VINA RESULT:      -8.3      0.000      0.000
REMARK  Name = 
REMARK  5 active torsions:
REMARK  status: ('A' for Active; 'I' for Inactive)
REMARK    1  A    between atoms: C_4  and  O_5
REMARK    2  A    between atoms: O_5  and  C_6
REMARK    3  A    between atoms: C_6  and  C_7
REMARK    4  A    between atoms: N_9  and  C_10
REMARK    5  A    between atoms: C_10  and  C_11
REMARK                            x       y       z     vdW  Elec       q    Type
REMARK                         _______ _______ _______ _____ _____    ______ ____
ROOT
ATOM      1  C   UNL     1       2.132   5.242  19.720  0.00  0.00    +0.000 C 
ATOM      2  C   UNL     1       1.869   4.809  18.252  0.00  0.00    +0.000 C 
ATOM      3  N   UNL     1       1.734   3.350  17.999  0.00  0.00    +0.000 NA
ATOM      4  C   UNL     1       0.801   2.809  19.027  0.00  0.00    +0.000 C 
ATOM      5  C   UNL     1       1.085   3.262  20.475  0.00  0.00    +0.000 C 
ATOM      6  O   UNL     1       1.109   4.688  20.576  0.00  0.00    +0.000 OA
ENDROOT
BRANCH   1   7
ATOM      7  C   UNL     1       2.089   6.783  19.858  0.00  0.00    +0.000 C 
BRANCH   7   8
ATOM      8  O   UNL     1       1.372   7.153  21.049  0.00  0.00    +0.000 OA
BRANCH   8  12
ATOM      9  C   UNL     1      -0.014  11.096  21.010  0.00  0.00    +0.000 A 
ATOM     10  C   UNL     1       0.587  10.521  19.893  0.00  0.00    +0.000 A 
ATOM     11  C   UNL     1       1.049   9.201  19.952  0.00  0.00    +0.000 A 
ATOM     12  C   UNL     1       0.931   8.449  21.121  0.00  0.00    +0.000 A 
ATOM     13  C   UNL     1       0.327   9.028  22.239  0.00  0.00    +0.000 A 
ATOM     14  C   UNL     1      -0.147  10.346  22.182  0.00  0.00    +0.000 A 
ENDBRANCH   8  12
ENDBRANCH   7   8
ENDBRANCH   1   7
BRANCH   3  15
ATOM     15  C   UNL     1       2.997   2.574  17.993  0.00  0.00    +0.000 C 
BRANCH  15  16
ATOM     16  C   UNL     1       4.289   3.374  17.989  0.00  0.00    +0.000 A 
ATOM     17  N   UNL     1       4.986   3.416  19.141  0.00  0.00    +0.000 NA
ATOM     18  N   UNL     1       6.153   3.972  18.805  0.00  0.00    +0.000 N 
ATOM     19  C   UNL     1       6.277   4.287  17.483  0.00  0.00    +0.000 A 
ATOM     20  C   UNL     1       7.373   4.803  16.773  0.00  0.00    +0.000 A 
ATOM     21  C   UNL     1       7.200   5.061  15.414  0.00  0.00    +0.000 A 
ATOM     22  C   UNL     1       5.978   4.800  14.801  0.00  0.00    +0.000 A 
ATOM     23  C   UNL     1       4.906   4.240  15.530  0.00  0.00    +0.000 A 
ATOM     24  C   UNL     1       5.048   3.970  16.911  0.00  0.00    +0.000 A 
ATOM     25  H   UNL     1       6.853   4.090  19.527  0.00  0.00    +0.000 HD
ENDBRANCH  15  16
ENDBRANCH   3  15
TORSDOF 5
ENDMDL
MODEL 2
REMARK VINA RESULT:      -8.3      0.903      1.196
REMARK  Name = 
REMARK  5 active torsions:
REMARK  status: ('A' for Active; 'I' for Inactive)
REMARK    1  A    between atoms: C_4  and  O_5
REMARK    2  A    between atoms: O_5  and  C_6
REMARK    3  A    between atoms: C_6  and  C_7
REMARK    4  A    between atoms: N_9  and  C_10
REMARK    5  A    between atoms: C_10  and  C_11
REMARK                            x       y       z     vdW  Elec       q    Type
REMARK                         _______ _______ _______ _____ _____    ______ ____
ROOT
ATOM      1  C   UNL     1       1.960   4.659  20.025  0.00  0.00    +0.000 C 
ATOM      2  C   UNL     1       1.813   4.534  18.483  0.00  0.00    +0.000 C 
ATOM      3  N   UNL     1       1.766   3.157  17.926  0.00  0.00    +0.000 NA
ATOM      4  C   UNL     1       0.797   2.381  18.749  0.00  0.00    +0.000 C 
ATOM      5  C   UNL     1       0.964   2.531  20.276  0.00  0.00    +0.000 C 
ATOM      6  O   UNL     1       0.913   3.903  20.671  0.00  0.00    +0.000 OA
ENDROOT
BRANCH   1   7
ATOM      7  C   UNL     1       1.833   6.135  20.475  0.00  0.00    +0.000 C 
BRANCH   7   8
ATOM      8  O   UNL     1       2.417   7.004  19.489  0.00  0.00    +0.000 OA
BRANCH   8  12
ATOM      9  C   UNL     1       0.736  10.781  18.871  0.00  0.00    +0.000 A 
ATOM     10  C   UNL     1       1.512  10.157  17.897  0.00  0.00    +0.000 A 
ATOM     11  C   UNL     1       2.067   8.898  18.149  0.00  0.00    +0.000 A 
ATOM     12  C   UNL     1       1.868   8.255  19.372  0.00  0.00    +0.000 A 
ATOM     13  C   UNL     1       1.088   8.882  20.345  0.00  0.00    +0.000 A 
ATOM     14  C   UNL     1       0.522  10.139  20.094  0.00  0.00    +0.000 A 
ENDBRANCH   8  12
ENDBRANCH   7   8
ENDBRANCH   1   7
BRANCH   3  15
ATOM     15  C   UNL     1       3.064   2.443  17.852  0.00  0.00    +0.000 C 
BRANCH  15  16
ATOM     16  C   UNL     1       4.317   3.299  17.920  0.00  0.00    +0.000 A 
ATOM     17  N   UNL     1       4.977   3.324  19.094  0.00  0.00    +0.000 NA
ATOM     18  N   UNL     1       6.127   3.945  18.818  0.00  0.00    +0.000 N 
ATOM     19  C   UNL     1       6.276   4.320  17.514  0.00  0.00    +0.000 A 
ATOM     20  C   UNL     1       7.368   4.913  16.860  0.00  0.00    +0.000 A 
ATOM     21  C   UNL     1       7.223   5.219  15.508  0.00  0.00    +0.000 A 
ATOM     22  C   UNL     1       6.032   4.930  14.847  0.00  0.00    +0.000 A 
ATOM     23  C   UNL     1       4.966   4.293  15.519  0.00  0.00    +0.000 A 
ATOM     24  C   UNL     1       5.080   3.973  16.892  0.00  0.00    +0.000 A 
ATOM     25  H   UNL     1       6.799   4.063  19.565  0.00  0.00    +0.000 HD
ENDBRANCH  15  16
ENDBRANCH   3  15
TORSDOF 5
ENDMDL
MODEL 3
REMARK VINA RESULT:      -8.2      4.678      7.019
REMARK  Name = 
REMARK  5 active torsions:
REMARK  status: ('A' for Active; 'I' for Inactive)
REMARK    1  A    between atoms: C_4  and  O_5
REMARK    2  A    between atoms: O_5  and  C_6
REMARK    3  A    between atoms: C_6  and  C_7
REMARK    4  A    between atoms: N_9  and  C_10
REMARK    5  A    between atoms: C_10  and  C_11
REMARK                            x       y       z     vdW  Elec       q    Type
REMARK                         _______ _______ _______ _____ _____    ______ ____
ROOT
ATOM      1  C   UNL     1       7.517   7.371  17.611  0.00  0.00    +0.000 C 
ATOM      2  C   UNL     1       7.849   6.351  18.734  0.00  0.00    +0.000 C 
ATOM      3  N   UNL     1       7.024   5.115  18.781  0.00  0.00    +0.000 NA
ATOM      4  C   UNL     1       6.961   4.575  17.393  0.00  0.00    +0.000 C 
ATOM      5  C   UNL     1       6.635   5.613  16.299  0.00  0.00    +0.000 C 
ATOM      6  O   UNL     1       7.557   6.705  16.330  0.00  0.00    +0.000 OA
ENDROOT
BRANCH   1   7
ATOM      7  C   UNL     1       8.551   8.522  17.585  0.00  0.00    +0.000 C 
BRANCH   7   8
ATOM      8  O   UNL     1       8.028   9.672  18.272  0.00  0.00    +0.000 OA
BRANCH   8  12
ATOM      9  C   UNL     1      10.884  12.370  19.697  0.00  0.00    +0.000 A 
ATOM     10  C   UNL     1      10.299  11.418  20.528  0.00  0.00    +0.000 A 
ATOM     11  C   UNL     1       9.336  10.542  20.013  0.00  0.00    +0.000 A 
ATOM     12  C   UNL     1       8.939  10.612  18.677  0.00  0.00    +0.000 A 
ATOM     13  C   UNL     1       9.529  11.567  17.847  0.00  0.00    +0.000 A 
ATOM     14  C   UNL     1      10.501  12.440  18.354  0.00  0.00    +0.000 A 
ENDBRANCH   8  12
ENDBRANCH   7   8
ENDBRANCH   1   7
BRANCH   3  15
ATOM     15  C   UNL     1       5.657   5.268  19.334  0.00  0.00    +0.000 C 
BRANCH  15  16
ATOM     16  C   UNL     1       4.773   4.032  19.318  0.00  0.00    +0.000 A 
ATOM     17  N   UNL     1       5.206   2.962  20.013  0.00  0.00    +0.000 NA
ATOM     18  N   UNL     1       4.165   2.126  20.020  0.00  0.00    +0.000 N 
ATOM     19  C   UNL     1       3.053   2.590  19.381  0.00  0.00    +0.000 A 
ATOM     20  C   UNL     1       1.773   2.025  19.261  0.00  0.00    +0.000 A 
ATOM     21  C   UNL     1       0.827   2.721  18.510  0.00  0.00    +0.000 A 
ATOM     22  C   UNL     1       1.157   3.937  17.918  0.00  0.00    +0.000 A 
ATOM     23  C   UNL     1       2.439   4.503  18.092  0.00  0.00    +0.000 A 
ATOM     24  C   UNL     1       3.423   3.821  18.844  0.00  0.00    +0.000 A 
ATOM     25  H   UNL     1       4.262   1.245  20.510  0.00  0.00    +0.000 HD
ENDBRANCH  15  16
ENDBRANCH   3  15
TORSDOF 5
ENDMDL
MODEL 4
REMARK VINA RESULT:      -8.2      1.870      2.531
REMARK  Name = 
REMARK  5 active torsions:
REMARK  status: ('A' for Active; 'I' for Inactive)
REMARK    1  A    between atoms: C_4  and  O_5
REMARK    2  A    between atoms: O_5  and  C_6
REMARK    3  A    between atoms: C_6  and  C_7
REMARK    4  A    between atoms: N_9  and  C_10
REMARK    5  A    between atoms: C_10  and  C_11
REMARK                            x       y       z     vdW  Elec       q    Type
REMARK                         _______ _______ _______ _____ _____    ______ ____
ROOT
ATOM      1  C   UNL     1       2.502   4.463  19.618  0.00  0.00    +0.000 C 
ATOM      2  C   UNL     1       2.531   4.704  18.083  0.00  0.00    +0.000 C 
ATOM      3  N   UNL     1       2.991   3.571  17.237  0.00  0.00    +0.000 NA
ATOM      4  C   UNL     1       2.270   2.353  17.704  0.00  0.00    +0.000 C 
ATOM      5  C   UNL     1       2.253   2.144  19.233  0.00  0.00    +0.000 C 
ATOM      6  O   UNL     1       1.716   3.286  19.905  0.00  0.00    +0.000 OA
ENDROOT
BRANCH   1   7
ATOM      7  C   UNL     1       1.855   5.661  20.353  0.00  0.00    +0.000 C 
BRANCH   7   8
ATOM      8  O   UNL     1       2.617   6.858  20.114  0.00  0.00    +0.000 OA
BRANCH   8  12
ATOM      9  C   UNL     1       0.453  10.176  18.782  0.00  0.00    +0.000 A 
ATOM     10  C   UNL     1       1.305   9.471  17.936  0.00  0.00    +0.000 A 
ATOM     11  C   UNL     1       2.021   8.373  18.425  0.00  0.00    +0.000 A 
ATOM     12  C   UNL     1       1.908   7.976  19.759  0.00  0.00    +0.000 A 
ATOM     13  C   UNL     1       1.052   8.685  20.604  0.00  0.00    +0.000 A 
ATOM     14  C   UNL     1       0.325   9.778  20.116  0.00  0.00    +0.000 A 
ENDBRANCH   8  12
ENDBRANCH   7   8
ENDBRANCH   1   7
BRANCH   3  15
ATOM     15  C   UNL     1       4.453   3.327  17.219  0.00  0.00    +0.000 C 
BRANCH  15  16
ATOM     16  C   UNL     1       5.337   4.507  16.852  0.00  0.00    +0.000 A 
ATOM     17  N   UNL     1       5.045   5.155  15.707  0.00  0.00    +0.000 NA
ATOM     18  N   UNL     1       5.804   6.254  15.743  0.00  0.00    +0.000 N 
ATOM     19  C   UNL     1       6.574   6.381  16.862  0.00  0.00    +0.000 A 
ATOM     20  C   UNL     1       7.419   7.427  17.267  0.00  0.00    +0.000 A 
ATOM     21  C   UNL     1       8.117   7.267  18.464  0.00  0.00    +0.000 A 
ATOM     22  C   UNL     1       7.960   6.108  19.219  0.00  0.00    +0.000 A 
ATOM     23  C   UNL     1       7.070   5.091  18.808  0.00  0.00    +0.000 A 
ATOM     24  C   UNL     1       6.350   5.221  17.599  0.00  0.00    +0.000 A 
ATOM     25  H   UNL     1       5.735   6.909  14.975  0.00  0.00    +0.000 HD
ENDBRANCH  15  16
ENDBRANCH   3  15
TORSDOF 5
ENDMDL
MODEL 5
REMARK VINA RESULT:      -8.2      1.369      1.888
REMARK  Name = 
REMARK  5 active torsions:
REMARK  status: ('A' for Active; 'I' for Inactive)
REMARK    1  A    between atoms: C_4  and  O_5
REMARK    2  A    between atoms: O_5  and  C_6
REMARK    3  A    between atoms: C_6  and  C_7
REMARK    4  A    between atoms: N_9  and  C_10
REMARK    5  A    between atoms: C_10  and  C_11
REMARK                            x       y       z     vdW  Elec       q    Type
REMARK                         _______ _______ _______ _____ _____    ______ ____
ROOT
ATOM      1  C   UNL     1       1.893   4.572  20.060  0.00  0.00    +0.000 C 
ATOM      2  C   UNL     1       1.553   4.557  18.544  0.00  0.00    +0.000 C 
ATOM      3  N   UNL     1       1.652   3.246  17.850  0.00  0.00    +0.000 NA
ATOM      4  C   UNL     1       0.946   2.245  18.697  0.00  0.00    +0.000 C 
ATOM      5  C   UNL     1       1.299   2.289  20.199  0.00  0.00    +0.000 C 
ATOM      6  O   UNL     1       1.082   3.592  20.744  0.00  0.00    +0.000 OA
ENDROOT
BRANCH   1   7
ATOM      7  C   UNL     1       1.593   5.958  20.680  0.00  0.00    +0.000 C 
BRANCH   7   8
ATOM      8  O   UNL     1       2.504   6.941  20.158  0.00  0.00    +0.000 OA
BRANCH   8  12
ATOM      9  C   UNL     1       0.785  10.420  18.606  0.00  0.00    +0.000 A 
ATOM     10  C   UNL     1       0.546  10.008  19.914  0.00  0.00    +0.000 A 
ATOM     11  C   UNL     1       1.132   8.829  20.391  0.00  0.00    +0.000 A 
ATOM     12  C   UNL     1       1.945   8.046  19.570  0.00  0.00    +0.000 A 
ATOM     13  C   UNL     1       2.183   8.464  18.259  0.00  0.00    +0.000 A 
ATOM     14  C   UNL     1       1.608   9.648  17.780  0.00  0.00    +0.000 A 
ENDBRANCH   8  12
ENDBRANCH   7   8
ENDBRANCH   1   7
BRANCH   3  15
ATOM     15  C   UNL     1       3.025   2.779  17.540  0.00  0.00    +0.000 C 
BRANCH  15  16
ATOM     16  C   UNL     1       4.169   3.590  18.124  0.00  0.00    +0.000 A 
ATOM     17  N   UNL     1       4.843   3.043  19.154  0.00  0.00    +0.000 NA
ATOM     18  N   UNL     1       5.906   3.835  19.316  0.00  0.00    +0.000 N 
ATOM     19  C   UNL     1       5.986   4.873  18.434  0.00  0.00    +0.000 A 
ATOM     20  C   UNL     1       6.988   5.841  18.262  0.00  0.00    +0.000 A 
ATOM     21  C   UNL     1       6.784   6.816  17.287  0.00  0.00    +0.000 A 
ATOM     22  C   UNL     1       5.624   6.807  16.516  0.00  0.00    +0.000 A 
ATOM     23  C   UNL     1       4.653   5.795  16.682  0.00  0.00    +0.000 A 
ATOM     24  C   UNL     1       4.828   4.794  17.664  0.00  0.00    +0.000 A 
ATOM     25  H   UNL     1       6.572   3.600  20.041  0.00  0.00    +0.000 HD
ENDBRANCH  15  16
ENDBRANCH   3  15
TORSDOF 5
ENDMDL
MODEL 6
REMARK VINA RESULT:      -8.1      4.767      7.136
REMARK  Name = 
REMARK  5 active torsions:
REMARK  status: ('A' for Active; 'I' for Inactive)
REMARK    1  A    between atoms: C_4  and  O_5
REMARK    2  A    between atoms: O_5  and  C_6
REMARK    3  A    between atoms: C_6  and  C_7
REMARK    4  A    between atoms: N_9  and  C_10
REMARK    5  A    between atoms: C_10  and  C_11
REMARK                            x       y       z     vdW  Elec       q    Type
REMARK                         _______ _______ _______ _____ _____    ______ ____
ROOT
ATOM      1  C   UNL     1       7.519   7.494  17.536  0.00  0.00    +0.000 C 
ATOM      2  C   UNL     1       7.638   6.538  18.756  0.00  0.00    +0.000 C 
ATOM      3  N   UNL     1       6.830   5.292  18.710  0.00  0.00    +0.000 NA
ATOM      4  C   UNL     1       7.039   4.681  17.367  0.00  0.00    +0.000 C 
ATOM      5  C   UNL     1       6.920   5.656  16.176  0.00  0.00    +0.000 C 
ATOM      6  O   UNL     1       7.810   6.764  16.324  0.00  0.00    +0.000 OA
ENDROOT
BRANCH   1   7
ATOM      7  C   UNL     1       8.529   8.661  17.648  0.00  0.00    +0.000 C 
BRANCH   7   8
ATOM      8  O   UNL     1       8.742   9.000  19.029  0.00  0.00    +0.000 OA
BRANCH   8  12
ATOM      9  C   UNL     1      10.307  12.839  19.564  0.00  0.00    +0.000 A 
ATOM     10  C   UNL     1      10.114  12.298  18.295  0.00  0.00    +0.000 A 
ATOM     11  C   UNL     1       9.600  11.004  18.160  0.00  0.00    +0.000 A 
ATOM     12  C   UNL     1       9.286  10.233  19.281  0.00  0.00    +0.000 A 
ATOM     13  C   UNL     1       9.480  10.779  20.551  0.00  0.00    +0.000 A 
ATOM     14  C   UNL     1       9.985  12.078  20.692  0.00  0.00    +0.000 A 
ENDBRANCH   8  12
ENDBRANCH   7   8
ENDBRANCH   1   7
BRANCH   3  15
ATOM     15  C   UNL     1       5.381   5.447  18.983  0.00  0.00    +0.000 C 
BRANCH  15  16
ATOM     16  C   UNL     1       4.634   4.201  19.428  0.00  0.00    +0.000 A 
ATOM     17  N   UNL     1       5.370   3.095  19.652  0.00  0.00    +0.000 NA
ATOM     18  N   UNL     1       4.523   2.243  20.236  0.00  0.00    +0.000 N 
ATOM     19  C   UNL     1       3.263   2.731  20.430  0.00  0.00    +0.000 A 
ATOM     20  C   UNL     1       2.156   2.154  21.073  0.00  0.00    +0.000 A 
ATOM     21  C   UNL     1       0.968   2.883  21.092  0.00  0.00    +0.000 A 
ATOM     22  C   UNL     1       0.906   4.140  20.497  0.00  0.00    +0.000 A 
ATOM     23  C   UNL     1       2.047   4.714  19.895  0.00  0.00    +0.000 A 
ATOM     24  C   UNL     1       3.267   4.000  19.855  0.00  0.00    +0.000 A 
ATOM     25  H   UNL     1       4.872   1.334  20.512  0.00  0.00    +0.000 HD
ENDBRANCH  15  16
ENDBRANCH   3  15
TORSDOF 5
ENDMDL
MODEL 7
REMARK VINA RESULT:      -8.1      4.512      7.237
REMARK  Name = 
REMARK  5 active torsions:
REMARK  status: ('A' for Active; 'I' for Inactive)
REMARK    1  A    between atoms: C_4  and  O_5
REMARK    2  A    between atoms: O_5  and  C_6
REMARK    3  A    between atoms: C_6  and  C_7
REMARK    4  A    between atoms: N_9  and  C_10
REMARK    5  A    between atoms: C_10  and  C_11
REMARK                            x       y       z     vdW  Elec       q    Type
REMARK                         _______ _______ _______ _____ _____    ______ ____
ROOT
ATOM      1  C   UNL     1       7.244   7.123  17.506  0.00  0.00    +0.000 C 
ATOM      2  C   UNL     1       6.735   5.960  18.401  0.00  0.00    +0.000 C 
ATOM      3  N   UNL     1       5.828   4.972  17.761  0.00  0.00    +0.000 NA
ATOM      4  C   UNL     1       6.444   4.587  16.460  0.00  0.00    +0.000 C 
ATOM      5  C   UNL     1       6.945   5.764  15.596  0.00  0.00    +0.000 C 
ATOM      6  O   UNL     1       7.866   6.581  16.321  0.00  0.00    +0.000 OA
ENDROOT
BRANCH   1   7
ATOM      7  C   UNL     1       8.298   7.975  18.254  0.00  0.00    +0.000 C 
BRANCH   7   8
ATOM      8  O   UNL     1       8.077   9.373  17.996  0.00  0.00    +0.000 OA
BRANCH   8  12
ATOM      9  C   UNL     1      10.963  11.882  19.683  0.00  0.00    +0.000 A 
ATOM     10  C   UNL     1      10.058  11.175  20.471  0.00  0.00    +0.000 A 
ATOM     11  C   UNL     1       9.099  10.356  19.865  0.00  0.00    +0.000 A 
ATOM     12  C   UNL     1       9.022  10.242  18.477  0.00  0.00    +0.000 A 
ATOM     13  C   UNL     1       9.933  10.951  17.690  0.00  0.00    +0.000 A 
ATOM     14  C   UNL     1      10.901  11.765  18.291  0.00  0.00    +0.000 A 
ENDBRANCH   8  12
ENDBRANCH   7   8
ENDBRANCH   1   7
BRANCH   3  15
ATOM     15  C   UNL     1       4.428   5.415  17.554  0.00  0.00    +0.000 C 
BRANCH  15  16
ATOM     16  C   UNL     1       3.337   4.430  17.940  0.00  0.00    +0.000 A 
ATOM     17  N   UNL     1       2.958   3.540  17.004  0.00  0.00    +0.000 NA
ATOM     18  N   UNL     1       2.180   2.675  17.660  0.00  0.00    +0.000 N 
ATOM     19  C   UNL     1       2.035   2.933  18.992  0.00  0.00    +0.000 A 
ATOM     20  C   UNL     1       1.366   2.205  19.989  0.00  0.00    +0.000 A 
ATOM     21  C   UNL     1       1.357   2.734  21.279  0.00  0.00    +0.000 A 
ATOM     22  C   UNL     1       2.001   3.938  21.549  0.00  0.00    +0.000 A 
ATOM     23  C   UNL     1       2.703   4.627  20.535  0.00  0.00    +0.000 A 
ATOM     24  C   UNL     1       2.729   4.120  19.216  0.00  0.00    +0.000 A 
ATOM     25  H   UNL     1       1.789   1.897  17.145  0.00  0.00    +0.000 HD
ENDBRANCH  15  16
ENDBRANCH   3  15
TORSDOF 5
ENDMDL
MODEL 8
REMARK VINA RESULT:      -8.0      4.540      7.107
REMARK  Name = 
REMARK  5 active torsions:
REMARK  status: ('A' for Active; 'I' for Inactive)
REMARK    1  A    between atoms: C_4  and  O_5
REMARK    2  A    between atoms: O_5  and  C_6
REMARK    3  A    between atoms: C_6  and  C_7
REMARK    4  A    between atoms: N_9  and  C_10
REMARK    5  A    between atoms: C_10  and  C_11
REMARK                            x       y       z     vdW  Elec       q    Type
REMARK                         _______ _______ _______ _____ _____    ______ ____
ROOT
ATOM      1  C   UNL     1       7.041   6.974  17.467  0.00  0.00    +0.000 C 
ATOM      2  C   UNL     1       6.333   5.947  18.394  0.00  0.00    +0.000 C 
ATOM      3  N   UNL     1       5.409   4.983  17.742  0.00  0.00    +0.000 NA
ATOM      4  C   UNL     1       6.120   4.425  16.557  0.00  0.00    +0.000 C 
ATOM      5  C   UNL     1       6.818   5.468  15.659  0.00  0.00    +0.000 C 
ATOM      6  O   UNL     1       7.730   6.271  16.411  0.00  0.00    +0.000 OA
ENDROOT
BRANCH   1   7
ATOM      7  C   UNL     1       8.085   7.801  18.254  0.00  0.00    +0.000 C 
BRANCH   7   8
ATOM      8  O   UNL     1       8.120   9.152  17.761  0.00  0.00    +0.000 OA
BRANCH   8  12
ATOM      9  C   UNL     1      10.527  12.009  19.635  0.00  0.00    +0.000 A 
ATOM     10  C   UNL     1      10.389  11.964  18.249  0.00  0.00    +0.000 A 
ATOM     11  C   UNL     1       9.583  10.982  17.661  0.00  0.00    +0.000 A 
ATOM     12  C   UNL     1       8.921  10.033  18.441  0.00  0.00    +0.000 A 
ATOM     13  C   UNL     1       9.061  10.082  19.829  0.00  0.00    +0.000 A 
ATOM     14  C   UNL     1       9.859  11.068  20.424  0.00  0.00    +0.000 A 
ENDBRANCH   8  12
ENDBRANCH   7   8
ENDBRANCH   1   7
BRANCH   3  15
ATOM     15  C   UNL     1       4.087   5.521  17.341  0.00  0.00    +0.000 C 
BRANCH  15  16
ATOM     16  C   UNL     1       3.188   6.023  18.458  0.00  0.00    +0.000 A 
ATOM     17  N   UNL     1       3.186   5.316  19.605  0.00  0.00    +0.000 NA
ATOM     18  N   UNL     1       2.512   6.081  20.468  0.00  0.00    +0.000 N 
ATOM     19  C   UNL     1       2.080   7.272  19.960  0.00  0.00    +0.000 A 
ATOM     20  C   UNL     1       1.422   8.340  20.590  0.00  0.00    +0.000 A 
ATOM     21  C   UNL     1       1.067   9.435  19.803  0.00  0.00    +0.000 A 
ATOM     22  C   UNL     1       1.373   9.451  18.444  0.00  0.00    +0.000 A 
ATOM     23  C   UNL     1       2.076   8.381  17.847  0.00  0.00    +0.000 A 
ATOM     24  C   UNL     1       2.446   7.255  18.617  0.00  0.00    +0.000 A 
ATOM     25  H   UNL     1       2.399   5.747  21.417  0.00  0.00    +0.000 HD
ENDBRANCH  15  16
ENDBRANCH   3  15
TORSDOF 5
ENDMDL
MODEL 9
REMARK VINA RESULT:      -8.0      2.137      4.888
REMARK  Name = 
REMARK  5 active torsions:
REMARK  status: ('A' for Active; 'I' for Inactive)
REMARK    1  A    between atoms: C_4  and  O_5
REMARK    2  A    between atoms: O_5  and  C_6
REMARK    3  A    between atoms: C_6  and  C_7
REMARK    4  A    between atoms: N_9  and  C_10
REMARK    5  A    between atoms: C_10  and  C_11
REMARK                            x       y       z     vdW  Elec       q    Type
REMARK                         _______ _______ _______ _____ _____    ______ ____
ROOT
ATOM      1  C   UNL     1       4.503   6.453  16.776  0.00  0.00    +0.000 C 
ATOM      2  C   UNL     1       5.218   5.537  17.809  0.00  0.00    +0.000 C 
ATOM      3  N   UNL     1       5.690   4.217  17.317  0.00  0.00    +0.000 NA
ATOM      4  C   UNL     1       6.409   4.456  16.033  0.00  0.00    +0.000 C 
ATOM      5  C   UNL     1       5.677   5.374  15.032  0.00  0.00    +0.000 C 
ATOM      6  O   UNL     1       5.355   6.634  15.624  0.00  0.00    +0.000 OA
ENDROOT
BRANCH   1   7
ATOM      7  C   UNL     1       4.214   7.848  17.382  0.00  0.00    +0.000 C 
BRANCH   7   8
ATOM      8  O   UNL     1       2.795   8.069  17.458  0.00  0.00    +0.000 OA
BRANCH   8  12
ATOM      9  C   UNL     1       0.907   8.173  21.185  0.00  0.00    +0.000 A 
ATOM     10  C   UNL     1       0.827   9.241  20.295  0.00  0.00    +0.000 A 
ATOM     11  C   UNL     1       1.485   9.171  19.061  0.00  0.00    +0.000 A 
ATOM     12  C   UNL     1       2.236   8.049  18.709  0.00  0.00    +0.000 A 
ATOM     13  C   UNL     1       2.314   6.980  19.604  0.00  0.00    +0.000 A 
ATOM     14  C   UNL     1       1.649   7.041  20.836  0.00  0.00    +0.000 A 
ENDBRANCH   8  12
ENDBRANCH   7   8
ENDBRANCH   1   7
BRANCH   3  15
ATOM     15  C   UNL     1       4.644   3.181  17.134  0.00  0.00    +0.000 C 
BRANCH  15  16
ATOM     16  C   UNL     1       3.316   3.424  17.831  0.00  0.00    +0.000 A 
ATOM     17  N   UNL     1       2.257   3.704  17.047  0.00  0.00    +0.000 NA
ATOM     18  N   UNL     1       1.207   3.645  17.871  0.00  0.00    +0.000 N 
ATOM     19  C   UNL     1       1.510   3.321  19.161  0.00  0.00    +0.000 A 
ATOM     20  C   UNL     1       0.667   3.096  20.261  0.00  0.00    +0.000 A 
ATOM     21  C   UNL     1       1.266   2.808  21.487  0.00  0.00    +0.000 A 
ATOM     22  C   UNL     1       2.653   2.742  21.592  0.00  0.00    +0.000 A 
ATOM     23  C   UNL     1       3.475   2.930  20.458  0.00  0.00    +0.000 A 
ATOM     24  C   UNL     1       2.899   3.227  19.202  0.00  0.00    +0.000 A 
ATOM     25  H   UNL     1       0.286   3.809  17.485  0.00  0.00    +0.000 HD
ENDBRANCH  15  16
ENDBRANCH   3  15
TORSDOF 5
ENDMDL
