MODEL 1
REMARK VINA RESULT:      -8.4      0.000      0.000
REMARK  Name = 
REMARK  5 active torsions:
REMARK  status: ('A' for Active; 'I' for Inactive)
REMARK    1  A    between atoms: C_1  and  O_2
REMARK    2  A    between atoms: O_2  and  C_3
REMARK    3  A    between atoms: C_6  and  C_7
REMARK    4  A    between atoms: C_15  and  C_16
REMARK    5  A    between atoms: C_22  and  C_23
REMARK                            x       y       z     vdW  Elec       q    Type
REMARK                         _______ _______ _______ _____ _____    ______ ____
ROOT
ATOM      1  C   UNL     1       3.757   3.632  17.371  0.00  0.00    +0.000 C 
ATOM      2  C   UNL     1       2.490   3.666  18.651  0.00  0.00    +0.000 A 
ATOM      3  C   UNL     1       1.226   3.091  18.448  0.00  0.00    +0.000 A 
ATOM      4  C   UNL     1       0.368   2.789  19.560  0.00  0.00    +0.000 A 
ATOM      5  C   UNL     1       0.721   3.019  20.904  0.00  0.00    +0.000 A 
ATOM      6  C   UNL     1       1.939   3.595  21.173  0.00  0.00    +0.000 A 
ATOM      7  C   UNL     1       2.789   3.897  20.102  0.00  0.00    +0.000 A 
ATOM      8  N   UNL     1       4.057   4.425  20.525  0.00  0.00    +0.000 N 
ATOM      9  C   UNL     1       4.552   4.815  19.249  0.00  0.00    +0.000 C 
ATOM     10  C   UNL     1       4.689   3.275  18.469  0.00  0.00    +0.000 C 
ATOM     11  C   UNL     1       4.270   1.745  18.694  0.00  0.00    +0.000 C 
ATOM     12  H   UNL     1       4.607   3.696  20.969  0.00  0.00    +0.000 HD
ENDROOT
BRANCH   1  16
ATOM     13  C   UNL     1       7.153   5.090  14.681  0.00  0.00    +0.000 A 
ATOM     14  C   UNL     1       5.832   4.972  14.273  0.00  0.00    +0.000 A 
ATOM     15  C   UNL     1       4.801   4.682  15.201  0.00  0.00    +0.000 A 
ATOM     16  C   UNL     1       5.040   4.382  16.582  0.00  0.00    +0.000 A 
ATOM     17  C   UNL     1       6.406   4.535  16.937  0.00  0.00    +0.000 A 
ATOM     18  C   UNL     1       7.438   4.868  16.017  0.00  0.00    +0.000 A 
BRANCH  13  20
ATOM     19  C   UNL     1       7.683   5.059  12.379  0.00  0.00    +0.000 C 
ATOM     20  O   UNL     1       8.078   5.372  13.715  0.00  0.00    +0.000 OA
ENDBRANCH  13  20
ENDBRANCH   1  16
BRANCH   9  21
ATOM     21  C   UNL     1       3.535   6.133  18.795  0.00  0.00    +0.000 A 
ATOM     22  C   UNL     1       3.841   6.836  17.637  0.00  0.00    +0.000 A 
ATOM     23  C   UNL     1       3.189   8.052  17.330  0.00  0.00    +0.000 A 
ATOM     24  C   UNL     1       2.177   8.583  18.153  0.00  0.00    +0.000 A 
ATOM     25  C   UNL     1       1.797   7.886  19.283  0.00  0.00    +0.000 A 
ATOM     26  C   UNL     1       2.471   6.719  19.600  0.00  0.00    +0.000 A 
ENDBRANCH   9  21
TORSDOF 3
ENDMDL
MODEL 2
REMARK VINA RESULT:      -7.7      0.373      1.014
REMARK  Name = 
REMARK  5 active torsions:
REMARK  status: ('A' for Active; 'I' for Inactive)
REMARK    1  A    between atoms: C_1  and  O_2
REMARK    2  A    between atoms: O_2  and  C_3
REMARK    3  A    between atoms: C_6  and  C_7
REMARK    4  A    between atoms: C_15  and  C_16
REMARK    5  A    between atoms: C_22  and  C_23
REMARK                            x       y       z     vdW  Elec       q    Type
REMARK                         _______ _______ _______ _____ _____    ______ ____
ROOT
ATOM      1  C   UNL     1       3.696   3.686  17.170  0.00  0.00    +0.000 C 
ATOM      2  C   UNL     1       2.491   3.662  18.509  0.00  0.00    +0.000 A 
ATOM      3  C   UNL     1       1.158   3.279  18.290  0.00  0.00    +0.000 A 
ATOM      4  C   UNL     1       0.311   2.906  19.388  0.00  0.00    +0.000 A 
ATOM      5  C   UNL     1       0.739   2.875  20.730  0.00  0.00    +0.000 A 
ATOM      6  C   UNL     1       2.027   3.255  21.017  0.00  0.00    +0.000 A 
ATOM      7  C   UNL     1       2.868   3.623  19.959  0.00  0.00    +0.000 A 
ATOM      8  N   UNL     1       4.207   3.925  20.388  0.00  0.00    +0.000 N 
ATOM      9  C   UNL     1       4.699   4.453  19.162  0.00  0.00    +0.000 C 
ATOM     10  C   UNL     1       4.616   3.053  18.147  0.00  0.00    +0.000 C 
ATOM     11  C   UNL     1       4.020   1.565  18.157  0.00  0.00    +0.000 C 
ATOM     12  H   UNL     1       4.677   3.076  20.683  0.00  0.00    +0.000 HD
ENDROOT
BRANCH   1  16
ATOM     13  C   UNL     1       7.206   5.080  14.595  0.00  0.00    +0.000 A 
ATOM     14  C   UNL     1       5.884   5.071  14.173  0.00  0.00    +0.000 A 
ATOM     15  C   UNL     1       4.827   4.794  15.074  0.00  0.00    +0.000 A 
ATOM     16  C   UNL     1       5.032   4.397  16.436  0.00  0.00    +0.000 A 
ATOM     17  C   UNL     1       6.401   4.442  16.810  0.00  0.00    +0.000 A 
ATOM     18  C   UNL     1       7.462   4.762  15.918  0.00  0.00    +0.000 A 
BRANCH  13  20
ATOM     19  C   UNL     1       7.750   5.176  12.299  0.00  0.00    +0.000 C 
ATOM     20  O   UNL     1       8.158   5.359  13.654  0.00  0.00    +0.000 OA
ENDBRANCH  13  20
ENDBRANCH   1  16
BRANCH   9  21
ATOM     21  C   UNL     1       3.838   5.937  18.973  0.00  0.00    +0.000 A 
ATOM     22  C   UNL     1       2.959   6.324  19.976  0.00  0.00    +0.000 A 
ATOM     23  C   UNL     1       2.066   7.403  19.785  0.00  0.00    +0.000 A 
ATOM     24  C   UNL     1       2.054   8.158  18.596  0.00  0.00    +0.000 A 
ATOM     25  C   UNL     1       2.953   7.847  17.595  0.00  0.00    +0.000 A 
ATOM     26  C   UNL     1       3.794   6.761  17.773  0.00  0.00    +0.000 A 
ENDBRANCH   9  21
TORSDOF 3
ENDMDL
MODEL 3
REMARK VINA RESULT:      -7.6      2.735      5.643
REMARK  Name = 
REMARK  5 active torsions:
REMARK  status: ('A' for Active; 'I' for Inactive)
REMARK    1  A    between atoms: C_1  and  O_2
REMARK    2  A    between atoms: O_2  and  C_3
REMARK    3  A    between atoms: C_6  and  C_7
REMARK    4  A    between atoms: C_15  and  C_16
REMARK    5  A    between atoms: C_22  and  C_23
REMARK                            x       y       z     vdW  Elec       q    Type
REMARK                         _______ _______ _______ _____ _____    ______ ____
ROOT
ATOM      1  C   UNL     1       2.777   5.395  20.001  0.00  0.00    +0.000 C 
ATOM      2  C   UNL     1       3.543   3.835  19.525  0.00  0.00    +0.000 A 
ATOM      3  C   UNL     1       4.164   3.004  20.471  0.00  0.00    +0.000 A 
ATOM      4  C   UNL     1       4.435   1.626  20.172  0.00  0.00    +0.000 A 
ATOM      5  C   UNL     1       4.095   1.009  18.953  0.00  0.00    +0.000 A 
ATOM      6  C   UNL     1       3.499   1.770  17.977  0.00  0.00    +0.000 A 
ATOM      7  C   UNL     1       3.227   3.116  18.250  0.00  0.00    +0.000 A 
ATOM      8  N   UNL     1       2.537   3.777  17.174  0.00  0.00    +0.000 N 
ATOM      9  C   UNL     1       2.622   5.109  17.666  0.00  0.00    +0.000 C 
ATOM     10  C   UNL     1       1.667   4.987  19.105  0.00  0.00    +0.000 C 
ATOM     11  C   UNL     1       0.972   3.873  20.024  0.00  0.00    +0.000 C 
ATOM     12  H   UNL     1       1.586   3.428  17.105  0.00  0.00    +0.000 HD
ENDROOT
BRANCH   1  16
ATOM     13  C   UNL     1       1.046   9.555  19.231  0.00  0.00    +0.000 A 
ATOM     14  C   UNL     1       0.988   8.901  20.454  0.00  0.00    +0.000 A 
ATOM     15  C   UNL     1       1.694   7.692  20.673  0.00  0.00    +0.000 A 
ATOM     16  C   UNL     1       2.417   7.000  19.647  0.00  0.00    +0.000 A 
ATOM     17  C   UNL     1       2.451   7.728  18.428  0.00  0.00    +0.000 A 
ATOM     18  C   UNL     1       1.779   8.963  18.217  0.00  0.00    +0.000 A 
BRANCH  13  20
ATOM     19  C   UNL     1      -0.889  10.611  18.382  0.00  0.00    +0.000 C 
ATOM     20  O   UNL     1       0.333  10.715  19.113  0.00  0.00    +0.000 OA
ENDBRANCH  13  20
ENDBRANCH   1  16
BRANCH   9  21
ATOM     21  C   UNL     1       4.302   5.488  17.551  0.00  0.00    +0.000 A 
ATOM     22  C   UNL     1       4.878   5.565  16.290  0.00  0.00    +0.000 A 
ATOM     23  C   UNL     1       6.281   5.651  16.135  0.00  0.00    +0.000 A 
ATOM     24  C   UNL     1       7.150   5.705  17.242  0.00  0.00    +0.000 A 
ATOM     25  C   UNL     1       6.617   5.692  18.515  0.00  0.00    +0.000 A 
ATOM     26  C   UNL     1       5.246   5.564  18.658  0.00  0.00    +0.000 A 
ENDBRANCH   9  21
TORSDOF 3
ENDMDL
MODEL 4
REMARK VINA RESULT:      -7.3      2.031      2.608
REMARK  Name = 
REMARK  5 active torsions:
REMARK  status: ('A' for Active; 'I' for Inactive)
REMARK    1  A    between atoms: C_1  and  O_2
REMARK    2  A    between atoms: O_2  and  C_3
REMARK    3  A    between atoms: C_6  and  C_7
REMARK    4  A    between atoms: C_15  and  C_16
REMARK    5  A    between atoms: C_22  and  C_23
REMARK                            x       y       z     vdW  Elec       q    Type
REMARK                         _______ _______ _______ _____ _____    ______ ____
ROOT
ATOM      1  C   UNL     1       4.239   4.313  17.858  0.00  0.00    +0.000 C 
ATOM      2  C   UNL     1       2.602   4.012  18.547  0.00  0.00    +0.000 A 
ATOM      3  C   UNL     1       1.622   3.309  17.828  0.00  0.00    +0.000 A 
ATOM      4  C   UNL     1       0.478   2.755  18.496  0.00  0.00    +0.000 A 
ATOM      5  C   UNL     1       0.261   2.849  19.885  0.00  0.00    +0.000 A 
ATOM      6  C   UNL     1       1.174   3.538  20.645  0.00  0.00    +0.000 A 
ATOM      7  C   UNL     1       2.296   4.087  20.012  0.00  0.00    +0.000 A 
ATOM      8  N   UNL     1       3.206   4.716  20.930  0.00  0.00    +0.000 N 
ATOM      9  C   UNL     1       4.064   5.331  19.978  0.00  0.00    +0.000 C 
ATOM     10  C   UNL     1       4.743   3.939  19.203  0.00  0.00    +0.000 C 
ATOM     11  C   UNL     1       4.539   2.351  19.138  0.00  0.00    +0.000 C 
ATOM     12  H   UNL     1       3.667   4.012  21.499  0.00  0.00    +0.000 HD
ENDROOT
BRANCH   1  16
ATOM     13  C   UNL     1       7.729   7.250  18.149  0.00  0.00    +0.000 A 
ATOM     14  C   UNL     1       7.585   6.129  18.954  0.00  0.00    +0.000 A 
ATOM     15  C   UNL     1       6.577   5.167  18.698  0.00  0.00    +0.000 A 
ATOM     16  C   UNL     1       5.575   5.321  17.684  0.00  0.00    +0.000 A 
ATOM     17  C   UNL     1       5.787   6.477  16.889  0.00  0.00    +0.000 A 
ATOM     18  C   UNL     1       6.825   7.423  17.116  0.00  0.00    +0.000 A 
BRANCH  13  20
ATOM     19  C   UNL     1       8.452   9.499  18.212  0.00  0.00    +0.000 C 
ATOM     20  O   UNL     1       8.731   8.123  18.473  0.00  0.00    +0.000 OA
ENDBRANCH  13  20
ENDBRANCH   1  16
BRANCH   9  21
ATOM     21  C   UNL     1       3.081   6.554  19.261  0.00  0.00    +0.000 A 
ATOM     22  C   UNL     1       3.334   6.921  17.946  0.00  0.00    +0.000 A 
ATOM     23  C   UNL     1       2.718   8.059  17.376  0.00  0.00    +0.000 A 
ATOM     24  C   UNL     1       1.794   8.844  18.094  0.00  0.00    +0.000 A 
ATOM     25  C   UNL     1       1.466   8.480  19.385  0.00  0.00    +0.000 A 
ATOM     26  C   UNL     1       2.106   7.390  19.950  0.00  0.00    +0.000 A 
ENDBRANCH   9  21
TORSDOF 3
ENDMDL
MODEL 5
REMARK VINA RESULT:      -7.2      0.621      1.115
REMARK  Name = 
REMARK  5 active torsions:
REMARK  status: ('A' for Active; 'I' for Inactive)
REMARK    1  A    between atoms: C_1  and  O_2
REMARK    2  A    between atoms: O_2  and  C_3
REMARK    3  A    between atoms: C_6  and  C_7
REMARK    4  A    between atoms: C_15  and  C_16
REMARK    5  A    between atoms: C_22  and  C_23
REMARK                            x       y       z     vdW  Elec       q    Type
REMARK                         _______ _______ _______ _____ _____    ______ ____
ROOT
ATOM      1  C   UNL     1       3.471   3.216  17.132  0.00  0.00    +0.000 C 
ATOM      2  C   UNL     1       2.499   3.516  18.619  0.00  0.00    +0.000 A 
ATOM      3  C   UNL     1       1.154   3.124  18.708  0.00  0.00    +0.000 A 
ATOM      4  C   UNL     1       0.501   3.022  19.983  0.00  0.00    +0.000 A 
ATOM      5  C   UNL     1       1.141   3.278  21.211  0.00  0.00    +0.000 A 
ATOM      6  C   UNL     1       2.454   3.682  21.195  0.00  0.00    +0.000 A 
ATOM      7  C   UNL     1       3.107   3.788  19.961  0.00  0.00    +0.000 A 
ATOM      8  N   UNL     1       4.494   4.146  20.091  0.00  0.00    +0.000 N 
ATOM      9  C   UNL     1       4.773   4.379  18.716  0.00  0.00    +0.000 C 
ATOM     10  C   UNL     1       4.545   2.792  18.063  0.00  0.00    +0.000 C 
ATOM     11  C   UNL     1       3.978   1.358  18.497  0.00  0.00    +0.000 C 
ATOM     12  H   UNL     1       5.017   3.372  20.487  0.00  0.00    +0.000 HD
ENDROOT
BRANCH   1  16
ATOM     13  C   UNL     1       6.961   5.034  14.806  0.00  0.00    +0.000 A 
ATOM     14  C   UNL     1       7.101   4.305  15.978  0.00  0.00    +0.000 A 
ATOM     15  C   UNL     1       6.001   3.622  16.554  0.00  0.00    +0.000 A 
ATOM     16  C   UNL     1       4.661   3.716  16.053  0.00  0.00    +0.000 A 
ATOM     17  C   UNL     1       4.588   4.462  14.847  0.00  0.00    +0.000 A 
ATOM     18  C   UNL     1       5.699   5.112  14.242  0.00  0.00    +0.000 A 
BRANCH  13  20
ATOM     19  C   UNL     1       8.246   5.606  12.908  0.00  0.00    +0.000 C 
ATOM     20  O   UNL     1       8.078   5.658  14.325  0.00  0.00    +0.000 OA
ENDBRANCH  13  20
ENDBRANCH   1  16
BRANCH   9  21
ATOM     21  C   UNL     1       3.874   5.804  18.344  0.00  0.00    +0.000 A 
ATOM     22  C   UNL     1       4.346   6.642  17.343  0.00  0.00    +0.000 A 
ATOM     23  C   UNL     1       3.785   7.925  17.143  0.00  0.00    +0.000 A 
ATOM     24  C   UNL     1       2.703   8.393  17.913  0.00  0.00    +0.000 A 
ATOM     25  C   UNL     1       2.161   7.568  18.880  0.00  0.00    +0.000 A 
ATOM     26  C   UNL     1       2.744   6.332  19.099  0.00  0.00    +0.000 A 
ENDBRANCH   9  21
TORSDOF 3
ENDMDL
MODEL 6
REMARK VINA RESULT:      -7.0      2.703      6.464
REMARK  Name = 
REMARK  5 active torsions:
REMARK  status: ('A' for Active; 'I' for Inactive)
REMARK    1  A    between atoms: C_1  and  O_2
REMARK    2  A    between atoms: O_2  and  C_3
REMARK    3  A    between atoms: C_6  and  C_7
REMARK    4  A    between atoms: C_15  and  C_16
REMARK    5  A    between atoms: C_22  and  C_23
REMARK                            x       y       z     vdW  Elec       q    Type
REMARK                         _______ _______ _______ _____ _____    ______ ____
ROOT
ATOM      1  C   UNL     1       3.782   6.982  17.155  0.00  0.00    +0.000 C 
ATOM      2  C   UNL     1       4.877   5.666  16.593  0.00  0.00    +0.000 A 
ATOM      3  C   UNL     1       5.140   5.463  15.229  0.00  0.00    +0.000 A 
ATOM      4  C   UNL     1       6.270   4.684  14.807  0.00  0.00    +0.000 A 
ATOM      5  C   UNL     1       7.189   4.094  15.696  0.00  0.00    +0.000 A 
ATOM      6  C   UNL     1       6.981   4.240  17.046  0.00  0.00    +0.000 A 
ATOM      7  C   UNL     1       5.884   4.996  17.477  0.00  0.00    +0.000 A 
ATOM      8  N   UNL     1       5.825   5.132  18.907  0.00  0.00    +0.000 N 
ATOM      9  C   UNL     1       4.536   5.726  19.003  0.00  0.00    +0.000 C 
ATOM     10  C   UNL     1       4.811   7.232  18.194  0.00  0.00    +0.000 C 
ATOM     11  C   UNL     1       5.927   7.959  17.302  0.00  0.00    +0.000 C 
ATOM     12  H   UNL     1       6.576   5.733  19.231  0.00  0.00    +0.000 HD
ENDROOT
BRANCH   1  16
ATOM     13  C   UNL     1       0.930   9.208  19.948  0.00  0.00    +0.000 A 
ATOM     14  C   UNL     1       1.041   9.457  18.587  0.00  0.00    +0.000 A 
ATOM     15  C   UNL     1       1.814   8.617  17.748  0.00  0.00    +0.000 A 
ATOM     16  C   UNL     1       2.617   7.535  18.236  0.00  0.00    +0.000 A 
ATOM     17  C   UNL     1       2.447   7.324  19.629  0.00  0.00    +0.000 A 
ATOM     18  C   UNL     1       1.638   8.139  20.468  0.00  0.00    +0.000 A 
BRANCH  13  20
ATOM     19  C   UNL     1      -0.050   9.703  22.040  0.00  0.00    +0.000 C 
ATOM     20  O   UNL     1       0.161  10.073  20.677  0.00  0.00    +0.000 OA
ENDBRANCH  13  20
ENDBRANCH   1  16
BRANCH   9  21
ATOM     21  C   UNL     1       3.460   4.463  18.529  0.00  0.00    +0.000 A 
ATOM     22  C   UNL     1       2.113   4.590  18.843  0.00  0.00    +0.000 A 
ATOM     23  C   UNL     1       1.224   3.502  18.683  0.00  0.00    +0.000 A 
ATOM     24  C   UNL     1       1.647   2.264  18.162  0.00  0.00    +0.000 A 
ATOM     25  C   UNL     1       2.965   2.113  17.779  0.00  0.00    +0.000 A 
ATOM     26  C   UNL     1       3.839   3.168  17.980  0.00  0.00    +0.000 A 
ENDBRANCH   9  21
TORSDOF 3
ENDMDL
MODEL 7
REMARK VINA RESULT:      -6.7      7.211     10.446
REMARK  Name = 
REMARK  5 active torsions:
REMARK  status: ('A' for Active; 'I' for Inactive)
REMARK    1  A    between atoms: C_1  and  O_2
REMARK    2  A    between atoms: O_2  and  C_3
REMARK    3  A    between atoms: C_6  and  C_7
REMARK    4  A    between atoms: C_15  and  C_16
REMARK    5  A    between atoms: C_22  and  C_23
REMARK                            x       y       z     vdW  Elec       q    Type
REMARK                         _______ _______ _______ _____ _____    ______ ____
ROOT
ATOM      1  C   UNL     1      -1.397  12.062  21.588  0.00  0.00    +0.000 C 
ATOM      2  C   UNL     1      -2.923  12.715  22.287  0.00  0.00    +0.000 A 
ATOM      3  C   UNL     1      -3.455  12.212  23.486  0.00  0.00    +0.000 A 
ATOM      4  C   UNL     1      -4.435  12.958  24.224  0.00  0.00    +0.000 A 
ATOM      5  C   UNL     1      -4.913  14.223  23.831  0.00  0.00    +0.000 A 
ATOM      6  C   UNL     1      -4.446  14.766  22.659  0.00  0.00    +0.000 A 
ATOM      7  C   UNL     1      -3.491  14.053  21.925  0.00  0.00    +0.000 A 
ATOM      8  N   UNL     1      -3.033  14.765  20.762  0.00  0.00    +0.000 N 
ATOM      9  C   UNL     1      -2.286  13.714  20.161  0.00  0.00    +0.000 C 
ATOM     10  C   UNL     1      -1.042  13.481  21.342  0.00  0.00    +0.000 C 
ATOM     11  C   UNL     1      -0.668  13.931  22.833  0.00  0.00    +0.000 C 
ATOM     12  H   UNL     1      -2.466  15.559  21.041  0.00  0.00    +0.000 HD
ENDROOT
BRANCH   1  16
ATOM     13  C   UNL     1       1.404  10.368  18.397  0.00  0.00    +0.000 A 
ATOM     14  C   UNL     1       0.428   9.628  19.050  0.00  0.00    +0.000 A 
ATOM     15  C   UNL     1      -0.519  10.251  19.899  0.00  0.00    +0.000 A 
ATOM     16  C   UNL     1      -0.484  11.643  20.238  0.00  0.00    +0.000 A 
ATOM     17  C   UNL     1       0.525  12.345  19.526  0.00  0.00    +0.000 A 
ATOM     18  C   UNL     1       1.451  11.730  18.640  0.00  0.00    +0.000 A 
BRANCH  13  20
ATOM     19  C   UNL     1       2.403   8.289  17.888  0.00  0.00    +0.000 C 
ATOM     20  O   UNL     1       2.274   9.680  17.597  0.00  0.00    +0.000 OA
ENDBRANCH  13  20
ENDBRANCH   1  16
BRANCH   9  21
ATOM     21  C   UNL     1      -3.489  12.579  19.668  0.00  0.00    +0.000 A 
ATOM     22  C   UNL     1      -3.201  11.727  18.610  0.00  0.00    +0.000 A 
ATOM     23  C   UNL     1      -4.211  10.935  18.017  0.00  0.00    +0.000 A 
ATOM     24  C   UNL     1      -5.536  10.938  18.495  0.00  0.00    +0.000 A 
ATOM     25  C   UNL     1      -5.854  11.724  19.584  0.00  0.00    +0.000 A 
ATOM     26  C   UNL     1      -4.870  12.530  20.131  0.00  0.00    +0.000 A 
ENDBRANCH   9  21
TORSDOF 3
ENDMDL
MODEL 8
REMARK VINA RESULT:      -6.6      9.507     12.420
REMARK  Name = 
REMARK  5 active torsions:
REMARK  status: ('A' for Active; 'I' for Inactive)
REMARK    1  A    between atoms: C_1  and  O_2
REMARK    2  A    between atoms: O_2  and  C_3
REMARK    3  A    between atoms: C_6  and  C_7
REMARK    4  A    between atoms: C_15  and  C_16
REMARK    5  A    between atoms: C_22  and  C_23
REMARK                            x       y       z     vdW  Elec       q    Type
REMARK                         _______ _______ _______ _____ _____    ______ ____
ROOT
ATOM      1  C   UNL     1       7.932  14.645  21.622  0.00  0.00    +0.000 C 
ATOM      2  C   UNL     1       8.575  15.192  20.030  0.00  0.00    +0.000 A 
ATOM      3  C   UNL     1       7.767  15.877  19.109  0.00  0.00    +0.000 A 
ATOM      4  C   UNL     1       8.353  16.625  18.032  0.00  0.00    +0.000 A 
ATOM      5  C   UNL     1       9.741  16.746  17.829  0.00  0.00    +0.000 A 
ATOM      6  C   UNL     1      10.589  16.087  18.685  0.00  0.00    +0.000 A 
ATOM      7  C   UNL     1      10.037  15.352  19.741  0.00  0.00    +0.000 A 
ATOM      8  N   UNL     1      11.033  14.775  20.603  0.00  0.00    +0.000 N 
ATOM      9  C   UNL     1      10.174  13.954  21.386  0.00  0.00    +0.000 C 
ATOM     10  C   UNL     1       9.210  15.154  22.179  0.00  0.00    +0.000 C 
ATOM     11  C   UNL     1       8.923  16.729  22.122  0.00  0.00    +0.000 C 
ATOM     12  H   UNL     1      11.496  15.504  21.136  0.00  0.00    +0.000 HD
ENDROOT
BRANCH   1  16
ATOM     13  C   UNL     1       7.083  11.774  25.076  0.00  0.00    +0.000 A 
ATOM     14  C   UNL     1       6.383  11.781  23.877  0.00  0.00    +0.000 A 
ATOM     15  C   UNL     1       6.807  12.575  22.784  0.00  0.00    +0.000 A 
ATOM     16  C   UNL     1       7.899  13.501  22.855  0.00  0.00    +0.000 A 
ATOM     17  C   UNL     1       8.581  13.434  24.099  0.00  0.00    +0.000 A 
ATOM     18  C   UNL     1       8.184  12.606  25.184  0.00  0.00    +0.000 A 
BRANCH  13  20
ATOM     19  C   UNL     1       5.184  11.023  26.264  0.00  0.00    +0.000 C 
ATOM     20  O   UNL     1       6.599  10.975  26.074  0.00  0.00    +0.000 OA
ENDBRANCH  13  20
ENDBRANCH   1  16
BRANCH   9  21
ATOM     21  C   UNL     1       9.638  12.741  20.281  0.00  0.00    +0.000 A 
ATOM     22  C   UNL     1       9.521  11.435  20.739  0.00  0.00    +0.000 A 
ATOM     23  C   UNL     1       9.304  10.366  19.840  0.00  0.00    +0.000 A 
ATOM     24  C   UNL     1       9.155  10.575  18.455  0.00  0.00    +0.000 A 
ATOM     25  C   UNL     1       9.203  11.865  17.963  0.00  0.00    +0.000 A 
ATOM     26  C   UNL     1       9.460  12.902  18.844  0.00  0.00    +0.000 A 
ENDBRANCH   9  21
TORSDOF 3
ENDMDL
MODEL 9
REMARK VINA RESULT:      -6.6     10.033     12.434
REMARK  Name = 
REMARK  5 active torsions:
REMARK  status: ('A' for Active; 'I' for Inactive)
REMARK    1  A    between atoms: C_1  and  O_2
REMARK    2  A    between atoms: O_2  and  C_3
REMARK    3  A    between atoms: C_6  and  C_7
REMARK    4  A    between atoms: C_15  and  C_16
REMARK    5  A    between atoms: C_22  and  C_23
REMARK                            x       y       z     vdW  Elec       q    Type
REMARK                         _______ _______ _______ _____ _____    ______ ____
ROOT
ATOM      1  C   UNL     1      10.261  13.775  21.104  0.00  0.00    +0.000 C 
ATOM      2  C   UNL     1      10.691  14.483  19.503  0.00  0.00    +0.000 A 
ATOM      3  C   UNL     1      11.768  15.371  19.359  0.00  0.00    +0.000 A 
ATOM      4  C   UNL     1      12.333  15.637  18.066  0.00  0.00    +0.000 A 
ATOM      5  C   UNL     1      11.882  15.032  16.877  0.00  0.00    +0.000 A 
ATOM      6  C   UNL     1      10.819  14.165  16.944  0.00  0.00    +0.000 A 
ATOM      7  C   UNL     1      10.254  13.894  18.196  0.00  0.00    +0.000 A 
ATOM      8  N   UNL     1       9.202  12.916  18.136  0.00  0.00    +0.000 N 
ATOM      9  C   UNL     1       8.725  13.046  19.470  0.00  0.00    +0.000 C 
ATOM     10  C   UNL     1      10.104  12.498  20.363  0.00  0.00    +0.000 C 
ATOM     11  C   UNL     1      11.645  12.126  20.132  0.00  0.00    +0.000 C 
ATOM     12  H   UNL     1       9.589  12.001  17.930  0.00  0.00    +0.000 HD
ENDROOT
BRANCH   1  16
ATOM     13  C   UNL     1       7.591  12.556  24.608  0.00  0.00    +0.000 A 
ATOM     14  C   UNL     1       8.057  13.846  24.394  0.00  0.00    +0.000 A 
ATOM     15  C   UNL     1       8.733  14.193  23.199  0.00  0.00    +0.000 A 
ATOM     16  C   UNL     1       9.087  13.244  22.185  0.00  0.00    +0.000 A 
ATOM     17  C   UNL     1       8.570  11.949  22.456  0.00  0.00    +0.000 A 
ATOM     18  C   UNL     1       7.853  11.607  23.635  0.00  0.00    +0.000 A 
BRANCH  13  20
ATOM     19  C   UNL     1       6.018  11.234  25.772  0.00  0.00    +0.000 C 
ATOM     20  O   UNL     1       6.949  12.315  25.791  0.00  0.00    +0.000 OA
ENDBRANCH  13  20
ENDBRANCH   1  16
BRANCH   9  21
ATOM     21  C   UNL     1       8.010  14.616  19.504  0.00  0.00    +0.000 A 
ATOM     22  C   UNL     1       6.923  14.830  20.341  0.00  0.00    +0.000 A 
ATOM     23  C   UNL     1       6.159  16.017  20.253  0.00  0.00    +0.000 A 
ATOM     24  C   UNL     1       6.487  17.048  19.352  0.00  0.00    +0.000 A 
ATOM     25  C   UNL     1       7.597  16.905  18.544  0.00  0.00    +0.000 A 
ATOM     26  C   UNL     1       8.313  15.722  18.605  0.00  0.00    +0.000 A 
ENDBRANCH   9  21
TORSDOF 3
ENDMDL
