MODEL 1
REMARK VINA RESULT:      -7.6      0.000      0.000
REMARK  Name = 
REMARK  7 active torsions:
REMARK  status: ('A' for Active; 'I' for Inactive)
REMARK    1  A    between atoms: C_2  and  C_3
REMARK    2  A    between atoms: C_3  and  C_4
REMARK    3  A    between atoms: C_3  and  O_5
REMARK    4  A    between atoms: C_3  and  C_6
REMARK    5  A    between atoms: C_13  and  C_14
REMARK    6  A    between atoms: C_13  and  C_15
REMARK    7  A    between atoms: C_19  and  C_20
REMARK                            x       y       z     vdW  Elec       q    Type
REMARK                         _______ _______ _______ _____ _____    ______ ____
ROOT
ATOM      1  C   UNL     1       6.189   3.756  15.237  0.00  0.00    +0.000 C 
ATOM      2  C   UNL     1       4.820   4.169  15.771  0.00  0.00    +0.000 C 
ATOM      3  C   UNL     1       4.748   3.844  17.258  0.00  0.00    +0.000 C 
ATOM      4  C   UNL     1       5.890   4.510  17.975  0.00  0.00    +0.000 C 
ATOM      5  C   UNL     1       5.781   4.912  19.261  0.00  0.00    +0.000 C 
ATOM      6  C   UNL     1       4.549   4.715  20.100  0.00  0.00    +0.000 C 
ATOM      7  C   UNL     1       3.496   3.799  19.434  0.00  0.00    +0.000 C 
ATOM      8  C   UNL     1       2.177   3.609  20.260  0.00  0.00    +0.000 C 
ATOM      9  C   UNL     1       2.511   2.893  21.593  0.00  0.00    +0.000 C 
ATOM     10  C   UNL     1       1.456   4.915  20.637  0.00  0.00    +0.000 C 
ATOM     11  C   UNL     1       1.213   2.685  19.474  0.00  0.00    +0.000 C 
ATOM     12  C   UNL     1       0.967   3.144  18.043  0.00  0.00    +0.000 C 
ATOM     13  C   UNL     1       2.271   3.226  17.259  0.00  0.00    +0.000 C 
ATOM     14  C   UNL     1       3.337   4.147  17.909  0.00  0.00    +0.000 C 
ATOM     15  C   UNL     1       2.936   5.622  17.649  0.00  0.00    +0.000 C 
ATOM     16  C   UNL     1       7.171   4.782  17.270  0.00  0.00    +0.000 C 
ATOM     17  O   UNL     1       8.128   5.309  17.831  0.00  0.00    +0.000 OA
ATOM     18  O   UNL     1       7.234   4.463  15.952  0.00  0.00    +0.000 OA
ENDROOT
BRANCH   1  19
ATOM     19  C   UNL     1       6.314   4.017  13.690  0.00  0.00    +0.000 C 
ATOM     20  C   UNL     1       4.970   4.413  13.063  0.00  0.00    +0.000 C 
BRANCH  19  22
ATOM     21  C   UNL     1       7.805   5.445  12.184  0.00  0.00    +0.000 C 
ATOM     22  C   UNL     1       7.366   5.078  13.399  0.00  0.00    +0.000 C 
ENDBRANCH  19  22
BRANCH  19  23
ATOM     23  O   UNL     1       6.716   2.799  13.047  0.00  0.00    +0.000 OA
ATOM     24  H   UNL     1       6.401   2.064  13.626  0.00  0.00    +0.000 HD
ENDBRANCH  19  23
ENDBRANCH   1  19
TORSDOF 3
ENDMDL
MODEL 2
REMARK VINA RESULT:      -7.4      0.778      1.228
REMARK  Name = 
REMARK  7 active torsions:
REMARK  status: ('A' for Active; 'I' for Inactive)
REMARK    1  A    between atoms: C_2  and  C_3
REMARK    2  A    between atoms: C_3  and  C_4
REMARK    3  A    between atoms: C_3  and  O_5
REMARK    4  A    between atoms: C_3  and  C_6
REMARK    5  A    between atoms: C_13  and  C_14
REMARK    6  A    between atoms: C_13  and  C_15
REMARK    7  A    between atoms: C_19  and  C_20
REMARK                            x       y       z     vdW  Elec       q    Type
REMARK                         _______ _______ _______ _____ _____    ______ ____
ROOT
ATOM      1  C   UNL     1       6.231   3.978  15.264  0.00  0.00    +0.000 C 
ATOM      2  C   UNL     1       4.861   4.368  15.813  0.00  0.00    +0.000 C 
ATOM      3  C   UNL     1       4.773   3.942  17.273  0.00  0.00    +0.000 C 
ATOM      4  C   UNL     1       5.914   4.545  18.044  0.00  0.00    +0.000 C 
ATOM      5  C   UNL     1       5.797   4.858  19.354  0.00  0.00    +0.000 C 
ATOM      6  C   UNL     1       4.556   4.617  20.166  0.00  0.00    +0.000 C 
ATOM      7  C   UNL     1       3.500   3.760  19.430  0.00  0.00    +0.000 C 
ATOM      8  C   UNL     1       2.172   3.527  20.230  0.00  0.00    +0.000 C 
ATOM      9  C   UNL     1       2.486   2.718  21.514  0.00  0.00    +0.000 C 
ATOM     10  C   UNL     1       1.460   4.812  20.690  0.00  0.00    +0.000 C 
ATOM     11  C   UNL     1       1.206   2.670  19.374  0.00  0.00    +0.000 C 
ATOM     12  C   UNL     1       0.977   3.228  17.976  0.00  0.00    +0.000 C 
ATOM     13  C   UNL     1       2.289   3.351  17.211  0.00  0.00    +0.000 C 
ATOM     14  C   UNL     1       3.359   4.214  17.931  0.00  0.00    +0.000 C 
ATOM     15  C   UNL     1       2.974   5.707  17.771  0.00  0.00    +0.000 C 
ATOM     16  C   UNL     1       7.204   4.851  17.371  0.00  0.00    +0.000 C 
ATOM     17  O   UNL     1       8.161   5.329  17.974  0.00  0.00    +0.000 OA
ATOM     18  O   UNL     1       7.276   4.623  16.034  0.00  0.00    +0.000 OA
ENDROOT
BRANCH   1  19
ATOM     19  C   UNL     1       6.372   4.344  13.740  0.00  0.00    +0.000 C 
ATOM     20  C   UNL     1       7.713   5.025  13.433  0.00  0.00    +0.000 C 
BRANCH  19  22
ATOM     21  C   UNL     1       5.301   2.973  11.866  0.00  0.00    +0.000 C 
ATOM     22  C   UNL     1       6.191   3.113  12.863  0.00  0.00    +0.000 C 
ENDBRANCH  19  22
BRANCH  19  23
ATOM     23  O   UNL     1       5.351   5.292  13.395  0.00  0.00    +0.000 OA
ATOM     24  H   UNL     1       5.421   6.025  14.053  0.00  0.00    +0.000 HD
ENDBRANCH  19  23
ENDBRANCH   1  19
TORSDOF 3
ENDMDL
MODEL 3
REMARK VINA RESULT:      -6.6      4.259      6.473
REMARK  Name = 
REMARK  7 active torsions:
REMARK  status: ('A' for Active; 'I' for Inactive)
REMARK    1  A    between atoms: C_2  and  C_3
REMARK    2  A    between atoms: C_3  and  C_4
REMARK    3  A    between atoms: C_3  and  O_5
REMARK    4  A    between atoms: C_3  and  C_6
REMARK    5  A    between atoms: C_13  and  C_14
REMARK    6  A    between atoms: C_13  and  C_15
REMARK    7  A    between atoms: C_19  and  C_20
REMARK                            x       y       z     vdW  Elec       q    Type
REMARK                         _______ _______ _______ _____ _____    ______ ____
ROOT
ATOM      1  C   UNL     1       1.931   9.136  19.193  0.00  0.00    +0.000 C 
ATOM      2  C   UNL     1       2.017   7.872  18.342  0.00  0.00    +0.000 C 
ATOM      3  C   UNL     1       2.550   6.731  19.200  0.00  0.00    +0.000 C 
ATOM      4  C   UNL     1       1.682   6.568  20.416  0.00  0.00    +0.000 C 
ATOM      5  C   UNL     1       1.510   5.366  21.009  0.00  0.00    +0.000 C 
ATOM      6  C   UNL     1       2.175   4.100  20.544  0.00  0.00    +0.000 C 
ATOM      7  C   UNL     1       3.260   4.338  19.468  0.00  0.00    +0.000 C 
ATOM      8  C   UNL     1       3.942   3.035  18.927  0.00  0.00    +0.000 C 
ATOM      9  C   UNL     1       4.704   2.340  20.083  0.00  0.00    +0.000 C 
ATOM     10  C   UNL     1       2.971   1.987  18.354  0.00  0.00    +0.000 C 
ATOM     11  C   UNL     1       4.992   3.418  17.854  0.00  0.00    +0.000 C 
ATOM     12  C   UNL     1       4.435   4.310  16.752  0.00  0.00    +0.000 C 
ATOM     13  C   UNL     1       3.865   5.601  17.325  0.00  0.00    +0.000 C 
ATOM     14  C   UNL     1       2.768   5.382  18.401  0.00  0.00    +0.000 C 
ATOM     15  C   UNL     1       1.457   4.966  17.687  0.00  0.00    +0.000 C 
ATOM     16  C   UNL     1       0.950   7.732  20.986  0.00  0.00    +0.000 C 
ATOM     17  O   UNL     1       0.246   7.636  21.987  0.00  0.00    +0.000 OA
ATOM     18  O   UNL     1       1.052   8.913  20.324  0.00  0.00    +0.000 OA
ENDROOT
BRANCH   1  19
ATOM     19  C   UNL     1       1.435  10.371  18.352  0.00  0.00    +0.000 C 
ATOM     20  C   UNL     1      -0.021  10.206  17.892  0.00  0.00    +0.000 C 
BRANCH  19  22
ATOM     21  C   UNL     1       2.047  12.835  18.649  0.00  0.00    +0.000 C 
ATOM     22  C   UNL     1       1.598  11.666  19.135  0.00  0.00    +0.000 C 
ENDBRANCH  19  22
BRANCH  19  23
ATOM     23  O   UNL     1       2.226  10.467  17.159  0.00  0.00    +0.000 OA
ATOM     24  H   UNL     1       3.033  10.981  17.404  0.00  0.00    +0.000 HD
ENDBRANCH  19  23
ENDBRANCH   1  19
TORSDOF 3
ENDMDL
MODEL 4
REMARK VINA RESULT:      -6.3     11.297     13.711
REMARK  Name = 
REMARK  7 active torsions:
REMARK  status: ('A' for Active; 'I' for Inactive)
REMARK    1  A    between atoms: C_2  and  C_3
REMARK    2  A    between atoms: C_3  and  C_4
REMARK    3  A    between atoms: C_3  and  O_5
REMARK    4  A    between atoms: C_3  and  C_6
REMARK    5  A    between atoms: C_13  and  C_14
REMARK    6  A    between atoms: C_13  and  C_15
REMARK    7  A    between atoms: C_19  and  C_20
REMARK                            x       y       z     vdW  Elec       q    Type
REMARK                         _______ _______ _______ _____ _____    ______ ____
ROOT
ATOM      1  C   UNL     1      -4.146  11.578  17.845  0.00  0.00    +0.000 C 
ATOM      2  C   UNL     1      -3.868  12.228  19.197  0.00  0.00    +0.000 C 
ATOM      3  C   UNL     1      -5.157  12.847  19.725  0.00  0.00    +0.000 C 
ATOM      4  C   UNL     1      -6.232  11.798  19.782  0.00  0.00    +0.000 C 
ATOM      5  C   UNL     1      -7.221  11.846  20.703  0.00  0.00    +0.000 C 
ATOM      6  C   UNL     1      -7.364  12.940  21.724  0.00  0.00    +0.000 C 
ATOM      7  C   UNL     1      -6.413  14.134  21.477  0.00  0.00    +0.000 C 
ATOM      8  C   UNL     1      -6.501  15.274  22.549  0.00  0.00    +0.000 C 
ATOM      9  C   UNL     1      -7.916  15.904  22.508  0.00  0.00    +0.000 C 
ATOM     10  C   UNL     1      -6.272  14.816  24.001  0.00  0.00    +0.000 C 
ATOM     11  C   UNL     1      -5.492  16.392  22.188  0.00  0.00    +0.000 C 
ATOM     12  C   UNL     1      -4.075  15.882  21.966  0.00  0.00    +0.000 C 
ATOM     13  C   UNL     1      -4.032  14.842  20.854  0.00  0.00    +0.000 C 
ATOM     14  C   UNL     1      -4.974  13.632  21.088  0.00  0.00    +0.000 C 
ATOM     15  C   UNL     1      -4.332  12.709  22.154  0.00  0.00    +0.000 C 
ATOM     16  C   UNL     1      -6.218  10.646  18.840  0.00  0.00    +0.000 C 
ATOM     17  O   UNL     1      -7.089   9.782  18.850  0.00  0.00    +0.000 OA
ATOM     18  O   UNL     1      -5.166  10.558  17.986  0.00  0.00    +0.000 OA
ENDROOT
BRANCH   1  19
ATOM     19  C   UNL     1      -2.842  10.962  17.216  0.00  0.00    +0.000 C 
ATOM     20  C   UNL     1      -1.968  10.267  18.270  0.00  0.00    +0.000 C 
BRANCH  19  22
ATOM     21  C   UNL     1      -2.918  10.174  14.786  0.00  0.00    +0.000 C 
ATOM     22  C   UNL     1      -3.182   9.995  16.091  0.00  0.00    +0.000 C 
ENDBRANCH  19  22
BRANCH  19  23
ATOM     23  O   UNL     1      -2.046  12.023  16.669  0.00  0.00    +0.000 OA
ATOM     24  H   UNL     1      -1.803  12.606  17.428  0.00  0.00    +0.000 HD
ENDBRANCH  19  23
ENDBRANCH   1  19
TORSDOF 3
ENDMDL
MODEL 5
REMARK VINA RESULT:      -6.3      4.055      7.324
REMARK  Name = 
REMARK  7 active torsions:
REMARK  status: ('A' for Active; 'I' for Inactive)
REMARK    1  A    between atoms: C_2  and  C_3
REMARK    2  A    between atoms: C_3  and  C_4
REMARK    3  A    between atoms: C_3  and  O_5
REMARK    4  A    between atoms: C_3  and  C_6
REMARK    5  A    between atoms: C_13  and  C_14
REMARK    6  A    between atoms: C_13  and  C_15
REMARK    7  A    between atoms: C_19  and  C_20
REMARK                            x       y       z     vdW  Elec       q    Type
REMARK                         _______ _______ _______ _____ _____    ______ ____
ROOT
ATOM      1  C   UNL     1       0.941   8.633  20.554  0.00  0.00    +0.000 C 
ATOM      2  C   UNL     1       1.771   7.400  20.899  0.00  0.00    +0.000 C 
ATOM      3  C   UNL     1       1.735   6.432  19.723  0.00  0.00    +0.000 C 
ATOM      4  C   UNL     1       2.205   7.132  18.479  0.00  0.00    +0.000 C 
ATOM      5  C   UNL     1       2.836   6.467  17.487  0.00  0.00    +0.000 C 
ATOM      6  C   UNL     1       3.103   4.987  17.506  0.00  0.00    +0.000 C 
ATOM      7  C   UNL     1       2.380   4.251  18.659  0.00  0.00    +0.000 C 
ATOM      8  C   UNL     1       2.673   2.713  18.739  0.00  0.00    +0.000 C 
ATOM      9  C   UNL     1       2.136   2.026  17.458  0.00  0.00    +0.000 C 
ATOM     10  C   UNL     1       4.163   2.342  18.839  0.00  0.00    +0.000 C 
ATOM     11  C   UNL     1       1.901   2.110  19.938  0.00  0.00    +0.000 C 
ATOM     12  C   UNL     1       2.153   2.840  21.251  0.00  0.00    +0.000 C 
ATOM     13  C   UNL     1       1.769   4.310  21.145  0.00  0.00    +0.000 C 
ATOM     14  C   UNL     1       2.490   5.068  19.998  0.00  0.00    +0.000 C 
ATOM     15  C   UNL     1       3.951   5.345  20.436  0.00  0.00    +0.000 C 
ATOM     16  C   UNL     1       2.021   8.600  18.321  0.00  0.00    +0.000 C 
ATOM     17  O   UNL     1       2.379   9.200  17.312  0.00  0.00    +0.000 OA
ATOM     18  O   UNL     1       1.475   9.272  19.366  0.00  0.00    +0.000 OA
ENDROOT
BRANCH   1  19
ATOM     19  C   UNL     1       0.893   9.656  21.749  0.00  0.00    +0.000 C 
ATOM     20  C   UNL     1       0.980  11.111  21.265  0.00  0.00    +0.000 C 
BRANCH  19  22
ATOM     21  C   UNL     1      -1.077  10.418  23.188  0.00  0.00    +0.000 C 
ATOM     22  C   UNL     1      -0.358   9.453  22.592  0.00  0.00    +0.000 C 
ENDBRANCH  19  22
BRANCH  19  23
ATOM     23  O   UNL     1       2.038   9.441  22.588  0.00  0.00    +0.000 OA
ATOM     24  H   UNL     1       2.690  10.142  22.349  0.00  0.00    +0.000 HD
ENDBRANCH  19  23
ENDBRANCH   1  19
TORSDOF 3
ENDMDL
MODEL 6
REMARK VINA RESULT:      -6.2      9.628     11.289
REMARK  Name = 
REMARK  7 active torsions:
REMARK  status: ('A' for Active; 'I' for Inactive)
REMARK    1  A    between atoms: C_2  and  C_3
REMARK    2  A    between atoms: C_3  and  C_4
REMARK    3  A    between atoms: C_3  and  O_5
REMARK    4  A    between atoms: C_3  and  C_6
REMARK    5  A    between atoms: C_13  and  C_14
REMARK    6  A    between atoms: C_13  and  C_15
REMARK    7  A    between atoms: C_19  and  C_20
REMARK                            x       y       z     vdW  Elec       q    Type
REMARK                         _______ _______ _______ _____ _____    ______ ____
ROOT
ATOM      1  C   UNL     1      10.075  12.332  20.129  0.00  0.00    +0.000 C 
ATOM      2  C   UNL     1       8.829  12.373  21.008  0.00  0.00    +0.000 C 
ATOM      3  C   UNL     1       9.175  13.048  22.329  0.00  0.00    +0.000 C 
ATOM      4  C   UNL     1       9.755  14.409  22.062  0.00  0.00    +0.000 C 
ATOM      5  C   UNL     1       9.601  15.429  22.935  0.00  0.00    +0.000 C 
ATOM      6  C   UNL     1       8.876  15.309  24.246  0.00  0.00    +0.000 C 
ATOM      7  C   UNL     1       8.523  13.849  24.618  0.00  0.00    +0.000 C 
ATOM      8  C   UNL     1       7.725  13.689  25.957  0.00  0.00    +0.000 C 
ATOM      9  C   UNL     1       8.604  14.177  27.136  0.00  0.00    +0.000 C 
ATOM     10  C   UNL     1       6.415  14.495  26.030  0.00  0.00    +0.000 C 
ATOM     11  C   UNL     1       7.430  12.188  26.198  0.00  0.00    +0.000 C 
ATOM     12  C   UNL     1       6.762  11.504  25.013  0.00  0.00    +0.000 C 
ATOM     13  C   UNL     1       7.621  11.612  23.759  0.00  0.00    +0.000 C 
ATOM     14  C   UNL     1       7.978  13.070  23.366  0.00  0.00    +0.000 C 
ATOM     15  C   UNL     1       6.728  13.726  22.725  0.00  0.00    +0.000 C 
ATOM     16  C   UNL     1      10.492  14.684  20.799  0.00  0.00    +0.000 C 
ATOM     17  O   UNL     1      10.992  15.778  20.557  0.00  0.00    +0.000 OA
ATOM     18  O   UNL     1      10.555  13.679  19.888  0.00  0.00    +0.000 OA
ENDROOT
BRANCH   1  19
ATOM     19  C   UNL     1       9.801  11.599  18.763  0.00  0.00    +0.000 C 
ATOM     20  C   UNL     1      11.053  11.545  17.877  0.00  0.00    +0.000 C 
BRANCH  19  22
ATOM     21  C   UNL     1       8.465   9.505  18.161  0.00  0.00    +0.000 C 
ATOM     22  C   UNL     1       9.257  10.197  18.996  0.00  0.00    +0.000 C 
ENDBRANCH  19  22
BRANCH  19  23
ATOM     23  O   UNL     1       8.818  12.343  18.028  0.00  0.00    +0.000 OA
ATOM     24  H   UNL     1       8.647  11.832  17.201  0.00  0.00    +0.000 HD
ENDBRANCH  19  23
ENDBRANCH   1  19
TORSDOF 3
ENDMDL
MODEL 7
REMARK VINA RESULT:      -6.2     10.326     12.680
REMARK  Name = 
REMARK  7 active torsions:
REMARK  status: ('A' for Active; 'I' for Inactive)
REMARK    1  A    between atoms: C_2  and  C_3
REMARK    2  A    between atoms: C_3  and  C_4
REMARK    3  A    between atoms: C_3  and  O_5
REMARK    4  A    between atoms: C_3  and  C_6
REMARK    5  A    between atoms: C_13  and  C_14
REMARK    6  A    between atoms: C_13  and  C_15
REMARK    7  A    between atoms: C_19  and  C_20
REMARK                            x       y       z     vdW  Elec       q    Type
REMARK                         _______ _______ _______ _____ _____    ______ ____
ROOT
ATOM      1  C   UNL     1      -1.826  11.369  19.734  0.00  0.00    +0.000 C 
ATOM      2  C   UNL     1      -2.762  12.570  19.841  0.00  0.00    +0.000 C 
ATOM      3  C   UNL     1      -3.569  12.458  21.128  0.00  0.00    +0.000 C 
ATOM      4  C   UNL     1      -2.635  12.330  22.299  0.00  0.00    +0.000 C 
ATOM      5  C   UNL     1      -2.964  12.799  23.523  0.00  0.00    +0.000 C 
ATOM      6  C   UNL     1      -4.277  13.456  23.843  0.00  0.00    +0.000 C 
ATOM      7  C   UNL     1      -5.316  13.336  22.703  0.00  0.00    +0.000 C 
ATOM      8  C   UNL     1      -6.682  14.051  22.984  0.00  0.00    +0.000 C 
ATOM      9  C   UNL     1      -7.372  13.373  24.195  0.00  0.00    +0.000 C 
ATOM     10  C   UNL     1      -6.571  15.547  23.329  0.00  0.00    +0.000 C 
ATOM     11  C   UNL     1      -7.615  13.863  21.762  0.00  0.00    +0.000 C 
ATOM     12  C   UNL     1      -6.978  14.279  20.443  0.00  0.00    +0.000 C 
ATOM     13  C   UNL     1      -5.701  13.492  20.176  0.00  0.00    +0.000 C 
ATOM     14  C   UNL     1      -4.645  13.606  21.307  0.00  0.00    +0.000 C 
ATOM     15  C   UNL     1      -3.965  14.995  21.204  0.00  0.00    +0.000 C 
ATOM     16  C   UNL     1      -1.292  11.710  22.132  0.00  0.00    +0.000 C 
ATOM     17  O   UNL     1      -0.512  11.576  23.070  0.00  0.00    +0.000 OA
ATOM     18  O   UNL     1      -0.935  11.333  20.878  0.00  0.00    +0.000 OA
ENDROOT
BRANCH   1  19
ATOM     19  C   UNL     1      -0.995  11.395  18.398  0.00  0.00    +0.000 C 
ATOM     20  C   UNL     1       0.514  11.278  18.655  0.00  0.00    +0.000 C 
BRANCH  19  22
ATOM     21  C   UNL     1      -2.680   9.745  17.409  0.00  0.00    +0.000 C 
ATOM     22  C   UNL     1      -1.456  10.299  17.447  0.00  0.00    +0.000 C 
ENDBRANCH  19  22
BRANCH  19  23
ATOM     23  O   UNL     1      -1.197  12.660  17.752  0.00  0.00    +0.000 OA
ATOM     24  H   UNL     1      -1.225  13.336  18.471  0.00  0.00    +0.000 HD
ENDBRANCH  19  23
ENDBRANCH   1  19
TORSDOF 3
ENDMDL
MODEL 8
REMARK VINA RESULT:      -6.2      9.703     11.289
REMARK  Name = 
REMARK  7 active torsions:
REMARK  status: ('A' for Active; 'I' for Inactive)
REMARK    1  A    between atoms: C_2  and  C_3
REMARK    2  A    between atoms: C_3  and  C_4
REMARK    3  A    between atoms: C_3  and  O_5
REMARK    4  A    between atoms: C_3  and  C_6
REMARK    5  A    between atoms: C_13  and  C_14
REMARK    6  A    between atoms: C_13  and  C_15
REMARK    7  A    between atoms: C_19  and  C_20
REMARK                            x       y       z     vdW  Elec       q    Type
REMARK                         _______ _______ _______ _____ _____    ______ ____
ROOT
ATOM      1  C   UNL     1      10.232  12.464  19.734  0.00  0.00    +0.000 C 
ATOM      2  C   UNL     1       8.988  12.516  20.616  0.00  0.00    +0.000 C 
ATOM      3  C   UNL     1       9.361  13.119  21.965  0.00  0.00    +0.000 C 
ATOM      4  C   UNL     1       9.997  14.465  21.756  0.00  0.00    +0.000 C 
ATOM      5  C   UNL     1       9.884  15.452  22.673  0.00  0.00    +0.000 C 
ATOM      6  C   UNL     1       9.154  15.304  23.979  0.00  0.00    +0.000 C 
ATOM      7  C   UNL     1       8.742  13.845  24.287  0.00  0.00    +0.000 C 
ATOM      8  C   UNL     1       7.937  13.660  25.619  0.00  0.00    +0.000 C 
ATOM      9  C   UNL     1       8.836  14.060  26.817  0.00  0.00    +0.000 C 
ATOM     10  C   UNL     1       6.662  14.515  25.729  0.00  0.00    +0.000 C 
ATOM     11  C   UNL     1       7.581  12.163  25.795  0.00  0.00    +0.000 C 
ATOM     12  C   UNL     1       6.886  11.559  24.582  0.00  0.00    +0.000 C 
ATOM     13  C   UNL     1       7.749  11.687  23.333  0.00  0.00    +0.000 C 
ATOM     14  C   UNL     1       8.166  13.144  23.003  0.00  0.00    +0.000 C 
ATOM     15  C   UNL     1       6.944  13.878  22.393  0.00  0.00    +0.000 C 
ATOM     16  C   UNL     1      10.744  14.764  20.505  0.00  0.00    +0.000 C 
ATOM     17  O   UNL     1      11.289  15.847  20.311  0.00  0.00    +0.000 OA
ATOM     18  O   UNL     1      10.767  13.799  19.551  0.00  0.00    +0.000 OA
ENDROOT
BRANCH   1  19
ATOM     19  C   UNL     1       9.929  11.802  18.338  0.00  0.00    +0.000 C 
ATOM     20  C   UNL     1       9.232  10.442  18.485  0.00  0.00    +0.000 C 
BRANCH  19  22
ATOM     21  C   UNL     1       7.792  12.597  17.183  0.00  0.00    +0.000 C 
ATOM     22  C   UNL     1       9.099  12.730  17.463  0.00  0.00    +0.000 C 
ENDBRANCH  19  22
BRANCH  19  23
ATOM     23  O   UNL     1      11.172  11.548  17.667  0.00  0.00    +0.000 OA
ATOM     24  H   UNL     1      11.217  12.189  16.918  0.00  0.00    +0.000 HD
ENDBRANCH  19  23
ENDBRANCH   1  19
TORSDOF 3
ENDMDL
MODEL 9
REMARK VINA RESULT:      -6.1     10.057     12.388
REMARK  Name = 
REMARK  7 active torsions:
REMARK  status: ('A' for Active; 'I' for Inactive)
REMARK    1  A    between atoms: C_2  and  C_3
REMARK    2  A    between atoms: C_3  and  C_4
REMARK    3  A    between atoms: C_3  and  O_5
REMARK    4  A    between atoms: C_3  and  C_6
REMARK    5  A    between atoms: C_13  and  C_14
REMARK    6  A    between atoms: C_13  and  C_15
REMARK    7  A    between atoms: C_19  and  C_20
REMARK                            x       y       z     vdW  Elec       q    Type
REMARK                         _______ _______ _______ _____ _____    ______ ____
ROOT
ATOM      1  C   UNL     1      -1.376  11.486  19.889  0.00  0.00    +0.000 C 
ATOM      2  C   UNL     1      -2.229  12.726  20.137  0.00  0.00    +0.000 C 
ATOM      3  C   UNL     1      -3.184  12.450  21.292  0.00  0.00    +0.000 C 
ATOM      4  C   UNL     1      -2.400  12.018  22.501  0.00  0.00    +0.000 C 
ATOM      5  C   UNL     1      -2.832  12.277  23.755  0.00  0.00    +0.000 C 
ATOM      6  C   UNL     1      -4.123  12.981  24.069  0.00  0.00    +0.000 C 
ATOM      7  C   UNL     1      -5.030  13.175  22.831  0.00  0.00    +0.000 C 
ATOM      8  C   UNL     1      -6.365  13.947  23.113  0.00  0.00    +0.000 C 
ATOM      9  C   UNL     1      -7.235  13.120  24.093  0.00  0.00    +0.000 C 
ATOM     10  C   UNL     1      -6.186  15.335  23.755  0.00  0.00    +0.000 C 
ATOM     11  C   UNL     1      -7.164  14.080  21.793  0.00  0.00    +0.000 C 
ATOM     12  C   UNL     1      -6.353  14.675  20.650  0.00  0.00    +0.000 C 
ATOM     13  C   UNL     1      -5.114  13.837  20.359  0.00  0.00    +0.000 C 
ATOM     14  C   UNL     1      -4.187  13.638  21.588  0.00  0.00    +0.000 C 
ATOM     15  C   UNL     1      -3.402  14.953  21.828  0.00  0.00    +0.000 C 
ATOM     16  C   UNL     1      -1.096  11.319  22.348  0.00  0.00    +0.000 C 
ATOM     17  O   UNL     1      -0.439  10.939  23.313  0.00  0.00    +0.000 OA
ATOM     18  O   UNL     1      -0.627  11.152  21.085  0.00  0.00    +0.000 OA
ENDROOT
BRANCH   1  19
ATOM     19  C   UNL     1      -0.399  11.685  18.671  0.00  0.00    +0.000 C 
ATOM     20  C   UNL     1       0.003  13.156  18.491  0.00  0.00    +0.000 C 
BRANCH  19  22
ATOM     21  C   UNL     1       1.128   9.721  18.086  0.00  0.00    +0.000 C 
ATOM     22  C   UNL     1       0.839  10.811  18.815  0.00  0.00    +0.000 C 
ENDBRANCH  19  22
BRANCH  19  23
ATOM     23  O   UNL     1      -1.079  11.303  17.466  0.00  0.00    +0.000 OA
ATOM     24  H   UNL     1      -1.638  10.524  17.700  0.00  0.00    +0.000 HD
ENDBRANCH  19  23
ENDBRANCH   1  19
TORSDOF 3
ENDMDL
