MODEL 1
REMARK VINA RESULT:      -8.4      0.000      0.000
REMARK  Name = 
REMARK  6 active torsions:
REMARK  status: ('A' for Active; 'I' for Inactive)
REMARK    1  A    between atoms: C_1  and  N_2
REMARK    2  A    between atoms: N_2  and  C_3
REMARK    3  A    between atoms: C_6  and  N_7
REMARK    4  A    between atoms: C_9  and  O_10
REMARK    5  A    between atoms: O_10  and  C_11
REMARK    6  A    between atoms: C_13  and  C_14
REMARK                            x       y       z     vdW  Elec       q    Type
REMARK                         _______ _______ _______ _____ _____    ______ ____
ROOT
ATOM      1  N   UNL     1       4.731   3.543  17.842  0.00  0.00    +0.000 N 
ATOM      2  N   UNL     1       4.478   3.758  16.521  0.00  0.00    +0.000 NA
ATOM      3  C   UNL     1       5.124   4.899  16.264  0.00  0.00    +0.000 A 
ATOM      4  C   UNL     1       5.941   5.318  17.321  0.00  0.00    +0.000 A 
ATOM      5  C   UNL     1       6.864   6.334  17.577  0.00  0.00    +0.000 A 
ATOM      6  N   UNL     1       7.198   7.332  16.679  0.00  0.00    +0.000 N 
ATOM      7  N   UNL     1       7.491   6.345  18.771  0.00  0.00    +0.000 NA
ATOM      8  C   UNL     1       7.187   5.380  19.660  0.00  0.00    +0.000 A 
ATOM      9  N   UNL     1       6.324   4.363  19.515  0.00  0.00    +0.000 NA
ATOM     10  C   UNL     1       5.704   4.388  18.323  0.00  0.00    +0.000 A 
ATOM     11  H   UNL     1       7.052   7.119  15.702  0.00  0.00    +0.000 HD
ATOM     12  H   UNL     1       8.064   7.791  16.931  0.00  0.00    +0.000 HD
ENDROOT
BRANCH   1  16
ATOM     13  C   UNL     1       1.528   3.252  19.979  0.00  0.00    +0.000 C 
ATOM     14  C   UNL     1       1.600   3.250  18.446  0.00  0.00    +0.000 C 
ATOM     15  C   UNL     1       2.606   2.230  17.914  0.00  0.00    +0.000 C 
ATOM     16  C   UNL     1       4.024   2.434  18.483  0.00  0.00    +0.000 C 
ATOM     17  C   UNL     1       3.956   2.420  20.019  0.00  0.00    +0.000 C 
ATOM     18  C   UNL     1       2.922   3.382  20.611  0.00  0.00    +0.000 C 
BRANCH  13  20
ATOM     19  C   UNL     1       1.427   5.601  20.653  0.00  0.00    +0.000 C 
ATOM     20  N   UNL     1       0.697   4.352  20.493  0.00  0.00    +0.000 NA
ATOM     21  H   UNL     1      -0.098   4.500  19.872  0.00  0.00    +0.000 HD
ENDBRANCH  13  20
ENDBRANCH   1  16
BRANCH   3  22
ATOM     22  O   UNL     1       5.098   5.443  15.030  0.00  0.00    +0.000 OA
BRANCH  22  23
ATOM     23  C   UNL     1       5.917   4.972  14.022  0.00  0.00    +0.000 A 
ATOM     24  C   UNL     1       5.441   3.893  13.294  0.00  0.00    +0.000 A 
ATOM     25  C   UNL     1       6.252   3.357  12.290  0.00  0.00    +0.000 A 
ATOM     26  C   UNL     1       7.506   3.937  12.066  0.00  0.00    +0.000 A 
ATOM     27  C   UNL     1       7.906   4.992  12.869  0.00  0.00    +0.000 A 
ATOM     28  N   UNL     1       7.151   5.499  13.860  0.00  0.00    +0.000 NA
BRANCH  25  29
ATOM     29  C   UNL     1       5.799   2.185  11.464  0.00  0.00    +0.000 C 
ATOM     30  F   UNL     1       5.735   1.019  12.164  0.00  0.00    +0.000 F 
ATOM     31  F   UNL     1       4.561   2.372  10.930  0.00  0.00    +0.000 F 
ATOM     32  F   UNL     1       6.628   1.944  10.412  0.00  0.00    +0.000 F 
ENDBRANCH  25  29
ENDBRANCH  22  23
ENDBRANCH   3  22
TORSDOF 5
ENDMDL
MODEL 2
REMARK VINA RESULT:      -8.4      5.542      8.409
REMARK  Name = 
REMARK  6 active torsions:
REMARK  status: ('A' for Active; 'I' for Inactive)
REMARK    1  A    between atoms: C_1  and  N_2
REMARK    2  A    between atoms: N_2  and  C_3
REMARK    3  A    between atoms: C_6  and  N_7
REMARK    4  A    between atoms: C_9  and  O_10
REMARK    5  A    between atoms: O_10  and  C_11
REMARK    6  A    between atoms: C_13  and  C_14
REMARK                            x       y       z     vdW  Elec       q    Type
REMARK                         _______ _______ _______ _____ _____    ______ ____
ROOT
ATOM      1  N   UNL     1       4.347   4.883  17.797  0.00  0.00    +0.000 N 
ATOM      2  N   UNL     1       4.069   5.993  18.534  0.00  0.00    +0.000 NA
ATOM      3  C   UNL     1       2.981   5.642  19.225  0.00  0.00    +0.000 A 
ATOM      4  C   UNL     1       2.668   4.283  19.103  0.00  0.00    +0.000 A 
ATOM      5  C   UNL     1       1.745   3.380  19.635  0.00  0.00    +0.000 A 
ATOM      6  N   UNL     1       0.752   3.718  20.538  0.00  0.00    +0.000 N 
ATOM      7  N   UNL     1       1.826   2.086  19.265  0.00  0.00    +0.000 NA
ATOM      8  C   UNL     1       2.789   1.732  18.392  0.00  0.00    +0.000 A 
ATOM      9  N   UNL     1       3.722   2.513  17.827  0.00  0.00    +0.000 NA
ATOM     10  C   UNL     1       3.606   3.798  18.202  0.00  0.00    +0.000 A 
ATOM     11  H   UNL     1       0.920   4.542  21.097  0.00  0.00    +0.000 HD
ATOM     12  H   UNL     1       0.378   2.903  21.008  0.00  0.00    +0.000 HD
ENDROOT
BRANCH   1  16
ATOM     13  C   UNL     1       7.756   6.694  17.667  0.00  0.00    +0.000 C 
ATOM     14  C   UNL     1       7.488   5.302  18.258  0.00  0.00    +0.000 C 
ATOM     15  C   UNL     1       6.743   4.392  17.284  0.00  0.00    +0.000 C 
ATOM     16  C   UNL     1       5.410   4.996  16.798  0.00  0.00    +0.000 C 
ATOM     17  C   UNL     1       5.679   6.383  16.191  0.00  0.00    +0.000 C 
ATOM     18  C   UNL     1       6.475   7.324  17.100  0.00  0.00    +0.000 C 
BRANCH  13  20
ATOM     19  C   UNL     1       8.350   9.003  18.210  0.00  0.00    +0.000 C 
ATOM     20  N   UNL     1       8.310   7.621  18.665  0.00  0.00    +0.000 NA
ATOM     21  H   UNL     1       7.767   7.563  19.526  0.00  0.00    +0.000 HD
ENDBRANCH  13  20
ENDBRANCH   1  16
BRANCH   3  22
ATOM     22  O   UNL     1       2.398   6.507  20.080  0.00  0.00    +0.000 OA
BRANCH  22  23
ATOM     23  C   UNL     1       1.926   7.732  19.649  0.00  0.00    +0.000 A 
ATOM     24  C   UNL     1       1.191   8.468  20.563  0.00  0.00    +0.000 A 
ATOM     25  C   UNL     1       0.661   9.696  20.159  0.00  0.00    +0.000 A 
ATOM     26  C   UNL     1       0.900  10.126  18.848  0.00  0.00    +0.000 A 
ATOM     27  C   UNL     1       1.620   9.303  17.999  0.00  0.00    +0.000 A 
ATOM     28  N   UNL     1       2.109   8.104  18.362  0.00  0.00    +0.000 NA
BRANCH  25  29
ATOM     29  C   UNL     1      -0.149  10.544  21.100  0.00  0.00    +0.000 C 
ATOM     30  F   UNL     1       0.550  11.583  21.635  0.00  0.00    +0.000 F 
ATOM     31  F   UNL     1      -1.239  11.093  20.499  0.00  0.00    +0.000 F 
ATOM     32  F   UNL     1      -0.625   9.831  22.158  0.00  0.00    +0.000 F 
ENDBRANCH  25  29
ENDBRANCH  22  23
ENDBRANCH   3  22
TORSDOF 5
ENDMDL
MODEL 3
REMARK VINA RESULT:      -8.4      5.318      8.248
REMARK  Name = 
REMARK  6 active torsions:
REMARK  status: ('A' for Active; 'I' for Inactive)
REMARK    1  A    between atoms: C_1  and  N_2
REMARK    2  A    between atoms: N_2  and  C_3
REMARK    3  A    between atoms: C_6  and  N_7
REMARK    4  A    between atoms: C_9  and  O_10
REMARK    5  A    between atoms: O_10  and  C_11
REMARK    6  A    between atoms: C_13  and  C_14
REMARK                            x       y       z     vdW  Elec       q    Type
REMARK                         _______ _______ _______ _____ _____    ______ ____
ROOT
ATOM      1  N   UNL     1       4.798   4.439  18.243  0.00  0.00    +0.000 N 
ATOM      2  N   UNL     1       4.570   5.574  18.960  0.00  0.00    +0.000 NA
ATOM      3  C   UNL     1       3.336   5.395  19.440  0.00  0.00    +0.000 A 
ATOM      4  C   UNL     1       2.842   4.104  19.217  0.00  0.00    +0.000 A 
ATOM      5  C   UNL     1       1.711   3.356  19.549  0.00  0.00    +0.000 A 
ATOM      6  N   UNL     1       0.639   3.840  20.278  0.00  0.00    +0.000 N 
ATOM      7  N   UNL     1       1.654   2.068  19.152  0.00  0.00    +0.000 NA
ATOM      8  C   UNL     1       2.688   1.572  18.447  0.00  0.00    +0.000 A 
ATOM      9  N   UNL     1       3.816   2.199  18.080  0.00  0.00    +0.000 NA
ATOM     10  C   UNL     1       3.837   3.483  18.475  0.00  0.00    +0.000 A 
ATOM     11  H   UNL     1       0.832   4.623  20.887  0.00  0.00    +0.000 HD
ATOM     12  H   UNL     1       0.066   3.092  20.647  0.00  0.00    +0.000 HD
ENDROOT
BRANCH   1  16
ATOM     13  C   UNL     1       7.440   7.047  17.179  0.00  0.00    +0.000 C 
ATOM     14  C   UNL     1       7.420   6.259  18.496  0.00  0.00    +0.000 C 
ATOM     15  C   UNL     1       7.276   4.755  18.269  0.00  0.00    +0.000 C 
ATOM     16  C   UNL     1       6.025   4.389  17.447  0.00  0.00    +0.000 C 
ATOM     17  C   UNL     1       6.051   5.166  16.120  0.00  0.00    +0.000 C 
ATOM     18  C   UNL     1       6.251   6.676  16.279  0.00  0.00    +0.000 C 
BRANCH  13  20
ATOM     19  C   UNL     1       8.493   8.990  18.227  0.00  0.00    +0.000 C 
ATOM     20  N   UNL     1       7.398   8.500  17.403  0.00  0.00    +0.000 NA
ATOM     21  H   UNL     1       7.403   8.986  16.507  0.00  0.00    +0.000 HD
ENDBRANCH  13  20
ENDBRANCH   1  16
BRANCH   3  22
ATOM     22  O   UNL     1       2.753   6.335  20.211  0.00  0.00    +0.000 OA
BRANCH  22  23
ATOM     23  C   UNL     1       2.196   7.472  19.657  0.00  0.00    +0.000 A 
ATOM     24  C   UNL     1       1.451   8.272  20.507  0.00  0.00    +0.000 A 
ATOM     25  C   UNL     1       0.836   9.412  19.982  0.00  0.00    +0.000 A 
ATOM     26  C   UNL     1       1.003   9.692  18.620  0.00  0.00    +0.000 A 
ATOM     27  C   UNL     1       1.740   8.812  17.845  0.00  0.00    +0.000 A 
ATOM     28  N   UNL     1       2.312   7.694  18.329  0.00  0.00    +0.000 NA
BRANCH  25  29
ATOM     29  C   UNL     1       0.011  10.323  20.848  0.00  0.00    +0.000 C 
ATOM     30  F   UNL     1      -0.664   9.671  21.835  0.00  0.00    +0.000 F 
ATOM     31  F   UNL     1       0.763  11.271  21.470  0.00  0.00    +0.000 F 
ATOM     32  F   UNL     1      -0.931  11.000  20.136  0.00  0.00    +0.000 F 
ENDBRANCH  25  29
ENDBRANCH  22  23
ENDBRANCH   3  22
TORSDOF 5
ENDMDL
MODEL 4
REMARK VINA RESULT:      -8.3      4.765      6.851
REMARK  Name = 
REMARK  6 active torsions:
REMARK  status: ('A' for Active; 'I' for Inactive)
REMARK    1  A    between atoms: C_1  and  N_2
REMARK    2  A    between atoms: N_2  and  C_3
REMARK    3  A    between atoms: C_6  and  N_7
REMARK    4  A    between atoms: C_9  and  O_10
REMARK    5  A    between atoms: O_10  and  C_11
REMARK    6  A    between atoms: C_13  and  C_14
REMARK                            x       y       z     vdW  Elec       q    Type
REMARK                         _______ _______ _______ _____ _____    ______ ____
ROOT
ATOM      1  N   UNL     1       3.469   4.456  17.277  0.00  0.00    +0.000 N 
ATOM      2  N   UNL     1       2.803   5.607  17.570  0.00  0.00    +0.000 NA
ATOM      3  C   UNL     1       3.771   6.528  17.589  0.00  0.00    +0.000 A 
ATOM      4  C   UNL     1       5.000   6.044  17.127  0.00  0.00    +0.000 A 
ATOM      5  C   UNL     1       6.276   6.543  16.857  0.00  0.00    +0.000 A 
ATOM      6  N   UNL     1       6.659   7.858  17.054  0.00  0.00    +0.000 N 
ATOM      7  N   UNL     1       7.202   5.701  16.354  0.00  0.00    +0.000 NA
ATOM      8  C   UNL     1       6.850   4.417  16.147  0.00  0.00    +0.000 A 
ATOM      9  N   UNL     1       5.660   3.839  16.368  0.00  0.00    +0.000 NA
ATOM     10  C   UNL     1       4.764   4.698  16.883  0.00  0.00    +0.000 A 
ATOM     11  H   UNL     1       5.917   8.543  17.047  0.00  0.00    +0.000 HD
ATOM     12  H   UNL     1       7.507   8.083  16.550  0.00  0.00    +0.000 HD
ENDROOT
BRANCH   1  16
ATOM     13  C   UNL     1       1.899   2.381  20.130  0.00  0.00    +0.000 C 
ATOM     14  C   UNL     1       1.252   3.573  19.411  0.00  0.00    +0.000 C 
ATOM     15  C   UNL     1       1.280   3.419  17.892  0.00  0.00    +0.000 C 
ATOM     16  C   UNL     1       2.704   3.211  17.337  0.00  0.00    +0.000 C 
ATOM     17  C   UNL     1       3.348   2.007  18.044  0.00  0.00    +0.000 C 
ATOM     18  C   UNL     1       3.298   2.076  19.574  0.00  0.00    +0.000 C 
BRANCH  13  20
ATOM     19  C   UNL     1       2.367   3.987  21.913  0.00  0.00    +0.000 C 
ATOM     20  N   UNL     1       2.031   2.612  21.576  0.00  0.00    +0.000 NA
ATOM     21  H   UNL     1       1.166   2.349  22.047  0.00  0.00    +0.000 HD
ENDBRANCH  13  20
ENDBRANCH   1  16
BRANCH   3  22
ATOM     22  O   UNL     1       3.489   7.820  17.857  0.00  0.00    +0.000 OA
BRANCH  22  23
ATOM     23  C   UNL     1       2.458   8.165  18.710  0.00  0.00    +0.000 A 
ATOM     24  C   UNL     1       1.608   9.170  18.277  0.00  0.00    +0.000 A 
ATOM     25  C   UNL     1       0.574   9.580  19.123  0.00  0.00    +0.000 A 
ATOM     26  C   UNL     1       0.446   8.954  20.369  0.00  0.00    +0.000 A 
ATOM     27  C   UNL     1       1.366   7.983  20.725  0.00  0.00    +0.000 A 
ATOM     28  N   UNL     1       2.385   7.599  19.935  0.00  0.00    +0.000 NA
BRANCH  25  29
ATOM     29  C   UNL     1      -0.382  10.666  18.716  0.00  0.00    +0.000 C 
ATOM     30  F   UNL     1      -1.107  10.364  17.604  0.00  0.00    +0.000 F 
ATOM     31  F   UNL     1      -1.288  10.953  19.690  0.00  0.00    +0.000 F 
ATOM     32  F   UNL     1       0.254  11.838  18.440  0.00  0.00    +0.000 F 
ENDBRANCH  25  29
ENDBRANCH  22  23
ENDBRANCH   3  22
TORSDOF 5
ENDMDL
MODEL 5
REMARK VINA RESULT:      -8.2      2.843      4.607
REMARK  Name = 
REMARK  6 active torsions:
REMARK  status: ('A' for Active; 'I' for Inactive)
REMARK    1  A    between atoms: C_1  and  N_2
REMARK    2  A    between atoms: N_2  and  C_3
REMARK    3  A    between atoms: C_6  and  N_7
REMARK    4  A    between atoms: C_9  and  O_10
REMARK    5  A    between atoms: O_10  and  C_11
REMARK    6  A    between atoms: C_13  and  C_14
REMARK                            x       y       z     vdW  Elec       q    Type
REMARK                         _______ _______ _______ _____ _____    ______ ____
ROOT
ATOM      1  N   UNL     1       2.238   6.165  19.968  0.00  0.00    +0.000 N 
ATOM      2  N   UNL     1       3.122   6.103  18.935  0.00  0.00    +0.000 NA
ATOM      3  C   UNL     1       2.931   7.259  18.293  0.00  0.00    +0.000 A 
ATOM      4  C   UNL     1       2.096   8.142  18.988  0.00  0.00    +0.000 A 
ATOM      5  C   UNL     1       1.632   9.452  18.855  0.00  0.00    +0.000 A 
ATOM      6  N   UNL     1       1.943  10.288  17.796  0.00  0.00    +0.000 N 
ATOM      7  N   UNL     1       0.841   9.955  19.824  0.00  0.00    +0.000 NA
ATOM      8  C   UNL     1       0.530   9.163  20.868  0.00  0.00    +0.000 A 
ATOM      9  N   UNL     1       0.922   7.900  21.094  0.00  0.00    +0.000 NA
ATOM     10  C   UNL     1       1.695   7.422  20.104  0.00  0.00    +0.000 A 
ATOM     11  H   UNL     1       2.799  10.081  17.302  0.00  0.00    +0.000 HD
ATOM     12  H   UNL     1       1.751  11.257  18.013  0.00  0.00    +0.000 HD
ENDROOT
BRANCH   1  16
ATOM     13  C   UNL     1       2.328   2.373  19.248  0.00  0.00    +0.000 C 
ATOM     14  C   UNL     1       3.539   3.272  19.534  0.00  0.00    +0.000 C 
ATOM     15  C   UNL     1       3.360   4.097  20.807  0.00  0.00    +0.000 C 
ATOM     16  C   UNL     1       2.085   4.963  20.787  0.00  0.00    +0.000 C 
ATOM     17  C   UNL     1       0.869   4.061  20.516  0.00  0.00    +0.000 C 
ATOM     18  C   UNL     1       1.013   3.165  19.282  0.00  0.00    +0.000 C 
BRANCH  13  20
ATOM     19  C   UNL     1       2.973   2.579  16.898  0.00  0.00    +0.000 C 
ATOM     20  N   UNL     1       2.424   1.718  17.934  0.00  0.00    +0.000 NA
ATOM     21  H   UNL     1       2.993   0.875  18.012  0.00  0.00    +0.000 HD
ENDBRANCH  13  20
ENDBRANCH   1  16
BRANCH   3  22
ATOM     22  O   UNL     1       3.641   7.560  17.187  0.00  0.00    +0.000 OA
BRANCH  22  23
ATOM     23  C   UNL     1       4.840   6.930  16.912  0.00  0.00    +0.000 A 
ATOM     24  C   UNL     1       4.823   5.984  15.900  0.00  0.00    +0.000 A 
ATOM     25  C   UNL     1       6.003   5.293  15.613  0.00  0.00    +0.000 A 
ATOM     26  C   UNL     1       7.148   5.590  16.362  0.00  0.00    +0.000 A 
ATOM     27  C   UNL     1       7.056   6.528  17.376  0.00  0.00    +0.000 A 
ATOM     28  N   UNL     1       5.920   7.180  17.685  0.00  0.00    +0.000 NA
BRANCH  25  29
ATOM     29  C   UNL     1       6.053   4.252  14.530  0.00  0.00    +0.000 C 
ATOM     30  F   UNL     1       4.926   4.206  13.766  0.00  0.00    +0.000 F 
ATOM     31  F   UNL     1       7.085   4.450  13.666  0.00  0.00    +0.000 F 
ATOM     32  F   UNL     1       6.218   2.996  15.028  0.00  0.00    +0.000 F 
ENDBRANCH  25  29
ENDBRANCH  22  23
ENDBRANCH   3  22
TORSDOF 5
ENDMDL
MODEL 6
REMARK VINA RESULT:      -8.2      5.012      6.938
REMARK  Name = 
REMARK  6 active torsions:
REMARK  status: ('A' for Active; 'I' for Inactive)
REMARK    1  A    between atoms: C_1  and  N_2
REMARK    2  A    between atoms: N_2  and  C_3
REMARK    3  A    between atoms: C_6  and  N_7
REMARK    4  A    between atoms: C_9  and  O_10
REMARK    5  A    between atoms: O_10  and  C_11
REMARK    6  A    between atoms: C_13  and  C_14
REMARK                            x       y       z     vdW  Elec       q    Type
REMARK                         _______ _______ _______ _____ _____    ______ ____
ROOT
ATOM      1  N   UNL     1       3.370   4.613  17.218  0.00  0.00    +0.000 N 
ATOM      2  N   UNL     1       2.873   5.778  17.718  0.00  0.00    +0.000 NA
ATOM      3  C   UNL     1       3.943   6.578  17.761  0.00  0.00    +0.000 A 
ATOM      4  C   UNL     1       5.063   6.031  17.126  0.00  0.00    +0.000 A 
ATOM      5  C   UNL     1       6.364   6.421  16.800  0.00  0.00    +0.000 A 
ATOM      6  N   UNL     1       6.917   7.647  17.126  0.00  0.00    +0.000 N 
ATOM      7  N   UNL     1       7.138   5.562  16.108  0.00  0.00    +0.000 NA
ATOM      8  C   UNL     1       6.620   4.364  15.772  0.00  0.00    +0.000 A 
ATOM      9  N   UNL     1       5.390   3.893  16.031  0.00  0.00    +0.000 NA
ATOM     10  C   UNL     1       4.649   4.765  16.736  0.00  0.00    +0.000 A 
ATOM     11  H   UNL     1       6.265   8.403  17.278  0.00  0.00    +0.000 HD
ATOM     12  H   UNL     1       7.743   7.846  16.576  0.00  0.00    +0.000 HD
ENDROOT
BRANCH   1  16
ATOM     13  C   UNL     1       1.724   2.403  19.924  0.00  0.00    +0.000 C 
ATOM     14  C   UNL     1       1.183   3.736  19.387  0.00  0.00    +0.000 C 
ATOM     15  C   UNL     1       1.111   3.759  17.861  0.00  0.00    +0.000 C 
ATOM     16  C   UNL     1       2.467   3.462  17.191  0.00  0.00    +0.000 C 
ATOM     17  C   UNL     1       3.003   2.120  17.716  0.00  0.00    +0.000 C 
ATOM     18  C   UNL     1       3.045   2.013  19.244  0.00  0.00    +0.000 C 
BRANCH  13  20
ATOM     19  C   UNL     1       2.318   3.771  21.862  0.00  0.00    +0.000 C 
ATOM     20  N   UNL     1       1.962   2.447  21.375  0.00  0.00    +0.000 NA
ATOM     21  H   UNL     1       1.133   2.115  21.868  0.00  0.00    +0.000 HD
ENDBRANCH  13  20
ENDBRANCH   1  16
BRANCH   3  22
ATOM     22  O   UNL     1       3.841   7.843  18.218  0.00  0.00    +0.000 OA
BRANCH  22  23
ATOM     23  C   UNL     1       2.608   8.425  18.445  0.00  0.00    +0.000 A 
ATOM     24  C   UNL     1       2.111   8.335  19.736  0.00  0.00    +0.000 A 
ATOM     25  C   UNL     1       0.851   8.875  20.004  0.00  0.00    +0.000 A 
ATOM     26  C   UNL     1       0.150   9.483  18.956  0.00  0.00    +0.000 A 
ATOM     27  C   UNL     1       0.717   9.493  17.693  0.00  0.00    +0.000 A 
ATOM     28  N   UNL     1       1.915   8.950  17.411  0.00  0.00    +0.000 NA
BRANCH  25  29
ATOM     29  C   UNL     1       0.251   8.809  21.381  0.00  0.00    +0.000 C 
ATOM     30  F   UNL     1      -0.692   7.836  21.518  0.00  0.00    +0.000 F 
ATOM     31  F   UNL     1       1.182   8.569  22.343  0.00  0.00    +0.000 F 
ATOM     32  F   UNL     1      -0.360   9.973  21.734  0.00  0.00    +0.000 F 
ENDBRANCH  25  29
ENDBRANCH  22  23
ENDBRANCH   3  22
TORSDOF 5
ENDMDL
MODEL 7
REMARK VINA RESULT:      -8.0      3.866      5.574
REMARK  Name = 
REMARK  6 active torsions:
REMARK  status: ('A' for Active; 'I' for Inactive)
REMARK    1  A    between atoms: C_1  and  N_2
REMARK    2  A    between atoms: N_2  and  C_3
REMARK    3  A    between atoms: C_6  and  N_7
REMARK    4  A    between atoms: C_9  and  O_10
REMARK    5  A    between atoms: O_10  and  C_11
REMARK    6  A    between atoms: C_13  and  C_14
REMARK                            x       y       z     vdW  Elec       q    Type
REMARK                         _______ _______ _______ _____ _____    ______ ____
ROOT
ATOM      1  N   UNL     1       2.025   6.087  19.943  0.00  0.00    +0.000 N 
ATOM      2  N   UNL     1       2.869   5.919  18.889  0.00  0.00    +0.000 NA
ATOM      3  C   UNL     1       2.780   7.078  18.231  0.00  0.00    +0.000 A 
ATOM      4  C   UNL     1       2.059   8.052  18.932  0.00  0.00    +0.000 A 
ATOM      5  C   UNL     1       1.728   9.401  18.787  0.00  0.00    +0.000 A 
ATOM      6  N   UNL     1       2.093  10.184  17.706  0.00  0.00    +0.000 N 
ATOM      7  N   UNL     1       1.019   9.998  19.766  0.00  0.00    +0.000 NA
ATOM      8  C   UNL     1       0.658   9.258  20.833  0.00  0.00    +0.000 A 
ATOM      9  N   UNL     1       0.924   7.965  21.071  0.00  0.00    +0.000 NA
ATOM     10  C   UNL     1       1.617   7.394  20.071  0.00  0.00    +0.000 A 
ATOM     11  H   UNL     1       2.910   9.883  17.194  0.00  0.00    +0.000 HD
ATOM     12  H   UNL     1       2.008  11.172  17.910  0.00  0.00    +0.000 HD
ENDROOT
BRANCH   1  16
ATOM     13  C   UNL     1       2.401   2.274  19.468  0.00  0.00    +0.000 C 
ATOM     14  C   UNL     1       3.501   3.246  19.918  0.00  0.00    +0.000 C 
ATOM     15  C   UNL     1       3.056   4.121  21.089  0.00  0.00    +0.000 C 
ATOM     16  C   UNL     1       1.772   4.919  20.787  0.00  0.00    +0.000 C 
ATOM     17  C   UNL     1       0.665   3.945  20.351  0.00  0.00    +0.000 C 
ATOM     18  C   UNL     1       1.071   2.999  19.216  0.00  0.00    +0.000 C 
BRANCH  13  20
ATOM     19  C   UNL     1       3.721   2.286  17.408  0.00  0.00    +0.000 C 
ATOM     20  N   UNL     1       2.765   1.562  18.233  0.00  0.00    +0.000 NA
ATOM     21  H   UNL     1       3.143   0.644  18.465  0.00  0.00    +0.000 HD
ENDBRANCH  13  20
ENDBRANCH   1  16
BRANCH   3  22
ATOM     22  O   UNL     1       3.487   7.288  17.102  0.00  0.00    +0.000 OA
BRANCH  22  23
ATOM     23  C   UNL     1       4.674   6.620  16.866  0.00  0.00    +0.000 A 
ATOM     24  C   UNL     1       5.560   6.543  17.928  0.00  0.00    +0.000 A 
ATOM     25  C   UNL     1       6.790   5.911  17.726  0.00  0.00    +0.000 A 
ATOM     26  C   UNL     1       7.067   5.384  16.459  0.00  0.00    +0.000 A 
ATOM     27  C   UNL     1       6.130   5.541  15.452  0.00  0.00    +0.000 A 
ATOM     28  N   UNL     1       4.955   6.174  15.622  0.00  0.00    +0.000 NA
BRANCH  25  29
ATOM     29  C   UNL     1       7.799   5.795  18.834  0.00  0.00    +0.000 C 
ATOM     30  F   UNL     1       8.621   6.876  18.936  0.00  0.00    +0.000 F 
ATOM     31  F   UNL     1       7.216   5.649  20.055  0.00  0.00    +0.000 F 
ATOM     32  F   UNL     1       8.616   4.718  18.678  0.00  0.00    +0.000 F 
ENDBRANCH  25  29
ENDBRANCH  22  23
ENDBRANCH   3  22
TORSDOF 5
ENDMDL
MODEL 8
REMARK VINA RESULT:      -7.9      0.699      1.093
REMARK  Name = 
REMARK  6 active torsions:
REMARK  status: ('A' for Active; 'I' for Inactive)
REMARK    1  A    between atoms: C_1  and  N_2
REMARK    2  A    between atoms: N_2  and  C_3
REMARK    3  A    between atoms: C_6  and  N_7
REMARK    4  A    between atoms: C_9  and  O_10
REMARK    5  A    between atoms: O_10  and  C_11
REMARK    6  A    between atoms: C_13  and  C_14
REMARK                            x       y       z     vdW  Elec       q    Type
REMARK                         _______ _______ _______ _____ _____    ______ ____
ROOT
ATOM      1  N   UNL     1       4.886   3.939  17.849  0.00  0.00    +0.000 N 
ATOM      2  N   UNL     1       4.690   4.217  16.531  0.00  0.00    +0.000 NA
ATOM      3  C   UNL     1       5.427   5.313  16.332  0.00  0.00    +0.000 A 
ATOM      4  C   UNL     1       6.241   5.634  17.425  0.00  0.00    +0.000 A 
ATOM      5  C   UNL     1       7.229   6.568  17.743  0.00  0.00    +0.000 A 
ATOM      6  N   UNL     1       7.665   7.566  16.890  0.00  0.00    +0.000 N 
ATOM      7  N   UNL     1       7.819   6.492  18.953  0.00  0.00    +0.000 NA
ATOM      8  C   UNL     1       7.417   5.523  19.798  0.00  0.00    +0.000 A 
ATOM      9  N   UNL     1       6.485   4.580  19.593  0.00  0.00    +0.000 NA
ATOM     10  C   UNL     1       5.905   4.691  18.386  0.00  0.00    +0.000 A 
ATOM     11  H   UNL     1       7.532   7.398  15.903  0.00  0.00    +0.000 HD
ATOM     12  H   UNL     1       8.554   7.950  17.182  0.00  0.00    +0.000 HD
ENDROOT
BRANCH   1  16
ATOM     13  C   UNL     1       1.654   3.826  19.959  0.00  0.00    +0.000 C 
ATOM     14  C   UNL     1       1.737   3.895  18.428  0.00  0.00    +0.000 C 
ATOM     15  C   UNL     1       2.653   2.819  17.848  0.00  0.00    +0.000 C 
ATOM     16  C   UNL     1       4.079   2.866  18.431  0.00  0.00    +0.000 C 
ATOM     17  C   UNL     1       3.999   2.781  19.964  0.00  0.00    +0.000 C 
ATOM     18  C   UNL     1       3.049   3.800  20.602  0.00  0.00    +0.000 C 
BRANCH  13  20
ATOM     19  C   UNL     1       1.701   6.196  20.562  0.00  0.00    +0.000 C 
ATOM     20  N   UNL     1       0.920   4.968  20.526  0.00  0.00    +0.000 NA
ATOM     21  H   UNL     1       0.065   5.125  19.993  0.00  0.00    +0.000 HD
ENDBRANCH  13  20
ENDBRANCH   1  16
BRANCH   3  22
ATOM     22  O   UNL     1       5.480   5.899  15.118  0.00  0.00    +0.000 OA
BRANCH  22  23
ATOM     23  C   UNL     1       5.981   5.227  14.020  0.00  0.00    +0.000 A 
ATOM     24  C   UNL     1       5.077   4.469  13.293  0.00  0.00    +0.000 A 
ATOM     25  C   UNL     1       5.546   3.741  12.197  0.00  0.00    +0.000 A 
ATOM     26  C   UNL     1       6.909   3.812  11.883  0.00  0.00    +0.000 A 
ATOM     27  C   UNL     1       7.739   4.572  12.691  0.00  0.00    +0.000 A 
ATOM     28  N   UNL     1       7.309   5.253  13.768  0.00  0.00    +0.000 NA
BRANCH  25  29
ATOM     29  C   UNL     1       4.620   2.896  11.367  0.00  0.00    +0.000 C 
ATOM     30  F   UNL     1       4.328   3.441  10.153  0.00  0.00    +0.000 F 
ATOM     31  F   UNL     1       5.131   1.661  11.112  0.00  0.00    +0.000 F 
ATOM     32  F   UNL     1       3.423   2.687  11.980  0.00  0.00    +0.000 F 
ENDBRANCH  25  29
ENDBRANCH  22  23
ENDBRANCH   3  22
TORSDOF 5
ENDMDL
MODEL 9
REMARK VINA RESULT:      -7.9      4.726      6.275
REMARK  Name = 
REMARK  6 active torsions:
REMARK  status: ('A' for Active; 'I' for Inactive)
REMARK    1  A    between atoms: C_1  and  N_2
REMARK    2  A    between atoms: N_2  and  C_3
REMARK    3  A    between atoms: C_6  and  N_7
REMARK    4  A    between atoms: C_9  and  O_10
REMARK    5  A    between atoms: O_10  and  C_11
REMARK    6  A    between atoms: C_13  and  C_14
REMARK                            x       y       z     vdW  Elec       q    Type
REMARK                         _______ _______ _______ _____ _____    ______ ____
ROOT
ATOM      1  N   UNL     1       4.390   4.281  17.560  0.00  0.00    +0.000 N 
ATOM      2  N   UNL     1       3.529   5.223  17.085  0.00  0.00    +0.000 NA
ATOM      3  C   UNL     1       4.200   6.367  17.248  0.00  0.00    +0.000 A 
ATOM      4  C   UNL     1       5.533   6.172  17.628  0.00  0.00    +0.000 A 
ATOM      5  C   UNL     1       6.673   6.949  17.849  0.00  0.00    +0.000 A 
ATOM      6  N   UNL     1       6.711   8.328  17.742  0.00  0.00    +0.000 N 
ATOM      7  N   UNL     1       7.823   6.325  18.173  0.00  0.00    +0.000 NA
ATOM      8  C   UNL     1       7.812   4.982  18.276  0.00  0.00    +0.000 A 
ATOM      9  N   UNL     1       6.781   4.145  18.083  0.00  0.00    +0.000 NA
ATOM     10  C   UNL     1       5.646   4.797  17.778  0.00  0.00    +0.000 A 
ATOM     11  H   UNL     1       6.011   8.748  17.147  0.00  0.00    +0.000 HD
ATOM     12  H   UNL     1       7.659   8.673  17.663  0.00  0.00    +0.000 HD
ENDROOT
BRANCH   1  16
ATOM     13  C   UNL     1       1.649   2.568  19.672  0.00  0.00    +0.000 C 
ATOM     14  C   UNL     1       1.445   3.291  18.333  0.00  0.00    +0.000 C 
ATOM     15  C   UNL     1       2.405   2.794  17.254  0.00  0.00    +0.000 C 
ATOM     16  C   UNL     1       3.886   2.912  17.668  0.00  0.00    +0.000 C 
ATOM     17  C   UNL     1       4.095   2.175  19.001  0.00  0.00    +0.000 C 
ATOM     18  C   UNL     1       3.122   2.589  20.109  0.00  0.00    +0.000 C 
BRANCH  13  20
ATOM     19  C   UNL     1       1.445   3.002  22.070  0.00  0.00    +0.000 C 
ATOM     20  N   UNL     1       0.852   3.168  20.752  0.00  0.00    +0.000 NA
ATOM     21  H   UNL     1       0.713   4.161  20.565  0.00  0.00    +0.000 HD
ENDBRANCH  13  20
ENDBRANCH   1  16
BRANCH   3  22
ATOM     22  O   UNL     1       3.653   7.546  16.888  0.00  0.00    +0.000 OA
BRANCH  22  23
ATOM     23  C   UNL     1       2.800   8.227  17.736  0.00  0.00    +0.000 A 
ATOM     24  C   UNL     1       2.481   7.597  18.928  0.00  0.00    +0.000 A 
ATOM     25  C   UNL     1       1.591   8.230  19.800  0.00  0.00    +0.000 A 
ATOM     26  C   UNL     1       1.065   9.473  19.428  0.00  0.00    +0.000 A 
ATOM     27  C   UNL     1       1.420  10.006  18.200  0.00  0.00    +0.000 A 
ATOM     28  N   UNL     1       2.250   9.395  17.336  0.00  0.00    +0.000 NA
BRANCH  25  29
ATOM     29  C   UNL     1       1.199   7.601  21.107  0.00  0.00    +0.000 C 
ATOM     30  F   UNL     1       1.573   6.296  21.217  0.00  0.00    +0.000 F 
ATOM     31  F   UNL     1       1.746   8.240  22.177  0.00  0.00    +0.000 F 
ATOM     32  F   UNL     1      -0.147   7.621  21.308  0.00  0.00    +0.000 F 
ENDBRANCH  25  29
ENDBRANCH  22  23
ENDBRANCH   3  22
TORSDOF 5
ENDMDL
