MODEL 1
REMARK VINA RESULT:      -6.4      0.000      0.000
REMARK  Name = 
REMARK  8 active torsions:
REMARK  status: ('A' for Active; 'I' for Inactive)
REMARK    1  A    between atoms: C_1  and  C_2
REMARK    2  A    between atoms: N_4  and  C_5
REMARK    3  A    between atoms: N_4  and  C_6
REMARK    4  A    between atoms: C_6  and  C_7
REMARK    5  A    between atoms: C_8  and  C_9
REMARK    6  A    between atoms: C_9  and  N_10
REMARK    7  A    between atoms: C_13  and  C_14
REMARK    8  A    between atoms: C_14  and  O_15
REMARK                            x       y       z     vdW  Elec       q    Type
REMARK                         _______ _______ _______ _____ _____    ______ ____
ROOT
ATOM      1  C   UNL     1       7.940   6.711  18.512  0.00  0.00    +0.000 C 
ENDROOT
BRANCH   1   2
ATOM      2  N   UNL     1       7.247   6.208  17.314  0.00  0.00    +0.000 NA
ATOM      3  C   UNL     1       7.237   4.733  17.292  0.00  0.00    +0.000 C 
ATOM      4  C   UNL     1       6.577   4.203  16.020  0.00  0.00    +0.000 C 
ATOM      5  C   UNL     1       5.145   4.730  15.873  0.00  0.00    +0.000 C 
ATOM      6  C   UNL     1       5.173   6.262  15.961  0.00  0.00    +0.000 C 
ATOM      7  C   UNL     1       5.885   6.755  17.228  0.00  0.00    +0.000 C 
BRANCH   5   8
ATOM      8  C   UNL     1       4.200   4.131  16.923  0.00  0.00    +0.000 C 
BRANCH   8   9
ATOM      9  O   UNL     1       4.543   2.782  17.206  0.00  0.00    +0.000 OA
ATOM     10  H   UNL     1       5.511   2.738  17.289  0.00  0.00    +0.000 HD
ENDBRANCH   8   9
ENDBRANCH   5   8
ENDBRANCH   1   2
BRANCH   1  12
ATOM     11  C   UNL     1       8.597   9.400  18.276  0.00  0.00    +0.000 C 
ATOM     12  C   UNL     1       8.288   8.138  18.372  0.00  0.00    +0.000 C 
BRANCH  11  13
ATOM     13  C   UNL     1       8.960  10.872  18.164  0.00  0.00    +0.000 C 
BRANCH  13  17
ATOM     14  C   UNL     1      12.163  12.031  19.924  0.00  0.00    +0.000 C 
ATOM     15  C   UNL     1      11.189  11.659  18.832  0.00  0.00    +0.000 C 
ATOM     16  O   UNL     1      11.531  11.742  17.653  0.00  0.00    +0.000 OA
ATOM     17  N   UNL     1       9.916  11.255  19.208  0.00  0.00    +0.000 N 
ATOM     18  C   UNL     1       9.481  11.138  20.601  0.00  0.00    +0.000 C 
ENDBRANCH  13  17
ENDBRANCH  11  13
ENDBRANCH   1  12
TORSDOF 6
ENDMDL
MODEL 2
REMARK VINA RESULT:      -6.3      4.153      6.793
REMARK  Name = 
REMARK  8 active torsions:
REMARK  status: ('A' for Active; 'I' for Inactive)
REMARK    1  A    between atoms: C_1  and  C_2
REMARK    2  A    between atoms: N_4  and  C_5
REMARK    3  A    between atoms: N_4  and  C_6
REMARK    4  A    between atoms: C_6  and  C_7
REMARK    5  A    between atoms: C_8  and  C_9
REMARK    6  A    between atoms: C_9  and  N_10
REMARK    7  A    between atoms: C_13  and  C_14
REMARK    8  A    between atoms: C_14  and  O_15
REMARK                            x       y       z     vdW  Elec       q    Type
REMARK                         _______ _______ _______ _____ _____    ______ ____
ROOT
ATOM      1  C   UNL     1       3.392   1.548  18.298  0.00  0.00    +0.000 C 
ENDROOT
BRANCH   1   2
ATOM      2  N   UNL     1       2.528   2.139  19.334  0.00  0.00    +0.000 NA
ATOM      3  C   UNL     1       3.335   2.780  20.389  0.00  0.00    +0.000 C 
ATOM      4  C   UNL     1       2.449   3.341  21.500  0.00  0.00    +0.000 C 
ATOM      5  C   UNL     1       1.429   4.345  20.950  0.00  0.00    +0.000 C 
ATOM      6  C   UNL     1       0.645   3.675  19.812  0.00  0.00    +0.000 C 
ATOM      7  C   UNL     1       1.571   3.086  18.741  0.00  0.00    +0.000 C 
BRANCH   5   8
ATOM      8  C   UNL     1       2.098   5.641  20.475  0.00  0.00    +0.000 C 
BRANCH   8   9
ATOM      9  O   UNL     1       1.510   6.775  21.098  0.00  0.00    +0.000 OA
ATOM     10  H   UNL     1       1.039   7.274  20.410  0.00  0.00    +0.000 HD
ENDBRANCH   8   9
ENDBRANCH   5   8
ENDBRANCH   1   2
BRANCH   1  12
ATOM     11  C   UNL     1       4.570   3.521  16.738  0.00  0.00    +0.000 C 
ATOM     12  C   UNL     1       4.031   2.590  17.473  0.00  0.00    +0.000 C 
BRANCH  11  13
ATOM     13  C   UNL     1       5.199   4.607  15.880  0.00  0.00    +0.000 C 
BRANCH  13  17
ATOM     14  C   UNL     1       7.624   6.724  17.963  0.00  0.00    +0.000 C 
ATOM     15  C   UNL     1       7.085   5.620  17.086  0.00  0.00    +0.000 C 
ATOM     16  O   UNL     1       7.832   4.719  16.707  0.00  0.00    +0.000 OA
ATOM     17  N   UNL     1       5.749   5.679  16.717  0.00  0.00    +0.000 N 
ATOM     18  C   UNL     1       4.831   6.733  17.157  0.00  0.00    +0.000 C 
ENDBRANCH  13  17
ENDBRANCH  11  13
ENDBRANCH   1  12
TORSDOF 6
ENDMDL
MODEL 3
REMARK VINA RESULT:      -6.1      3.985      6.672
REMARK  Name = 
REMARK  8 active torsions:
REMARK  status: ('A' for Active; 'I' for Inactive)
REMARK    1  A    between atoms: C_1  and  C_2
REMARK    2  A    between atoms: N_4  and  C_5
REMARK    3  A    between atoms: N_4  and  C_6
REMARK    4  A    between atoms: C_6  and  C_7
REMARK    5  A    between atoms: C_8  and  C_9
REMARK    6  A    between atoms: C_9  and  N_10
REMARK    7  A    between atoms: C_13  and  C_14
REMARK    8  A    between atoms: C_14  and  O_15
REMARK                            x       y       z     vdW  Elec       q    Type
REMARK                         _______ _______ _______ _____ _____    ______ ____
ROOT
ATOM      1  C   UNL     1       3.495   1.564  18.341  0.00  0.00    +0.000 C 
ENDROOT
BRANCH   1   2
ATOM      2  N   UNL     1       2.590   2.175  19.329  0.00  0.00    +0.000 NA
ATOM      3  C   UNL     1       3.350   2.934  20.340  0.00  0.00    +0.000 C 
ATOM      4  C   UNL     1       2.424   3.518  21.406  0.00  0.00    +0.000 C 
ATOM      5  C   UNL     1       1.352   4.419  20.782  0.00  0.00    +0.000 C 
ATOM      6  C   UNL     1       0.617   3.627  19.692  0.00  0.00    +0.000 C 
ATOM      7  C   UNL     1       1.585   3.019  18.668  0.00  0.00    +0.000 C 
BRANCH   5   8
ATOM      8  C   UNL     1       1.947   5.716  20.220  0.00  0.00    +0.000 C 
BRANCH   8   9
ATOM      9  O   UNL     1       1.840   6.775  21.161  0.00  0.00    +0.000 OA
ATOM     10  H   UNL     1       2.736   7.118  21.319  0.00  0.00    +0.000 HD
ENDBRANCH   8   9
ENDBRANCH   5   8
ENDBRANCH   1   2
BRANCH   1  12
ATOM     11  C   UNL     1       4.827   3.494  16.851  0.00  0.00    +0.000 C 
ATOM     12  C   UNL     1       4.211   2.592  17.561  0.00  0.00    +0.000 C 
BRANCH  11  13
ATOM     13  C   UNL     1       5.546   4.546  16.022  0.00  0.00    +0.000 C 
BRANCH  13  17
ATOM     14  C   UNL     1       7.542   7.354  17.705  0.00  0.00    +0.000 C 
ATOM     15  C   UNL     1       6.496   6.642  16.881  0.00  0.00    +0.000 C 
ATOM     16  O   UNL     1       5.629   7.293  16.299  0.00  0.00    +0.000 OA
ATOM     17  N   UNL     1       6.542   5.257  16.831  0.00  0.00    +0.000 N 
ATOM     18  C   UNL     1       7.565   4.454  17.504  0.00  0.00    +0.000 C 
ENDBRANCH  13  17
ENDBRANCH  11  13
ENDBRANCH   1  12
TORSDOF 6
ENDMDL
MODEL 4
REMARK VINA RESULT:      -6.1      3.571      5.914
REMARK  Name = 
REMARK  8 active torsions:
REMARK  status: ('A' for Active; 'I' for Inactive)
REMARK    1  A    between atoms: C_1  and  C_2
REMARK    2  A    between atoms: N_4  and  C_5
REMARK    3  A    between atoms: N_4  and  C_6
REMARK    4  A    between atoms: C_6  and  C_7
REMARK    5  A    between atoms: C_8  and  C_9
REMARK    6  A    between atoms: C_9  and  N_10
REMARK    7  A    between atoms: C_13  and  C_14
REMARK    8  A    between atoms: C_14  and  O_15
REMARK                            x       y       z     vdW  Elec       q    Type
REMARK                         _______ _______ _______ _____ _____    ______ ____
ROOT
ATOM      1  C   UNL     1       3.127   3.672  16.916  0.00  0.00    +0.000 C 
ENDROOT
BRANCH   1   2
ATOM      2  N   UNL     1       2.317   4.161  18.045  0.00  0.00    +0.000 NA
ATOM      3  C   UNL     1       1.574   3.056  18.677  0.00  0.00    +0.000 C 
ATOM      4  C   UNL     1       0.682   3.564  19.808  0.00  0.00    +0.000 C 
ATOM      5  C   UNL     1       1.496   4.312  20.870  0.00  0.00    +0.000 C 
ATOM      6  C   UNL     1       2.308   5.417  20.179  0.00  0.00    +0.000 C 
ATOM      7  C   UNL     1       3.155   4.873  19.021  0.00  0.00    +0.000 C 
BRANCH   5   8
ATOM      8  C   UNL     1       2.407   3.369  21.666  0.00  0.00    +0.000 C 
BRANCH   8   9
ATOM      9  O   UNL     1       1.666   2.289  22.216  0.00  0.00    +0.000 OA
ATOM     10  H   UNL     1       2.189   1.480  22.088  0.00  0.00    +0.000 HD
ENDBRANCH   8   9
ENDBRANCH   5   8
ENDBRANCH   1   2
BRANCH   1  12
ATOM     11  C   UNL     1       5.830   4.131  17.365  0.00  0.00    +0.000 C 
ATOM     12  C   UNL     1       4.564   3.920  17.140  0.00  0.00    +0.000 C 
BRANCH  11  13
ATOM     13  C   UNL     1       7.307   4.377  17.628  0.00  0.00    +0.000 C 
BRANCH  13  17
ATOM     14  C   UNL     1       7.873   8.161  17.886  0.00  0.00    +0.000 C 
ATOM     15  C   UNL     1       7.634   6.790  17.300  0.00  0.00    +0.000 C 
ATOM     16  O   UNL     1       7.523   6.656  16.082  0.00  0.00    +0.000 OA
ATOM     17  N   UNL     1       7.523   5.721  18.177  0.00  0.00    +0.000 N 
ATOM     18  C   UNL     1       7.658   5.845  19.629  0.00  0.00    +0.000 C 
ENDBRANCH  13  17
ENDBRANCH  11  13
ENDBRANCH   1  12
TORSDOF 6
ENDMDL
MODEL 5
REMARK VINA RESULT:      -6.0      4.150      6.485
REMARK  Name = 
REMARK  8 active torsions:
REMARK  status: ('A' for Active; 'I' for Inactive)
REMARK    1  A    between atoms: C_1  and  C_2
REMARK    2  A    between atoms: N_4  and  C_5
REMARK    3  A    between atoms: N_4  and  C_6
REMARK    4  A    between atoms: C_6  and  C_7
REMARK    5  A    between atoms: C_8  and  C_9
REMARK    6  A    between atoms: C_9  and  N_10
REMARK    7  A    between atoms: C_13  and  C_14
REMARK    8  A    between atoms: C_14  and  O_15
REMARK                            x       y       z     vdW  Elec       q    Type
REMARK                         _______ _______ _______ _____ _____    ______ ____
ROOT
ATOM      1  C   UNL     1       2.961   2.530  17.069  0.00  0.00    +0.000 C 
ENDROOT
BRANCH   1   2
ATOM      2  N   UNL     1       2.098   3.249  18.021  0.00  0.00    +0.000 NA
ATOM      3  C   UNL     1       1.408   2.306  18.921  0.00  0.00    +0.000 C 
ATOM      4  C   UNL     1       0.461   3.040  19.870  0.00  0.00    +0.000 C 
ATOM      5  C   UNL     1       1.206   4.093  20.699  0.00  0.00    +0.000 C 
ATOM      6  C   UNL     1       1.966   5.023  19.743  0.00  0.00    +0.000 C 
ATOM      7  C   UNL     1       2.870   4.246  18.777  0.00  0.00    +0.000 C 
BRANCH   5   8
ATOM      8  C   UNL     1       2.153   3.454  21.723  0.00  0.00    +0.000 C 
BRANCH   8   9
ATOM      9  O   UNL     1       1.549   2.327  22.341  0.00  0.00    +0.000 OA
ATOM     10  H   UNL     1       0.764   2.093  21.818  0.00  0.00    +0.000 HD
ENDBRANCH   8   9
ENDBRANCH   5   8
ENDBRANCH   1   2
BRANCH   1  12
ATOM     11  C   UNL     1       5.169   4.043  16.328  0.00  0.00    +0.000 C 
ATOM     12  C   UNL     1       4.126   3.346  16.678  0.00  0.00    +0.000 C 
BRANCH  11  13
ATOM     13  C   UNL     1       6.387   4.857  15.919  0.00  0.00    +0.000 C 
BRANCH  13  17
ATOM     14  C   UNL     1       8.138   6.211  19.050  0.00  0.00    +0.000 C 
ATOM     15  C   UNL     1       7.733   5.284  17.930  0.00  0.00    +0.000 C 
ATOM     16  O   UNL     1       8.239   4.165  17.848  0.00  0.00    +0.000 OA
ATOM     17  N   UNL     1       6.807   5.748  17.006  0.00  0.00    +0.000 N 
ATOM     18  C   UNL     1       6.181   7.070  17.079  0.00  0.00    +0.000 C 
ENDBRANCH  13  17
ENDBRANCH  11  13
ENDBRANCH   1  12
TORSDOF 6
ENDMDL
MODEL 6
REMARK VINA RESULT:      -6.0      4.199      8.106
REMARK  Name = 
REMARK  8 active torsions:
REMARK  status: ('A' for Active; 'I' for Inactive)
REMARK    1  A    between atoms: C_1  and  C_2
REMARK    2  A    between atoms: N_4  and  C_5
REMARK    3  A    between atoms: N_4  and  C_6
REMARK    4  A    between atoms: C_6  and  C_7
REMARK    5  A    between atoms: C_8  and  C_9
REMARK    6  A    between atoms: C_9  and  N_10
REMARK    7  A    between atoms: C_13  and  C_14
REMARK    8  A    between atoms: C_14  and  O_15
REMARK                            x       y       z     vdW  Elec       q    Type
REMARK                         _______ _______ _______ _____ _____    ______ ____
ROOT
ATOM      1  C   UNL     1       4.988   5.052  15.506  0.00  0.00    +0.000 C 
ENDROOT
BRANCH   1   2
ATOM      2  N   UNL     1       6.256   5.385  16.177  0.00  0.00    +0.000 NA
ATOM      3  C   UNL     1       6.114   6.604  16.995  0.00  0.00    +0.000 C 
ATOM      4  C   UNL     1       7.441   6.992  17.645  0.00  0.00    +0.000 C 
ATOM      5  C   UNL     1       7.996   5.854  18.508  0.00  0.00    +0.000 C 
ATOM      6  C   UNL     1       8.076   4.582  17.652  0.00  0.00    +0.000 C 
ATOM      7  C   UNL     1       6.736   4.251  16.981  0.00  0.00    +0.000 C 
BRANCH   5   8
ATOM      8  C   UNL     1       7.151   5.623  19.768  0.00  0.00    +0.000 C 
BRANCH   8   9
ATOM      9  O   UNL     1       7.973   5.307  20.882  0.00  0.00    +0.000 OA
ATOM     10  H   UNL     1       8.298   6.145  21.252  0.00  0.00    +0.000 HD
ENDBRANCH   8   9
ENDBRANCH   5   8
ENDBRANCH   1   2
BRANCH   1  12
ATOM     11  C   UNL     1       3.403   3.407  17.086  0.00  0.00    +0.000 C 
ATOM     12  C   UNL     1       4.142   4.191  16.353  0.00  0.00    +0.000 C 
BRANCH  11  13
ATOM     13  C   UNL     1       2.540   2.493  17.942  0.00  0.00    +0.000 C 
BRANCH  13  17
ATOM     14  C   UNL     1       2.140   3.082  21.709  0.00  0.00    +0.000 C 
ATOM     15  C   UNL     1       1.800   2.885  20.252  0.00  0.00    +0.000 C 
ATOM     16  O   UNL     1       0.624   2.897  19.890  0.00  0.00    +0.000 OA
ATOM     17  N   UNL     1       2.846   2.670  19.366  0.00  0.00    +0.000 N 
ATOM     18  C   UNL     1       4.256   2.658  19.762  0.00  0.00    +0.000 C 
ENDBRANCH  13  17
ENDBRANCH  11  13
ENDBRANCH   1  12
TORSDOF 6
ENDMDL
MODEL 7
REMARK VINA RESULT:      -6.0      5.113      6.853
REMARK  Name = 
REMARK  8 active torsions:
REMARK  status: ('A' for Active; 'I' for Inactive)
REMARK    1  A    between atoms: C_1  and  C_2
REMARK    2  A    between atoms: N_4  and  C_5
REMARK    3  A    between atoms: N_4  and  C_6
REMARK    4  A    between atoms: C_6  and  C_7
REMARK    5  A    between atoms: C_8  and  C_9
REMARK    6  A    between atoms: C_9  and  N_10
REMARK    7  A    between atoms: C_13  and  C_14
REMARK    8  A    between atoms: C_14  and  O_15
REMARK                            x       y       z     vdW  Elec       q    Type
REMARK                         _______ _______ _______ _____ _____    ______ ____
ROOT
ATOM      1  C   UNL     1       2.869   6.852  18.980  0.00  0.00    +0.000 C 
ENDROOT
BRANCH   1   2
ATOM      2  N   UNL     1       1.989   5.709  19.279  0.00  0.00    +0.000 NA
ATOM      3  C   UNL     1       2.022   4.719  18.187  0.00  0.00    +0.000 C 
ATOM      4  C   UNL     1       1.064   3.561  18.460  0.00  0.00    +0.000 C 
ATOM      5  C   UNL     1       1.384   2.872  19.791  0.00  0.00    +0.000 C 
ATOM      6  C   UNL     1       1.404   3.932  20.901  0.00  0.00    +0.000 C 
ATOM      7  C   UNL     1       2.343   5.099  20.569  0.00  0.00    +0.000 C 
BRANCH   5   8
ATOM      8  C   UNL     1       2.709   2.101  19.735  0.00  0.00    +0.000 C 
BRANCH   8   9
ATOM      9  O   UNL     1       2.897   1.504  18.460  0.00  0.00    +0.000 OA
ATOM     10  H   UNL     1       3.238   0.605  18.606  0.00  0.00    +0.000 HD
ENDBRANCH   8   9
ENDBRANCH   5   8
ENDBRANCH   1   2
BRANCH   1  12
ATOM     11  C   UNL     1       5.103   6.051  17.536  0.00  0.00    +0.000 C 
ATOM     12  C   UNL     1       4.063   6.426  18.226  0.00  0.00    +0.000 C 
BRANCH  11  13
ATOM     13  C   UNL     1       6.317   5.614  16.732  0.00  0.00    +0.000 C 
BRANCH  13  17
ATOM     14  C   UNL     1       6.177   3.773  13.372  0.00  0.00    +0.000 C 
ATOM     15  C   UNL     1       6.605   4.730  14.458  0.00  0.00    +0.000 C 
ATOM     16  O   UNL     1       7.540   5.505  14.257  0.00  0.00    +0.000 OA
ATOM     17  N   UNL     1       5.929   4.681  15.669  0.00  0.00    +0.000 N 
ATOM     18  C   UNL     1       4.809   3.777  15.936  0.00  0.00    +0.000 C 
ENDBRANCH  13  17
ENDBRANCH  11  13
ENDBRANCH   1  12
TORSDOF 6
ENDMDL
MODEL 8
REMARK VINA RESULT:      -5.9      1.526      2.215
REMARK  Name = 
REMARK  8 active torsions:
REMARK  status: ('A' for Active; 'I' for Inactive)
REMARK    1  A    between atoms: C_1  and  C_2
REMARK    2  A    between atoms: N_4  and  C_5
REMARK    3  A    between atoms: N_4  and  C_6
REMARK    4  A    between atoms: C_6  and  C_7
REMARK    5  A    between atoms: C_8  and  C_9
REMARK    6  A    between atoms: C_9  and  N_10
REMARK    7  A    between atoms: C_13  and  C_14
REMARK    8  A    between atoms: C_14  and  O_15
REMARK                            x       y       z     vdW  Elec       q    Type
REMARK                         _______ _______ _______ _____ _____    ______ ____
ROOT
ATOM      1  C   UNL     1       7.441   7.244  17.140  0.00  0.00    +0.000 C 
ENDROOT
BRANCH   1   2
ATOM      2  N   UNL     1       6.198   6.834  17.815  0.00  0.00    +0.000 NA
ATOM      3  C   UNL     1       5.062   6.842  16.875  0.00  0.00    +0.000 C 
ATOM      4  C   UNL     1       3.757   6.479  17.581  0.00  0.00    +0.000 C 
ATOM      5  C   UNL     1       3.852   5.110  18.263  0.00  0.00    +0.000 C 
ATOM      6  C   UNL     1       5.077   5.105  19.189  0.00  0.00    +0.000 C 
ATOM      7  C   UNL     1       6.358   5.519  18.453  0.00  0.00    +0.000 C 
BRANCH   5   8
ATOM      8  C   UNL     1       3.920   3.964  17.245  0.00  0.00    +0.000 C 
BRANCH   8   9
ATOM      9  O   UNL     1       2.656   3.333  17.102  0.00  0.00    +0.000 OA
ATOM     10  H   UNL     1       2.250   3.288  17.984  0.00  0.00    +0.000 HD
ENDBRANCH   8   9
ENDBRANCH   5   8
ENDBRANCH   1   2
BRANCH   1  12
ATOM     11  C   UNL     1       8.626   9.412  18.411  0.00  0.00    +0.000 C 
ATOM     12  C   UNL     1       8.059   8.404  17.811  0.00  0.00    +0.000 C 
BRANCH  11  13
ATOM     13  C   UNL     1       9.289  10.588  19.110  0.00  0.00    +0.000 C 
BRANCH  13  17
ATOM     14  C   UNL     1      11.177  13.115  16.930  0.00  0.00    +0.000 C 
ATOM     15  C   UNL     1      10.903  11.991  17.900  0.00  0.00    +0.000 C 
ATOM     16  O   UNL     1      11.841  11.386  18.416  0.00  0.00    +0.000 OA
ATOM     17  N   UNL     1       9.579  11.665  18.157  0.00  0.00    +0.000 N 
ATOM     18  C   UNL     1       8.440  12.371  17.565  0.00  0.00    +0.000 C 
ENDBRANCH  13  17
ENDBRANCH  11  13
ENDBRANCH   1  12
TORSDOF 6
ENDMDL
MODEL 9
REMARK VINA RESULT:      -5.9      4.589      6.385
REMARK  Name = 
REMARK  8 active torsions:
REMARK  status: ('A' for Active; 'I' for Inactive)
REMARK    1  A    between atoms: C_1  and  C_2
REMARK    2  A    between atoms: N_4  and  C_5
REMARK    3  A    between atoms: N_4  and  C_6
REMARK    4  A    between atoms: C_6  and  C_7
REMARK    5  A    between atoms: C_8  and  C_9
REMARK    6  A    between atoms: C_9  and  N_10
REMARK    7  A    between atoms: C_13  and  C_14
REMARK    8  A    between atoms: C_14  and  O_15
REMARK                            x       y       z     vdW  Elec       q    Type
REMARK                         _______ _______ _______ _____ _____    ______ ____
ROOT
ATOM      1  C   UNL     1       2.380   6.640  18.959  0.00  0.00    +0.000 C 
ENDROOT
BRANCH   1   2
ATOM      2  N   UNL     1       1.946   5.261  19.241  0.00  0.00    +0.000 NA
ATOM      3  C   UNL     1       2.155   4.393  18.068  0.00  0.00    +0.000 C 
ATOM      4  C   UNL     1       1.648   2.976  18.331  0.00  0.00    +0.000 C 
ATOM      5  C   UNL     1       2.328   2.357  19.558  0.00  0.00    +0.000 C 
ATOM      6  C   UNL     1       2.151   3.308  20.750  0.00  0.00    +0.000 C 
ATOM      7  C   UNL     1       2.629   4.731  20.431  0.00  0.00    +0.000 C 
BRANCH   5   8
ATOM      8  C   UNL     1       3.811   2.057  19.303  0.00  0.00    +0.000 C 
BRANCH   8   9
ATOM      9  O   UNL     1       3.979   1.287  18.122  0.00  0.00    +0.000 OA
ATOM     10  H   UNL     1       4.781   0.750  18.235  0.00  0.00    +0.000 HD
ENDBRANCH   8   9
ENDBRANCH   5   8
ENDBRANCH   1   2
BRANCH   1  12
ATOM     11  C   UNL     1       4.907   6.705  17.808  0.00  0.00    +0.000 C 
ATOM     12  C   UNL     1       3.717   6.665  18.337  0.00  0.00    +0.000 C 
BRANCH  11  13
ATOM     13  C   UNL     1       6.296   6.752  17.191  0.00  0.00    +0.000 C 
BRANCH  13  17
ATOM     14  C   UNL     1       6.406   3.958  14.567  0.00  0.00    +0.000 C 
ATOM     15  C   UNL     1       6.089   5.271  15.241  0.00  0.00    +0.000 C 
ATOM     16  O   UNL     1       5.408   6.112  14.655  0.00  0.00    +0.000 OA
ATOM     17  N   UNL     1       6.607   5.490  16.510  0.00  0.00    +0.000 N 
ATOM     18  C   UNL     1       7.413   4.508  17.238  0.00  0.00    +0.000 C 
ENDBRANCH  13  17
ENDBRANCH  11  13
ENDBRANCH   1  12
TORSDOF 6
ENDMDL
