MODEL 1
REMARK VINA RESULT:      -7.1      0.000      0.000
REMARK  Name = 
REMARK  11 active torsions:
REMARK  status: ('A' for Active; 'I' for Inactive)
REMARK    1  A    between atoms: C_1  and  O_2
REMARK    2  A    between atoms: O_2  and  C_3
REMARK    3  A    between atoms: C_8  and  C_9
REMARK    4  A    between atoms: C_9  and  C_10
REMARK    5  A    between atoms: C_9  and  N_23
REMARK    6  A    between atoms: C_10  and  N_11
REMARK    7  A    between atoms: N_11  and  C_12
REMARK    8  A    between atoms: C_18  and  C_19
REMARK    9  A    between atoms: C_20  and  C_21
REMARK   10  A    between atoms: N_23  and  C_24
REMARK   11  A    between atoms: N_23  and  C_25
REMARK                            x       y       z     vdW  Elec       q    Type
REMARK                         _______ _______ _______ _____ _____    ______ ____
ROOT
ATOM      1  C   UNL     1       2.117   5.166  19.717  0.00  0.00    +0.000 C 
ENDROOT
BRANCH   1   2
ATOM      2  N   UNL     1       2.267   6.513  20.269  0.00  0.00    +0.000 N 
ATOM      3  H   UNL     1       2.912   6.575  21.038  0.00  0.00    +0.000 HD
BRANCH   2   4
ATOM      4  C   UNL     1       2.187   7.610  19.416  0.00  0.00    +0.000 A 
ATOM      5  N   UNL     1       2.847   7.564  18.235  0.00  0.00    +0.000 NA
ATOM      6  C   UNL     1       2.734   8.582  17.377  0.00  0.00    +0.000 A 
ATOM      7  N   UNL     1       2.033   9.704  17.536  0.00  0.00    +0.000 NA
ATOM      8  C   UNL     1       1.399   9.740  18.720  0.00  0.00    +0.000 A 
ATOM      9  S   UNL     1       0.451  11.091  19.122  0.00  0.00    +0.000 S 
ATOM     10  C   UNL     1       0.043  10.443  20.647  0.00  0.00    +0.000 A 
ATOM     11  C   UNL     1      -0.830  11.234  21.569  0.00  0.00    +0.000 C 
ATOM     12  C   UNL     1       0.613   9.192  20.854  0.00  0.00    +0.000 A 
ATOM     13  C   UNL     1       0.429   8.394  22.107  0.00  0.00    +0.000 C 
ATOM     14  C   UNL     1       1.417   8.766  19.711  0.00  0.00    +0.000 A 
ENDBRANCH   2   4
ENDBRANCH   1   2
BRANCH   1  15
ATOM     15  C   UNL     1       3.421   4.303  19.901  0.00  0.00    +0.000 C 
BRANCH  15  21
ATOM     16  C   UNL     1       5.597   4.795  18.551  0.00  0.00    +0.000 A 
ATOM     17  C   UNL     1       6.264   4.823  17.310  0.00  0.00    +0.000 A 
ATOM     18  C   UNL     1       5.635   4.410  16.138  0.00  0.00    +0.000 A 
ATOM     19  C   UNL     1       4.314   3.997  16.172  0.00  0.00    +0.000 A 
ATOM     20  C   UNL     1       3.628   4.002  17.384  0.00  0.00    +0.000 A 
ATOM     21  C   UNL     1       4.249   4.373  18.595  0.00  0.00    +0.000 A 
BRANCH  16  23
ATOM     22  C   UNL     1       7.524   5.677  19.630  0.00  0.00    +0.000 C 
ATOM     23  O   UNL     1       6.198   5.152  19.733  0.00  0.00    +0.000 OA
ENDBRANCH  16  23
ENDBRANCH  15  21
BRANCH  15  24
ATOM     24  N   UNL     1       3.179   2.863  20.295  0.00  0.00    +0.000 NA
ATOM     25  C   UNL     1       4.450   2.124  20.387  0.00  0.00    +0.000 C 
ATOM     26  C   UNL     1       2.446   2.679  21.546  0.00  0.00    +0.000 C 
ENDBRANCH  15  24
ENDBRANCH   1  15
TORSDOF 6
ENDMDL
MODEL 2
REMARK VINA RESULT:      -7.0      0.882      1.192
REMARK  Name = 
REMARK  11 active torsions:
REMARK  status: ('A' for Active; 'I' for Inactive)
REMARK    1  A    between atoms: C_1  and  O_2
REMARK    2  A    between atoms: O_2  and  C_3
REMARK    3  A    between atoms: C_8  and  C_9
REMARK    4  A    between atoms: C_9  and  C_10
REMARK    5  A    between atoms: C_9  and  N_23
REMARK    6  A    between atoms: C_10  and  N_11
REMARK    7  A    between atoms: N_11  and  C_12
REMARK    8  A    between atoms: C_18  and  C_19
REMARK    9  A    between atoms: C_20  and  C_21
REMARK   10  A    between atoms: N_23  and  C_24
REMARK   11  A    between atoms: N_23  and  C_25
REMARK                            x       y       z     vdW  Elec       q    Type
REMARK                         _______ _______ _______ _____ _____    ______ ____
ROOT
ATOM      1  C   UNL     1       1.548   5.586  20.549  0.00  0.00    +0.000 C 
ENDROOT
BRANCH   1   2
ATOM      2  N   UNL     1       1.807   6.976  20.927  0.00  0.00    +0.000 N 
ATOM      3  H   UNL     1       2.496   7.086  21.651  0.00  0.00    +0.000 HD
BRANCH   2   4
ATOM      4  C   UNL     1       1.745   7.968  19.953  0.00  0.00    +0.000 A 
ATOM      5  N   UNL     1       2.381   7.764  18.776  0.00  0.00    +0.000 NA
ATOM      6  C   UNL     1       2.283   8.678  17.806  0.00  0.00    +0.000 A 
ATOM      7  N   UNL     1       1.619   9.833  17.844  0.00  0.00    +0.000 NA
ATOM      8  C   UNL     1       1.009  10.027  19.024  0.00  0.00    +0.000 A 
ATOM      9  S   UNL     1       0.109  11.445  19.280  0.00  0.00    +0.000 S 
ATOM     10  C   UNL     1      -0.290  10.992  20.875  0.00  0.00    +0.000 A 
ATOM     11  C   UNL     1      -1.122  11.913  21.712  0.00  0.00    +0.000 C 
ATOM     12  C   UNL     1       0.245   9.757  21.219  0.00  0.00    +0.000 A 
ATOM     13  C   UNL     1       0.060   9.115  22.559  0.00  0.00    +0.000 C 
ATOM     14  C   UNL     1       1.016   9.175  20.122  0.00  0.00    +0.000 A 
ENDBRANCH   2   4
ENDBRANCH   1   2
BRANCH   1  15
ATOM     15  C   UNL     1       2.844   4.696  20.646  0.00  0.00    +0.000 C 
BRANCH  15  21
ATOM     16  C   UNL     1       4.699   4.723  18.815  0.00  0.00    +0.000 A 
ATOM     17  C   UNL     1       5.084   4.448  17.487  0.00  0.00    +0.000 A 
ATOM     18  C   UNL     1       4.201   3.871  16.578  0.00  0.00    +0.000 A 
ATOM     19  C   UNL     1       2.901   3.590  16.963  0.00  0.00    +0.000 A 
ATOM     20  C   UNL     1       2.493   3.892  18.259  0.00  0.00    +0.000 A 
ATOM     21  C   UNL     1       3.374   4.437  19.216  0.00  0.00    +0.000 A 
BRANCH  16  23
ATOM     22  C   UNL     1       6.880   5.537  19.297  0.00  0.00    +0.000 C 
ATOM     23  O   UNL     1       5.555   5.249  19.750  0.00  0.00    +0.000 OA
ENDBRANCH  16  23
ENDBRANCH  15  21
BRANCH  15  24
ATOM     24  N   UNL     1       2.662   3.389  21.385  0.00  0.00    +0.000 NA
ATOM     25  C   UNL     1       1.265   2.931  21.302  0.00  0.00    +0.000 C 
ATOM     26  C   UNL     1       3.532   2.302  20.943  0.00  0.00    +0.000 C 
ENDBRANCH  15  24
ENDBRANCH   1  15
TORSDOF 6
ENDMDL
MODEL 3
REMARK VINA RESULT:      -7.0      3.028      6.226
REMARK  Name = 
REMARK  11 active torsions:
REMARK  status: ('A' for Active; 'I' for Inactive)
REMARK    1  A    between atoms: C_1  and  O_2
REMARK    2  A    between atoms: O_2  and  C_3
REMARK    3  A    between atoms: C_8  and  C_9
REMARK    4  A    between atoms: C_9  and  C_10
REMARK    5  A    between atoms: C_9  and  N_23
REMARK    6  A    between atoms: C_10  and  N_11
REMARK    7  A    between atoms: N_11  and  C_12
REMARK    8  A    between atoms: C_18  and  C_19
REMARK    9  A    between atoms: C_20  and  C_21
REMARK   10  A    between atoms: N_23  and  C_24
REMARK   11  A    between atoms: N_23  and  C_25
REMARK                            x       y       z     vdW  Elec       q    Type
REMARK                         _______ _______ _______ _____ _____    ______ ____
ROOT
ATOM      1  C   UNL     1       3.807   4.138  20.400  0.00  0.00    +0.000 C 
ENDROOT
BRANCH   1   2
ATOM      2  N   UNL     1       4.821   3.517  19.547  0.00  0.00    +0.000 N 
ATOM      3  H   UNL     1       4.495   2.716  19.033  0.00  0.00    +0.000 HD
BRANCH   2   4
ATOM      4  C   UNL     1       5.778   4.319  18.933  0.00  0.00    +0.000 A 
ATOM      5  N   UNL     1       6.634   5.021  19.713  0.00  0.00    +0.000 NA
ATOM      6  C   UNL     1       7.598   5.750  19.143  0.00  0.00    +0.000 A 
ATOM      7  N   UNL     1       7.839   5.901  17.841  0.00  0.00    +0.000 NA
ATOM      8  C   UNL     1       6.970   5.212  17.083  0.00  0.00    +0.000 A 
ATOM      9  S   UNL     1       7.102   5.274  15.390  0.00  0.00    +0.000 S 
ATOM     10  C   UNL     1       5.752   4.255  15.174  0.00  0.00    +0.000 A 
ATOM     11  C   UNL     1       5.304   3.916  13.786  0.00  0.00    +0.000 C 
ATOM     12  C   UNL     1       5.201   3.851  16.384  0.00  0.00    +0.000 A 
ATOM     13  C   UNL     1       4.004   2.959  16.494  0.00  0.00    +0.000 C 
ATOM     14  C   UNL     1       5.922   4.414  17.523  0.00  0.00    +0.000 A 
ENDBRANCH   2   4
ENDBRANCH   1   2
BRANCH   1  15
ATOM     15  C   UNL     1       2.470   4.423  19.617  0.00  0.00    +0.000 C 
BRANCH  15  21
ATOM     16  C   UNL     1       2.511   6.886  18.764  0.00  0.00    +0.000 A 
ATOM     17  C   UNL     1       2.160   8.236  18.966  0.00  0.00    +0.000 A 
ATOM     18  C   UNL     1       1.426   8.638  20.079  0.00  0.00    +0.000 A 
ATOM     19  C   UNL     1       1.060   7.708  21.036  0.00  0.00    +0.000 A 
ATOM     20  C   UNL     1       1.433   6.377  20.873  0.00  0.00    +0.000 A 
ATOM     21  C   UNL     1       2.139   5.930  19.736  0.00  0.00    +0.000 A 
BRANCH  16  23
ATOM     22  C   UNL     1       4.113   7.375  17.077  0.00  0.00    +0.000 C 
ATOM     23  O   UNL     1       3.195   6.446  17.658  0.00  0.00    +0.000 OA
ENDBRANCH  16  23
ENDBRANCH  15  21
BRANCH  15  24
ATOM     24  N   UNL     1       1.289   3.587  20.056  0.00  0.00    +0.000 NA
ATOM     25  C   UNL     1       0.867   2.672  18.982  0.00  0.00    +0.000 C 
ATOM     26  C   UNL     1       1.501   2.806  21.272  0.00  0.00    +0.000 C 
ENDBRANCH  15  24
ENDBRANCH   1  15
TORSDOF 6
ENDMDL
MODEL 4
REMARK VINA RESULT:      -6.8      2.083      3.745
REMARK  Name = 
REMARK  11 active torsions:
REMARK  status: ('A' for Active; 'I' for Inactive)
REMARK    1  A    between atoms: C_1  and  O_2
REMARK    2  A    between atoms: O_2  and  C_3
REMARK    3  A    between atoms: C_8  and  C_9
REMARK    4  A    between atoms: C_9  and  C_10
REMARK    5  A    between atoms: C_9  and  N_23
REMARK    6  A    between atoms: C_10  and  N_11
REMARK    7  A    between atoms: N_11  and  C_12
REMARK    8  A    between atoms: C_18  and  C_19
REMARK    9  A    between atoms: C_20  and  C_21
REMARK   10  A    between atoms: N_23  and  C_24
REMARK   11  A    between atoms: N_23  and  C_25
REMARK                            x       y       z     vdW  Elec       q    Type
REMARK                         _______ _______ _______ _____ _____    ______ ____
ROOT
ATOM      1  C   UNL     1       2.506   7.308  19.203  0.00  0.00    +0.000 C 
ENDROOT
BRANCH   1   2
ATOM      2  N   UNL     1       1.477   8.152  18.595  0.00  0.00    +0.000 N 
ATOM      3  H   UNL     1       0.562   7.736  18.570  0.00  0.00    +0.000 HD
BRANCH   2   4
ATOM      4  C   UNL     1       1.542   9.532  18.763  0.00  0.00    +0.000 A 
ATOM      5  N   UNL     1       2.214  10.267  17.845  0.00  0.00    +0.000 NA
ATOM      6  C   UNL     1       2.238  11.599  17.956  0.00  0.00    +0.000 A 
ATOM      7  N   UNL     1       1.671  12.344  18.904  0.00  0.00    +0.000 NA
ATOM      8  C   UNL     1       1.024  11.598  19.814  0.00  0.00    +0.000 A 
ATOM      9  S   UNL     1       0.235  12.358  21.113  0.00  0.00    +0.000 S 
ATOM     10  C   UNL     1      -0.275  10.869  21.771  0.00  0.00    +0.000 A 
ATOM     11  C   UNL     1      -1.066  10.862  23.041  0.00  0.00    +0.000 C 
ATOM     12  C   UNL     1       0.139   9.788  21.002  0.00  0.00    +0.000 A 
ATOM     13  C   UNL     1      -0.161   8.362  21.346  0.00  0.00    +0.000 C 
ATOM     14  C   UNL     1       0.909  10.214  19.836  0.00  0.00    +0.000 A 
ENDBRANCH   2   4
ENDBRANCH   1   2
BRANCH   1  15
ATOM     15  C   UNL     1       2.708   5.961  18.413  0.00  0.00    +0.000 C 
BRANCH  15  21
ATOM     16  C   UNL     1       1.801   3.546  18.795  0.00  0.00    +0.000 A 
ATOM     17  C   UNL     1       1.395   2.541  19.696  0.00  0.00    +0.000 A 
ATOM     18  C   UNL     1       1.452   2.734  21.074  0.00  0.00    +0.000 A 
ATOM     19  C   UNL     1       1.878   3.948  21.584  0.00  0.00    +0.000 A 
ATOM     20  C   UNL     1       2.244   4.966  20.707  0.00  0.00    +0.000 A 
ATOM     21  C   UNL     1       2.239   4.788  19.308  0.00  0.00    +0.000 A 
BRANCH  16  23
ATOM     22  C   UNL     1       2.839   2.547  16.905  0.00  0.00    +0.000 C 
ATOM     23  O   UNL     1       1.802   3.377  17.433  0.00  0.00    +0.000 OA
ENDBRANCH  16  23
ENDBRANCH  15  21
BRANCH  15  24
ATOM     24  N   UNL     1       4.117   5.719  17.922  0.00  0.00    +0.000 NA
ATOM     25  C   UNL     1       4.618   6.883  17.172  0.00  0.00    +0.000 C 
ATOM     26  C   UNL     1       5.087   5.388  18.964  0.00  0.00    +0.000 C 
ENDBRANCH  15  24
ENDBRANCH   1  15
TORSDOF 6
ENDMDL
MODEL 5
REMARK VINA RESULT:      -6.8      2.259      4.286
REMARK  Name = 
REMARK  11 active torsions:
REMARK  status: ('A' for Active; 'I' for Inactive)
REMARK    1  A    between atoms: C_1  and  O_2
REMARK    2  A    between atoms: O_2  and  C_3
REMARK    3  A    between atoms: C_8  and  C_9
REMARK    4  A    between atoms: C_9  and  C_10
REMARK    5  A    between atoms: C_9  and  N_23
REMARK    6  A    between atoms: C_10  and  N_11
REMARK    7  A    between atoms: N_11  and  C_12
REMARK    8  A    between atoms: C_18  and  C_19
REMARK    9  A    between atoms: C_20  and  C_21
REMARK   10  A    between atoms: N_23  and  C_24
REMARK   11  A    between atoms: N_23  and  C_25
REMARK                            x       y       z     vdW  Elec       q    Type
REMARK                         _______ _______ _______ _____ _____    ______ ____
ROOT
ATOM      1  C   UNL     1       2.621   7.264  19.751  0.00  0.00    +0.000 C 
ENDROOT
BRANCH   1   2
ATOM      2  N   UNL     1       1.507   8.186  19.528  0.00  0.00    +0.000 N 
ATOM      3  H   UNL     1       0.856   7.886  18.824  0.00  0.00    +0.000 HD
BRANCH   2   4
ATOM      4  C   UNL     1       0.994   8.905  20.604  0.00  0.00    +0.000 A 
ATOM      5  N   UNL     1       1.456   8.633  21.847  0.00  0.00    +0.000 NA
ATOM      6  C   UNL     1       1.020   9.353  22.885  0.00  0.00    +0.000 A 
ATOM      7  N   UNL     1       0.134  10.348  22.867  0.00  0.00    +0.000 NA
ATOM      8  C   UNL     1      -0.327  10.592  21.629  0.00  0.00    +0.000 A 
ATOM      9  S   UNL     1      -1.472  11.824  21.389  0.00  0.00    +0.000 S 
ATOM     10  C   UNL     1      -1.558  11.518  19.713  0.00  0.00    +0.000 A 
ATOM     11  C   UNL     1      -2.489  12.329  18.867  0.00  0.00    +0.000 C 
ATOM     12  C   UNL     1      -0.710  10.489  19.324  0.00  0.00    +0.000 A 
ATOM     13  C   UNL     1      -0.586  10.005  17.913  0.00  0.00    +0.000 C 
ATOM     14  C   UNL     1       0.028   9.936  20.457  0.00  0.00    +0.000 A 
ENDBRANCH   2   4
ENDBRANCH   1   2
BRANCH   1  15
ATOM     15  C   UNL     1       2.599   6.056  18.741  0.00  0.00    +0.000 C 
BRANCH  15  21
ATOM     16  C   UNL     1       1.716   3.606  18.863  0.00  0.00    +0.000 A 
ATOM     17  C   UNL     1       1.351   2.496  19.650  0.00  0.00    +0.000 A 
ATOM     18  C   UNL     1       1.464   2.520  21.039  0.00  0.00    +0.000 A 
ATOM     19  C   UNL     1       1.906   3.667  21.675  0.00  0.00    +0.000 A 
ATOM     20  C   UNL     1       2.233   4.787  20.914  0.00  0.00    +0.000 A 
ATOM     21  C   UNL     1       2.171   4.780  19.505  0.00  0.00    +0.000 A 
BRANCH  16  23
ATOM     22  C   UNL     1       2.690   2.867  16.824  0.00  0.00    +0.000 C 
ATOM     23  O   UNL     1       1.662   3.602  17.492  0.00  0.00    +0.000 OA
ENDBRANCH  16  23
ENDBRANCH  15  21
BRANCH  15  24
ATOM     24  N   UNL     1       3.899   5.820  18.006  0.00  0.00    +0.000 NA
ATOM     25  C   UNL     1       4.266   6.996  17.200  0.00  0.00    +0.000 C 
ATOM     26  C   UNL     1       5.035   5.470  18.857  0.00  0.00    +0.000 C 
ENDBRANCH  15  24
ENDBRANCH   1  15
TORSDOF 6
ENDMDL
MODEL 6
REMARK VINA RESULT:      -6.7      1.164      1.957
REMARK  Name = 
REMARK  11 active torsions:
REMARK  status: ('A' for Active; 'I' for Inactive)
REMARK    1  A    between atoms: C_1  and  O_2
REMARK    2  A    between atoms: O_2  and  C_3
REMARK    3  A    between atoms: C_8  and  C_9
REMARK    4  A    between atoms: C_9  and  C_10
REMARK    5  A    between atoms: C_9  and  N_23
REMARK    6  A    between atoms: C_10  and  N_11
REMARK    7  A    between atoms: N_11  and  C_12
REMARK    8  A    between atoms: C_18  and  C_19
REMARK    9  A    between atoms: C_20  and  C_21
REMARK   10  A    between atoms: N_23  and  C_24
REMARK   11  A    between atoms: N_23  and  C_25
REMARK                            x       y       z     vdW  Elec       q    Type
REMARK                         _______ _______ _______ _____ _____    ______ ____
ROOT
ATOM      1  C   UNL     1       1.762   5.425  20.203  0.00  0.00    +0.000 C 
ENDROOT
BRANCH   1   2
ATOM      2  N   UNL     1       1.987   6.800  20.652  0.00  0.00    +0.000 N 
ATOM      3  H   UNL     1       2.664   6.888  21.390  0.00  0.00    +0.000 HD
BRANCH   2   4
ATOM      4  C   UNL     1       1.917   7.837  19.726  0.00  0.00    +0.000 A 
ATOM      5  N   UNL     1       2.519   7.677  18.524  0.00  0.00    +0.000 NA
ATOM      6  C   UNL     1       2.412   8.637  17.601  0.00  0.00    +0.000 A 
ATOM      7  N   UNL     1       1.770   9.800  17.709  0.00  0.00    +0.000 NA
ATOM      8  C   UNL     1       1.195   9.949  18.913  0.00  0.00    +0.000 A 
ATOM      9  S   UNL     1       0.329  11.369  19.258  0.00  0.00    +0.000 S 
ATOM     10  C   UNL     1      -0.037  10.849  20.841  0.00  0.00    +0.000 A 
ATOM     11  C   UNL     1      -0.829  11.744  21.742  0.00  0.00    +0.000 C 
ATOM     12  C   UNL     1       0.485   9.591  21.113  0.00  0.00    +0.000 A 
ATOM     13  C   UNL     1       0.323   8.891  22.427  0.00  0.00    +0.000 C 
ATOM     14  C   UNL     1       1.215   9.048  19.970  0.00  0.00    +0.000 A 
ENDBRANCH   2   4
ENDBRANCH   1   2
BRANCH   1  15
ATOM     15  C   UNL     1       3.042   4.526  20.387  0.00  0.00    +0.000 C 
BRANCH  15  21
ATOM     16  C   UNL     1       3.609   4.270  17.855  0.00  0.00    +0.000 A 
ATOM     17  C   UNL     1       4.513   4.486  16.796  0.00  0.00    +0.000 A 
ATOM     18  C   UNL     1       5.720   5.153  16.995  0.00  0.00    +0.000 A 
ATOM     19  C   UNL     1       6.068   5.585  18.263  0.00  0.00    +0.000 A 
ATOM     20  C   UNL     1       5.205   5.344  19.328  0.00  0.00    +0.000 A 
ATOM     21  C   UNL     1       3.957   4.709  19.153  0.00  0.00    +0.000 A 
BRANCH  16  23
ATOM     22  C   UNL     1       2.426   2.244  17.473  0.00  0.00    +0.000 C 
ATOM     23  O   UNL     1       2.392   3.657  17.689  0.00  0.00    +0.000 OA
ENDBRANCH  16  23
ENDBRANCH  15  21
BRANCH  15  24
ATOM     24  N   UNL     1       2.759   3.060  20.621  0.00  0.00    +0.000 NA
ATOM     25  C   UNL     1       4.011   2.306  20.800  0.00  0.00    +0.000 C 
ATOM     26  C   UNL     1       1.881   2.772  21.753  0.00  0.00    +0.000 C 
ENDBRANCH  15  24
ENDBRANCH   1  15
TORSDOF 6
ENDMDL
MODEL 7
REMARK VINA RESULT:      -6.5      1.494      2.141
REMARK  Name = 
REMARK  11 active torsions:
REMARK  status: ('A' for Active; 'I' for Inactive)
REMARK    1  A    between atoms: C_1  and  O_2
REMARK    2  A    between atoms: O_2  and  C_3
REMARK    3  A    between atoms: C_8  and  C_9
REMARK    4  A    between atoms: C_9  and  C_10
REMARK    5  A    between atoms: C_9  and  N_23
REMARK    6  A    between atoms: C_10  and  N_11
REMARK    7  A    between atoms: N_11  and  C_12
REMARK    8  A    between atoms: C_18  and  C_19
REMARK    9  A    between atoms: C_20  and  C_21
REMARK   10  A    between atoms: N_23  and  C_24
REMARK   11  A    between atoms: N_23  and  C_25
REMARK                            x       y       z     vdW  Elec       q    Type
REMARK                         _______ _______ _______ _____ _____    ______ ____
ROOT
ATOM      1  C   UNL     1       3.459   7.345  17.629  0.00  0.00    +0.000 C 
ENDROOT
BRANCH   1   2
ATOM      2  N   UNL     1       2.262   7.731  18.378  0.00  0.00    +0.000 N 
ATOM      3  H   UNL     1       2.015   7.097  19.118  0.00  0.00    +0.000 HD
BRANCH   2   4
ATOM      4  C   UNL     1       1.993   9.081  18.582  0.00  0.00    +0.000 A 
ATOM      5  N   UNL     1       2.356   9.967  17.625  0.00  0.00    +0.000 NA
ATOM      6  C   UNL     1       2.053  11.260  17.775  0.00  0.00    +0.000 A 
ATOM      7  N   UNL     1       1.419  11.832  18.798  0.00  0.00    +0.000 NA
ATOM      8  C   UNL     1       1.083  10.941  19.745  0.00  0.00    +0.000 A 
ATOM      9  S   UNL     1       0.268  11.468  21.140  0.00  0.00    +0.000 S 
ATOM     10  C   UNL     1       0.225   9.895  21.799  0.00  0.00    +0.000 A 
ATOM     11  C   UNL     1      -0.399   9.680  23.142  0.00  0.00    +0.000 C 
ATOM     12  C   UNL     1       0.816   8.959  20.959  0.00  0.00    +0.000 A 
ATOM     13  C   UNL     1       0.925   7.502  21.286  0.00  0.00    +0.000 C 
ATOM     14  C   UNL     1       1.325   9.573  19.735  0.00  0.00    +0.000 A 
ENDBRANCH   2   4
ENDBRANCH   1   2
BRANCH   1  15
ATOM     15  C   UNL     1       4.089   6.008  18.170  0.00  0.00    +0.000 C 
BRANCH  15  21
ATOM     16  C   UNL     1       6.399   4.934  17.615  0.00  0.00    +0.000 A 
ATOM     17  C   UNL     1       7.350   4.558  16.646  0.00  0.00    +0.000 A 
ATOM     18  C   UNL     1       7.119   4.752  15.286  0.00  0.00    +0.000 A 
ATOM     19  C   UNL     1       5.950   5.362  14.866  0.00  0.00    +0.000 A 
ATOM     20  C   UNL     1       5.017   5.777  15.813  0.00  0.00    +0.000 A 
ATOM     21  C   UNL     1       5.202   5.555  17.194  0.00  0.00    +0.000 A 
BRANCH  16  23
ATOM     22  C   UNL     1       7.524   5.560  19.614  0.00  0.00    +0.000 C 
ATOM     23  O   UNL     1       6.573   4.716  18.959  0.00  0.00    +0.000 OA
ENDBRANCH  16  23
ENDBRANCH  15  21
BRANCH  15  24
ATOM     24  N   UNL     1       3.100   4.887  18.398  0.00  0.00    +0.000 NA
ATOM     25  C   UNL     1       3.263   3.830  17.386  0.00  0.00    +0.000 C 
ATOM     26  C   UNL     1       3.158   4.272  19.723  0.00  0.00    +0.000 C 
ENDBRANCH  15  24
ENDBRANCH   1  15
TORSDOF 6
ENDMDL
MODEL 8
REMARK VINA RESULT:      -6.3      3.524      7.658
REMARK  Name = 
REMARK  11 active torsions:
REMARK  status: ('A' for Active; 'I' for Inactive)
REMARK    1  A    between atoms: C_1  and  O_2
REMARK    2  A    between atoms: O_2  and  C_3
REMARK    3  A    between atoms: C_8  and  C_9
REMARK    4  A    between atoms: C_9  and  C_10
REMARK    5  A    between atoms: C_9  and  N_23
REMARK    6  A    between atoms: C_10  and  N_11
REMARK    7  A    between atoms: N_11  and  C_12
REMARK    8  A    between atoms: C_18  and  C_19
REMARK    9  A    between atoms: C_20  and  C_21
REMARK   10  A    between atoms: N_23  and  C_24
REMARK   11  A    between atoms: N_23  and  C_25
REMARK                            x       y       z     vdW  Elec       q    Type
REMARK                         _______ _______ _______ _____ _____    ______ ____
ROOT
ATOM      1  C   UNL     1       1.247   9.242  18.116  0.00  0.00    +0.000 C 
ENDROOT
BRANCH   1   2
ATOM      2  N   UNL     1       1.987   8.352  19.011  0.00  0.00    +0.000 N 
ATOM      3  H   UNL     1       1.490   8.100  19.848  0.00  0.00    +0.000 HD
BRANCH   2   4
ATOM      4  C   UNL     1       2.841   7.397  18.467  0.00  0.00    +0.000 A 
ATOM      5  N   UNL     1       3.597   7.737  17.397  0.00  0.00    +0.000 NA
ATOM      6  C   UNL     1       4.467   6.853  16.897  0.00  0.00    +0.000 A 
ATOM      7  N   UNL     1       4.697   5.612  17.323  0.00  0.00    +0.000 NA
ATOM      8  C   UNL     1       3.926   5.286  18.373  0.00  0.00    +0.000 A 
ATOM      9  S   UNL     1       4.062   3.741  19.066  0.00  0.00    +0.000 S 
ATOM     10  C   UNL     1       2.851   4.071  20.220  0.00  0.00    +0.000 A 
ATOM     11  C   UNL     1       2.460   3.007  21.197  0.00  0.00    +0.000 C 
ATOM     12  C   UNL     1       2.346   5.360  20.096  0.00  0.00    +0.000 A 
ATOM     13  C   UNL     1       1.269   5.917  20.973  0.00  0.00    +0.000 C 
ATOM     14  C   UNL     1       2.983   6.089  19.002  0.00  0.00    +0.000 A 
ENDBRANCH   2   4
ENDBRANCH   1   2
BRANCH   1  15
ATOM     15  C   UNL     1       0.498  10.382  18.903  0.00  0.00    +0.000 C 
BRANCH  15  21
ATOM     16  C   UNL     1      -1.963  11.238  18.990  0.00  0.00    +0.000 A 
ATOM     17  C   UNL     1      -3.242  11.289  18.401  0.00  0.00    +0.000 A 
ATOM     18  C   UNL     1      -3.506  10.664  17.184  0.00  0.00    +0.000 A 
ATOM     19  C   UNL     1      -2.511   9.942  16.549  0.00  0.00    +0.000 A 
ATOM     20  C   UNL     1      -1.253   9.848  17.138  0.00  0.00    +0.000 A 
ATOM     21  C   UNL     1      -0.941  10.505  18.347  0.00  0.00    +0.000 A 
BRANCH  16  23
ATOM     22  C   UNL     1      -1.957  13.274  20.217  0.00  0.00    +0.000 C 
ATOM     23  O   UNL     1      -1.653  11.878  20.165  0.00  0.00    +0.000 OA
ENDBRANCH  16  23
ENDBRANCH  15  21
BRANCH  15  24
ATOM     24  N   UNL     1       1.189  11.727  18.879  0.00  0.00    +0.000 NA
ATOM     25  C   UNL     1       1.589  12.135  20.237  0.00  0.00    +0.000 C 
ATOM     26  C   UNL     1       2.360  11.805  18.009  0.00  0.00    +0.000 C 
ENDBRANCH  15  24
ENDBRANCH   1  15
TORSDOF 6
ENDMDL
MODEL 9
REMARK VINA RESULT:      -6.3      2.282      4.373
REMARK  Name = 
REMARK  11 active torsions:
REMARK  status: ('A' for Active; 'I' for Inactive)
REMARK    1  A    between atoms: C_1  and  O_2
REMARK    2  A    between atoms: O_2  and  C_3
REMARK    3  A    between atoms: C_8  and  C_9
REMARK    4  A    between atoms: C_9  and  C_10
REMARK    5  A    between atoms: C_9  and  N_23
REMARK    6  A    between atoms: C_10  and  N_11
REMARK    7  A    between atoms: N_11  and  C_12
REMARK    8  A    between atoms: C_18  and  C_19
REMARK    9  A    between atoms: C_20  and  C_21
REMARK   10  A    between atoms: N_23  and  C_24
REMARK   11  A    between atoms: N_23  and  C_25
REMARK                            x       y       z     vdW  Elec       q    Type
REMARK                         _______ _______ _______ _____ _____    ______ ____
ROOT
ATOM      1  C   UNL     1       2.315   7.236  19.875  0.00  0.00    +0.000 C 
ENDROOT
BRANCH   1   2
ATOM      2  N   UNL     1       0.957   7.783  19.891  0.00  0.00    +0.000 N 
ATOM      3  H   UNL     1       0.233   7.095  19.771  0.00  0.00    +0.000 HD
BRANCH   2   4
ATOM      4  C   UNL     1       0.672   8.871  20.711  0.00  0.00    +0.000 A 
ATOM      5  N   UNL     1       0.178   8.638  21.949  0.00  0.00    +0.000 NA
ATOM      6  C   UNL     1      -0.046   9.667  22.773  0.00  0.00    +0.000 A 
ATOM      7  N   UNL     1       0.149  10.962  22.526  0.00  0.00    +0.000 NA
ATOM      8  C   UNL     1       0.622  11.174  21.288  0.00  0.00    +0.000 A 
ATOM      9  S   UNL     1       0.935  12.762  20.771  0.00  0.00    +0.000 S 
ATOM     10  C   UNL     1       1.441  12.239  19.228  0.00  0.00    +0.000 A 
ATOM     11  C   UNL     1       1.861  13.254  18.212  0.00  0.00    +0.000 C 
ATOM     12  C   UNL     1       1.387  10.857  19.100  0.00  0.00    +0.000 A 
ATOM     13  C   UNL     1       1.768  10.124  17.851  0.00  0.00    +0.000 C 
ATOM     14  C   UNL     1       0.905  10.217  20.322  0.00  0.00    +0.000 A 
ENDBRANCH   2   4
ENDBRANCH   1   2
BRANCH   1  15
ATOM     15  C   UNL     1       2.452   6.025  18.877  0.00  0.00    +0.000 C 
BRANCH  15  21
ATOM     16  C   UNL     1       1.684   3.536  18.996  0.00  0.00    +0.000 A 
ATOM     17  C   UNL     1       1.408   2.398  19.779  0.00  0.00    +0.000 A 
ATOM     18  C   UNL     1       1.589   2.404  21.160  0.00  0.00    +0.000 A 
ATOM     19  C   UNL     1       2.013   3.558  21.795  0.00  0.00    +0.000 A 
ATOM     20  C   UNL     1       2.252   4.704  21.041  0.00  0.00    +0.000 A 
ATOM     21  C   UNL     1       2.119   4.719  19.637  0.00  0.00    +0.000 A 
BRANCH  16  23
ATOM     22  C   UNL     1       2.638   2.971  16.894  0.00  0.00    +0.000 C 
ATOM     23  O   UNL     1       1.560   3.554  17.629  0.00  0.00    +0.000 OA
ENDBRANCH  16  23
ENDBRANCH  15  21
BRANCH  15  24
ATOM     24  N   UNL     1       3.798   5.912  18.199  0.00  0.00    +0.000 NA
ATOM     25  C   UNL     1       4.117   7.145  17.458  0.00  0.00    +0.000 C 
ATOM     26  C   UNL     1       4.916   5.606  19.089  0.00  0.00    +0.000 C 
ENDBRANCH  15  24
ENDBRANCH   1  15
TORSDOF 6
ENDMDL
