MODEL 1
REMARK VINA RESULT:      -6.5      0.000      0.000
REMARK  Name = 
REMARK  11 active torsions:
REMARK  status: ('A' for Active; 'I' for Inactive)
REMARK    1  A    between atoms: C_1  and  O_2
REMARK    2  A    between atoms: O_2  and  C_3
REMARK    3  A    between atoms: C_3  and  C_4
REMARK    4  A    between atoms: C_4  and  N_5
REMARK    5  A    between atoms: N_5  and  C_6
REMARK    6  A    between atoms: C_6  and  C_7
REMARK    7  A    between atoms: C_7  and  O_8
REMARK    8  A    between atoms: O_8  and  C_9
REMARK    9  A    between atoms: C_10  and  C_12
REMARK   10  A    between atoms: C_12  and  C_13
REMARK   11  A    between atoms: C_13  and  N_14
REMARK                            x       y       z     vdW  Elec       q    Type
REMARK                         _______ _______ _______ _____ _____    ______ ____
ROOT
ATOM      1  C   UNL     1       4.790   6.777  17.541  0.00  0.00    +0.000 C 
ENDROOT
BRANCH   1   3
ATOM      2  N   UNL     1       6.064   5.347  15.944  0.00  0.00    +0.000 N 
ATOM      3  C   UNL     1       5.239   6.467  16.120  0.00  0.00    +0.000 C 
ATOM      4  O   UNL     1       4.906   7.203  15.189  0.00  0.00    +0.000 OA
BRANCH   2   5
ATOM      5  C   UNL     1       6.509   5.038  14.573  0.00  0.00    +0.000 C 
BRANCH   5   6
ATOM      6  C   UNL     1       5.608   4.103  13.746  0.00  0.00    +0.000 C 
BRANCH   6   8
ATOM      7  C   UNL     1       5.578   2.741  11.795  0.00  0.00    +0.000 C 
ATOM      8  O   UNL     1       6.297   3.139  12.955  0.00  0.00    +0.000 OA
ENDBRANCH   6   8
ENDBRANCH   5   6
ENDBRANCH   2   5
BRANCH   2   9
ATOM      9  C   UNL     1       6.369   4.420  17.053  0.00  0.00    +0.000 C 
BRANCH   9  10
ATOM     10  C   UNL     1       7.743   4.479  17.734  0.00  0.00    +0.000 C 
BRANCH  10  11
ATOM     11  O   UNL     1       7.676   5.132  19.002  0.00  0.00    +0.000 OA
ATOM     12  C   UNL     1       8.013   6.511  18.878  0.00  0.00    +0.000 C 
ENDBRANCH  10  11
ENDBRANCH   9  10
ENDBRANCH   2   9
ENDBRANCH   1   3
BRANCH   1  13
ATOM     13  C   UNL     1       3.279   6.980  17.632  0.00  0.00    +0.000 C 
BRANCH  13  14
ATOM     14  N   UNL     1       2.689   6.144  18.657  0.00  0.00    +0.000 N 
ATOM     15  C   UNL     1       2.141   6.589  19.842  0.00  0.00    +0.000 A 
ATOM     16  O   UNL     1       2.124   7.745  20.241  0.00  0.00    +0.000 OA
ATOM     17  O   UNL     1       1.561   5.528  20.560  0.00  0.00    +0.000 OA
ATOM     18  C   UNL     1       1.754   4.453  19.708  0.00  0.00    +0.000 A 
ATOM     19  C   UNL     1       1.315   3.166  19.938  0.00  0.00    +0.000 A 
ATOM     20  C   UNL     1       1.577   2.213  18.951  0.00  0.00    +0.000 A 
ATOM     21  C   UNL     1       2.268   2.567  17.774  0.00  0.00    +0.000 A 
ATOM     22  C   UNL     1       2.704   3.877  17.562  0.00  0.00    +0.000 A 
ATOM     23  C   UNL     1       2.429   4.797  18.554  0.00  0.00    +0.000 A 
ENDBRANCH  13  14
ENDBRANCH   1  13
TORSDOF 9
ENDMDL
MODEL 2
REMARK VINA RESULT:      -6.5      1.903      6.641
REMARK  Name = 
REMARK  11 active torsions:
REMARK  status: ('A' for Active; 'I' for Inactive)
REMARK    1  A    between atoms: C_1  and  O_2
REMARK    2  A    between atoms: O_2  and  C_3
REMARK    3  A    between atoms: C_3  and  C_4
REMARK    4  A    between atoms: C_4  and  N_5
REMARK    5  A    between atoms: N_5  and  C_6
REMARK    6  A    between atoms: C_6  and  C_7
REMARK    7  A    between atoms: C_7  and  O_8
REMARK    8  A    between atoms: O_8  and  C_9
REMARK    9  A    between atoms: C_10  and  C_12
REMARK   10  A    between atoms: C_12  and  C_13
REMARK   11  A    between atoms: C_13  and  N_14
REMARK                            x       y       z     vdW  Elec       q    Type
REMARK                         _______ _______ _______ _____ _____    ______ ____
ROOT
ATOM      1  C   UNL     1       3.831   4.896  17.045  0.00  0.00    +0.000 C 
ENDROOT
BRANCH   1   3
ATOM      2  N   UNL     1       2.323   4.690  19.022  0.00  0.00    +0.000 N 
ATOM      3  C   UNL     1       2.672   4.207  17.752  0.00  0.00    +0.000 C 
ATOM      4  O   UNL     1       2.105   3.248  17.225  0.00  0.00    +0.000 OA
BRANCH   2   5
ATOM      5  C   UNL     1       1.205   4.029  19.718  0.00  0.00    +0.000 C 
BRANCH   5   6
ATOM      6  C   UNL     1       1.541   2.755  20.514  0.00  0.00    +0.000 C 
BRANCH   6   8
ATOM      7  C   UNL     1       3.862   2.253  20.673  0.00  0.00    +0.000 C 
ATOM      8  O   UNL     1       2.725   2.827  21.304  0.00  0.00    +0.000 OA
ENDBRANCH   6   8
ENDBRANCH   5   6
ENDBRANCH   2   5
BRANCH   2   9
ATOM      9  C   UNL     1       2.946   5.901  19.593  0.00  0.00    +0.000 C 
BRANCH   9  10
ATOM     10  C   UNL     1       2.249   7.260  19.431  0.00  0.00    +0.000 C 
BRANCH  10  11
ATOM     11  O   UNL     1       2.648   7.917  18.228  0.00  0.00    +0.000 OA
ATOM     12  C   UNL     1       1.823   9.052  17.977  0.00  0.00    +0.000 C 
ENDBRANCH  10  11
ENDBRANCH   9  10
ENDBRANCH   2   9
ENDBRANCH   1   3
BRANCH   1  13
ATOM     13  C   UNL     1       4.903   3.901  16.603  0.00  0.00    +0.000 C 
BRANCH  13  14
ATOM     14  N   UNL     1       5.892   4.527  15.751  0.00  0.00    +0.000 N 
ATOM     15  C   UNL     1       6.908   5.360  16.174  0.00  0.00    +0.000 A 
ATOM     16  O   UNL     1       7.093   5.749  17.319  0.00  0.00    +0.000 OA
ATOM     17  O   UNL     1       7.753   5.709  15.106  0.00  0.00    +0.000 OA
ATOM     18  C   UNL     1       7.208   4.995  14.051  0.00  0.00    +0.000 A 
ATOM     19  C   UNL     1       7.712   4.962  12.768  0.00  0.00    +0.000 A 
ATOM     20  C   UNL     1       7.043   4.163  11.837  0.00  0.00    +0.000 A 
ATOM     21  C   UNL     1       5.899   3.429  12.209  0.00  0.00    +0.000 A 
ATOM     22  C   UNL     1       5.406   3.478  13.515  0.00  0.00    +0.000 A 
ATOM     23  C   UNL     1       6.088   4.274  14.413  0.00  0.00    +0.000 A 
ENDBRANCH  13  14
ENDBRANCH   1  13
TORSDOF 9
ENDMDL
MODEL 3
REMARK VINA RESULT:      -6.1      3.208      6.441
REMARK  Name = 
REMARK  11 active torsions:
REMARK  status: ('A' for Active; 'I' for Inactive)
REMARK    1  A    between atoms: C_1  and  O_2
REMARK    2  A    between atoms: O_2  and  C_3
REMARK    3  A    between atoms: C_3  and  C_4
REMARK    4  A    between atoms: C_4  and  N_5
REMARK    5  A    between atoms: N_5  and  C_6
REMARK    6  A    between atoms: C_6  and  C_7
REMARK    7  A    between atoms: C_7  and  O_8
REMARK    8  A    between atoms: O_8  and  C_9
REMARK    9  A    between atoms: C_10  and  C_12
REMARK   10  A    between atoms: C_12  and  C_13
REMARK   11  A    between atoms: C_13  and  N_14
REMARK                            x       y       z     vdW  Elec       q    Type
REMARK                         _______ _______ _______ _____ _____    ______ ____
ROOT
ATOM      1  C   UNL     1       2.487   7.157  18.794  0.00  0.00    +0.000 C 
ENDROOT
BRANCH   1   3
ATOM      2  N   UNL     1       1.212   9.224  19.363  0.00  0.00    +0.000 N 
ATOM      3  C   UNL     1       2.037   8.567  18.438  0.00  0.00    +0.000 C 
ATOM      4  O   UNL     1       2.369   9.073  17.365  0.00  0.00    +0.000 OA
BRANCH   2   5
ATOM      5  C   UNL     1       0.766  10.589  19.029  0.00  0.00    +0.000 C 
BRANCH   5   6
ATOM      6  C   UNL     1      -0.684  10.742  18.537  0.00  0.00    +0.000 C 
BRANCH   6   8
ATOM      7  C   UNL     1      -2.262  10.254  16.823  0.00  0.00    +0.000 C 
ATOM      8  O   UNL     1      -1.062   9.865  17.479  0.00  0.00    +0.000 OA
ENDBRANCH   6   8
ENDBRANCH   5   6
ENDBRANCH   2   5
BRANCH   2   9
ATOM      9  C   UNL     1       0.908   8.644  20.687  0.00  0.00    +0.000 C 
BRANCH   9  10
ATOM     10  C   UNL     1       1.485   9.297  21.951  0.00  0.00    +0.000 C 
BRANCH  10  11
ATOM     11  O   UNL     1       0.656  10.360  22.421  0.00  0.00    +0.000 OA
ATOM     12  C   UNL     1      -0.490   9.846  23.093  0.00  0.00    +0.000 C 
ENDBRANCH  10  11
ENDBRANCH   9  10
ENDBRANCH   2   9
ENDBRANCH   1   3
BRANCH   1  13
ATOM     13  C   UNL     1       3.684   6.710  17.956  0.00  0.00    +0.000 C 
BRANCH  13  14
ATOM     14  N   UNL     1       4.139   5.390  18.338  0.00  0.00    +0.000 N 
ATOM     15  C   UNL     1       5.372   5.090  18.881  0.00  0.00    +0.000 A 
ATOM     16  O   UNL     1       6.291   5.876  19.065  0.00  0.00    +0.000 OA
ATOM     17  O   UNL     1       5.451   3.732  19.235  0.00  0.00    +0.000 OA
ATOM     18  C   UNL     1       4.185   3.269  18.918  0.00  0.00    +0.000 A 
ATOM     19  C   UNL     1       3.732   1.982  19.124  0.00  0.00    +0.000 A 
ATOM     20  C   UNL     1       2.412   1.702  18.767  0.00  0.00    +0.000 A 
ATOM     21  C   UNL     1       1.587   2.702  18.215  0.00  0.00    +0.000 A 
ATOM     22  C   UNL     1       2.067   4.000  18.014  0.00  0.00    +0.000 A 
ATOM     23  C   UNL     1       3.374   4.247  18.378  0.00  0.00    +0.000 A 
ENDBRANCH  13  14
ENDBRANCH   1  13
TORSDOF 9
ENDMDL
MODEL 4
REMARK VINA RESULT:      -6.1      1.784      6.802
REMARK  Name = 
REMARK  11 active torsions:
REMARK  status: ('A' for Active; 'I' for Inactive)
REMARK    1  A    between atoms: C_1  and  O_2
REMARK    2  A    between atoms: O_2  and  C_3
REMARK    3  A    between atoms: C_3  and  C_4
REMARK    4  A    between atoms: C_4  and  N_5
REMARK    5  A    between atoms: N_5  and  C_6
REMARK    6  A    between atoms: C_6  and  C_7
REMARK    7  A    between atoms: C_7  and  O_8
REMARK    8  A    between atoms: O_8  and  C_9
REMARK    9  A    between atoms: C_10  and  C_12
REMARK   10  A    between atoms: C_12  and  C_13
REMARK   11  A    between atoms: C_13  and  N_14
REMARK                            x       y       z     vdW  Elec       q    Type
REMARK                         _______ _______ _______ _____ _____    ______ ____
ROOT
ATOM      1  C   UNL     1       3.708   4.129  16.685  0.00  0.00    +0.000 C 
ENDROOT
BRANCH   1   3
ATOM      2  N   UNL     1       3.206   4.703  19.059  0.00  0.00    +0.000 N 
ATOM      3  C   UNL     1       3.577   5.168  17.789  0.00  0.00    +0.000 C 
ATOM      4  O   UNL     1       3.760   6.362  17.544  0.00  0.00    +0.000 OA
BRANCH   2   5
ATOM      5  C   UNL     1       3.071   5.700  20.137  0.00  0.00    +0.000 C 
BRANCH   5   6
ATOM      6  C   UNL     1       1.640   6.113  20.523  0.00  0.00    +0.000 C 
BRANCH   6   8
ATOM      7  C   UNL     1       1.800   8.346  19.713  0.00  0.00    +0.000 C 
ATOM      8  O   UNL     1       1.464   7.500  20.804  0.00  0.00    +0.000 OA
ENDBRANCH   6   8
ENDBRANCH   5   6
ENDBRANCH   2   5
BRANCH   2   9
ATOM      9  C   UNL     1       3.090   3.261  19.359  0.00  0.00    +0.000 C 
BRANCH   9  10
ATOM     10  C   UNL     1       1.721   2.574  19.263  0.00  0.00    +0.000 C 
BRANCH  10  11
ATOM     11  O   UNL     1       0.889   2.898  20.378  0.00  0.00    +0.000 OA
ATOM     12  C   UNL     1       1.530   2.552  21.603  0.00  0.00    +0.000 C 
ENDBRANCH  10  11
ENDBRANCH   9  10
ENDBRANCH   2   9
ENDBRANCH   1   3
BRANCH   1  13
ATOM     13  C   UNL     1       5.108   3.519  16.636  0.00  0.00    +0.000 C 
BRANCH  13  14
ATOM     14  N   UNL     1       6.011   4.317  15.834  0.00  0.00    +0.000 N 
ATOM     15  C   UNL     1       6.925   5.231  16.318  0.00  0.00    +0.000 A 
ATOM     16  O   UNL     1       7.071   5.554  17.489  0.00  0.00    +0.000 OA
ATOM     17  O   UNL     1       7.715   5.753  15.280  0.00  0.00    +0.000 OA
ATOM     18  C   UNL     1       7.249   5.060  14.175  0.00  0.00    +0.000 A 
ATOM     19  C   UNL     1       7.744   5.179  12.893  0.00  0.00    +0.000 A 
ATOM     20  C   UNL     1       7.167   4.378  11.906  0.00  0.00    +0.000 A 
ATOM     21  C   UNL     1       6.120   3.489  12.221  0.00  0.00    +0.000 A 
ATOM     22  C   UNL     1       5.634   3.384  13.527  0.00  0.00    +0.000 A 
ATOM     23  C   UNL     1       6.225   4.187  14.481  0.00  0.00    +0.000 A 
ENDBRANCH  13  14
ENDBRANCH   1  13
TORSDOF 9
ENDMDL
MODEL 5
REMARK VINA RESULT:      -6.0      3.396      7.012
REMARK  Name = 
REMARK  11 active torsions:
REMARK  status: ('A' for Active; 'I' for Inactive)
REMARK    1  A    between atoms: C_1  and  O_2
REMARK    2  A    between atoms: O_2  and  C_3
REMARK    3  A    between atoms: C_3  and  C_4
REMARK    4  A    between atoms: C_4  and  N_5
REMARK    5  A    between atoms: N_5  and  C_6
REMARK    6  A    between atoms: C_6  and  C_7
REMARK    7  A    between atoms: C_7  and  O_8
REMARK    8  A    between atoms: O_8  and  C_9
REMARK    9  A    between atoms: C_10  and  C_12
REMARK   10  A    between atoms: C_12  and  C_13
REMARK   11  A    between atoms: C_13  and  N_14
REMARK                            x       y       z     vdW  Elec       q    Type
REMARK                         _______ _______ _______ _____ _____    ______ ____
ROOT
ATOM      1  C   UNL     1       2.444   7.490  19.070  0.00  0.00    +0.000 C 
ENDROOT
BRANCH   1   3
ATOM      2  N   UNL     1       0.914   9.391  19.586  0.00  0.00    +0.000 N 
ATOM      3  C   UNL     1       1.796   8.807  18.665  0.00  0.00    +0.000 C 
ATOM      4  O   UNL     1       2.026   9.298  17.559  0.00  0.00    +0.000 OA
BRANCH   2   5
ATOM      5  C   UNL     1       0.276  10.664  19.205  0.00  0.00    +0.000 C 
BRANCH   5   6
ATOM      6  C   UNL     1      -1.263  10.689  19.182  0.00  0.00    +0.000 C 
BRANCH   6   8
ATOM      7  C   UNL     1      -2.572  12.510  19.980  0.00  0.00    +0.000 C 
ATOM      8  O   UNL     1      -1.845  11.957  18.891  0.00  0.00    +0.000 OA
ENDBRANCH   6   8
ENDBRANCH   5   6
ENDBRANCH   2   5
BRANCH   2   9
ATOM      9  C   UNL     1       0.728   8.843  20.945  0.00  0.00    +0.000 C 
BRANCH   9  10
ATOM     10  C   UNL     1       1.542   9.417  22.112  0.00  0.00    +0.000 C 
BRANCH  10  11
ATOM     11  O   UNL     1       0.732   9.627  23.269  0.00  0.00    +0.000 OA
ATOM     12  C   UNL     1      -0.605   9.951  22.896  0.00  0.00    +0.000 C 
ENDBRANCH  10  11
ENDBRANCH   9  10
ENDBRANCH   2   9
ENDBRANCH   1   3
BRANCH   1  13
ATOM     13  C   UNL     1       3.178   6.831  17.904  0.00  0.00    +0.000 C 
BRANCH  13  14
ATOM     14  N   UNL     1       3.666   5.514  18.256  0.00  0.00    +0.000 N 
ATOM     15  C   UNL     1       4.961   5.208  18.624  0.00  0.00    +0.000 A 
ATOM     16  O   UNL     1       5.907   5.982  18.648  0.00  0.00    +0.000 OA
ATOM     17  O   UNL     1       5.072   3.859  19.003  0.00  0.00    +0.000 OA
ATOM     18  C   UNL     1       3.766   3.410  18.886  0.00  0.00    +0.000 A 
ATOM     19  C   UNL     1       3.331   2.138  19.195  0.00  0.00    +0.000 A 
ATOM     20  C   UNL     1       1.969   1.871  19.041  0.00  0.00    +0.000 A 
ATOM     21  C   UNL     1       1.087   2.870  18.584  0.00  0.00    +0.000 A 
ATOM     22  C   UNL     1       1.550   4.153  18.276  0.00  0.00    +0.000 A 
ATOM     23  C   UNL     1       2.900   4.387  18.440  0.00  0.00    +0.000 A 
ENDBRANCH  13  14
ENDBRANCH   1  13
TORSDOF 9
ENDMDL
MODEL 6
REMARK VINA RESULT:      -6.0      3.221      7.188
REMARK  Name = 
REMARK  11 active torsions:
REMARK  status: ('A' for Active; 'I' for Inactive)
REMARK    1  A    between atoms: C_1  and  O_2
REMARK    2  A    between atoms: O_2  and  C_3
REMARK    3  A    between atoms: C_3  and  C_4
REMARK    4  A    between atoms: C_4  and  N_5
REMARK    5  A    between atoms: N_5  and  C_6
REMARK    6  A    between atoms: C_6  and  C_7
REMARK    7  A    between atoms: C_7  and  O_8
REMARK    8  A    between atoms: O_8  and  C_9
REMARK    9  A    between atoms: C_10  and  C_12
REMARK   10  A    between atoms: C_12  and  C_13
REMARK   11  A    between atoms: C_13  and  N_14
REMARK                            x       y       z     vdW  Elec       q    Type
REMARK                         _______ _______ _______ _____ _____    ______ ____
ROOT
ATOM      1  C   UNL     1       2.265   6.983  19.831  0.00  0.00    +0.000 C 
ENDROOT
BRANCH   1   3
ATOM      2  N   UNL     1       0.896   9.067  19.887  0.00  0.00    +0.000 N 
ATOM      3  C   UNL     1       1.808   8.278  19.172  0.00  0.00    +0.000 C 
ATOM      4  O   UNL     1       2.209   8.577  18.047  0.00  0.00    +0.000 OA
BRANCH   2   5
ATOM      5  C   UNL     1       0.442  10.322  19.259  0.00  0.00    +0.000 C 
BRANCH   5   6
ATOM      6  C   UNL     1       1.323  11.564  19.478  0.00  0.00    +0.000 C 
BRANCH   6   8
ATOM      7  C   UNL     1       2.521  13.236  18.281  0.00  0.00    +0.000 C 
ATOM      8  O   UNL     1       1.304  12.516  18.417  0.00  0.00    +0.000 OA
ENDBRANCH   6   8
ENDBRANCH   5   6
ENDBRANCH   2   5
BRANCH   2   9
ATOM      9  C   UNL     1       0.504   8.745  21.274  0.00  0.00    +0.000 C 
BRANCH   9  10
ATOM     10  C   UNL     1       1.278   9.368  22.445  0.00  0.00    +0.000 C 
BRANCH  10  11
ATOM     11  O   UNL     1       0.422   9.653  23.551  0.00  0.00    +0.000 OA
ATOM     12  C   UNL     1      -0.781  10.277  23.110  0.00  0.00    +0.000 C 
ENDBRANCH  10  11
ENDBRANCH   9  10
ENDBRANCH   2   9
ENDBRANCH   1   3
BRANCH   1  13
ATOM     13  C   UNL     1       2.411   5.848  18.819  0.00  0.00    +0.000 C 
BRANCH  13  14
ATOM     14  N   UNL     1       3.718   5.229  18.897  0.00  0.00    +0.000 N 
ATOM     15  C   UNL     1       4.007   4.037  19.530  0.00  0.00    +0.000 A 
ATOM     16  O   UNL     1       3.224   3.353  20.174  0.00  0.00    +0.000 OA
ATOM     17  O   UNL     1       5.349   3.670  19.326  0.00  0.00    +0.000 OA
ATOM     18  C   UNL     1       5.811   4.682  18.501  0.00  0.00    +0.000 A 
ATOM     19  C   UNL     1       7.081   4.758  17.969  0.00  0.00    +0.000 A 
ATOM     20  C   UNL     1       7.362   5.840  17.132  0.00  0.00    +0.000 A 
ATOM     21  C   UNL     1       6.378   6.810  16.854  0.00  0.00    +0.000 A 
ATOM     22  C   UNL     1       5.097   6.713  17.404  0.00  0.00    +0.000 A 
ATOM     23  C   UNL     1       4.848   5.632  18.225  0.00  0.00    +0.000 A 
ENDBRANCH  13  14
ENDBRANCH   1  13
TORSDOF 9
ENDMDL
MODEL 7
REMARK VINA RESULT:      -5.9      1.225      1.664
REMARK  Name = 
REMARK  11 active torsions:
REMARK  status: ('A' for Active; 'I' for Inactive)
REMARK    1  A    between atoms: C_1  and  O_2
REMARK    2  A    between atoms: O_2  and  C_3
REMARK    3  A    between atoms: C_3  and  C_4
REMARK    4  A    between atoms: C_4  and  N_5
REMARK    5  A    between atoms: N_5  and  C_6
REMARK    6  A    between atoms: C_6  and  C_7
REMARK    7  A    between atoms: C_7  and  O_8
REMARK    8  A    between atoms: O_8  and  C_9
REMARK    9  A    between atoms: C_10  and  C_12
REMARK   10  A    between atoms: C_12  and  C_13
REMARK   11  A    between atoms: C_13  and  N_14
REMARK                            x       y       z     vdW  Elec       q    Type
REMARK                         _______ _______ _______ _____ _____    ______ ____
ROOT
ATOM      1  C   UNL     1       4.515   7.089  17.698  0.00  0.00    +0.000 C 
ENDROOT
BRANCH   1   3
ATOM      2  N   UNL     1       6.073   5.410  16.711  0.00  0.00    +0.000 N 
ATOM      3  C   UNL     1       5.208   6.490  16.482  0.00  0.00    +0.000 C 
ATOM      4  O   UNL     1       5.027   6.974  15.363  0.00  0.00    +0.000 OA
BRANCH   2   5
ATOM      5  C   UNL     1       6.754   4.824  15.542  0.00  0.00    +0.000 C 
BRANCH   5   6
ATOM      6  C   UNL     1       5.868   4.088  14.522  0.00  0.00    +0.000 C 
BRANCH   6   8
ATOM      7  C   UNL     1       7.214   4.698  12.656  0.00  0.00    +0.000 C 
ATOM      8  O   UNL     1       6.536   3.653  13.340  0.00  0.00    +0.000 OA
ENDBRANCH   6   8
ENDBRANCH   5   6
ENDBRANCH   2   5
BRANCH   2   9
ATOM      9  C   UNL     1       6.200   4.780  18.041  0.00  0.00    +0.000 C 
BRANCH   9  10
ATOM     10  C   UNL     1       5.376   3.526  18.367  0.00  0.00    +0.000 C 
BRANCH  10  11
ATOM     11  O   UNL     1       5.062   3.448  19.758  0.00  0.00    +0.000 OA
ATOM     12  C   UNL     1       4.512   2.174  20.079  0.00  0.00    +0.000 C 
ENDBRANCH  10  11
ENDBRANCH   9  10
ENDBRANCH   2   9
ENDBRANCH   1   3
BRANCH   1  13
ATOM     13  C   UNL     1       2.994   6.975  17.603  0.00  0.00    +0.000 C 
BRANCH  13  14
ATOM     14  N   UNL     1       2.446   6.224  18.713  0.00  0.00    +0.000 N 
ATOM     15  C   UNL     1       2.088   6.746  19.939  0.00  0.00    +0.000 A 
ATOM     16  O   UNL     1       2.235   7.905  20.302  0.00  0.00    +0.000 OA
ATOM     17  O   UNL     1       1.491   5.765  20.750  0.00  0.00    +0.000 OA
ATOM     18  C   UNL     1       1.473   4.660  19.915  0.00  0.00    +0.000 A 
ATOM     19  C   UNL     1       0.935   3.430  20.232  0.00  0.00    +0.000 A 
ATOM     20  C   UNL     1       0.983   2.437  19.252  0.00  0.00    +0.000 A 
ATOM     21  C   UNL     1       1.564   2.694  17.994  0.00  0.00    +0.000 A 
ATOM     22  C   UNL     1       2.104   3.948  17.694  0.00  0.00    +0.000 A 
ATOM     23  C   UNL     1       2.040   4.910  18.681  0.00  0.00    +0.000 A 
ENDBRANCH  13  14
ENDBRANCH   1  13
TORSDOF 9
ENDMDL
MODEL 8
REMARK VINA RESULT:      -5.9      1.638      4.458
REMARK  Name = 
REMARK  11 active torsions:
REMARK  status: ('A' for Active; 'I' for Inactive)
REMARK    1  A    between atoms: C_1  and  O_2
REMARK    2  A    between atoms: O_2  and  C_3
REMARK    3  A    between atoms: C_3  and  C_4
REMARK    4  A    between atoms: C_4  and  N_5
REMARK    5  A    between atoms: N_5  and  C_6
REMARK    6  A    between atoms: C_6  and  C_7
REMARK    7  A    between atoms: C_7  and  O_8
REMARK    8  A    between atoms: O_8  and  C_9
REMARK    9  A    between atoms: C_10  and  C_12
REMARK   10  A    between atoms: C_12  and  C_13
REMARK   11  A    between atoms: C_13  and  N_14
REMARK                            x       y       z     vdW  Elec       q    Type
REMARK                         _______ _______ _______ _____ _____    ______ ____
ROOT
ATOM      1  C   UNL     1       3.920   3.710  17.360  0.00  0.00    +0.000 C 
ENDROOT
BRANCH   1   3
ATOM      2  N   UNL     1       6.241   4.607  17.190  0.00  0.00    +0.000 N 
ATOM      3  C   UNL     1       5.275   3.986  17.996  0.00  0.00    +0.000 C 
ATOM      4  O   UNL     1       5.499   3.638  19.156  0.00  0.00    +0.000 OA
BRANCH   2   5
ATOM      5  C   UNL     1       7.560   4.876  17.792  0.00  0.00    +0.000 C 
BRANCH   5   6
ATOM      6  C   UNL     1       7.739   6.237  18.487  0.00  0.00    +0.000 C 
BRANCH   6   8
ATOM      7  C   UNL     1       8.147   8.533  18.009  0.00  0.00    +0.000 C 
ATOM      8  O   UNL     1       7.388   7.372  17.699  0.00  0.00    +0.000 OA
ENDBRANCH   6   8
ENDBRANCH   5   6
ENDBRANCH   2   5
BRANCH   2   9
ATOM      9  C   UNL     1       5.924   5.108  15.837  0.00  0.00    +0.000 C 
BRANCH   9  10
ATOM     10  C   UNL     1       6.584   4.457  14.614  0.00  0.00    +0.000 C 
BRANCH  10  11
ATOM     11  O   UNL     1       5.614   3.980  13.681  0.00  0.00    +0.000 OA
ATOM     12  C   UNL     1       6.247   3.469  12.512  0.00  0.00    +0.000 C 
ENDBRANCH  10  11
ENDBRANCH   9  10
ENDBRANCH   2   9
ENDBRANCH   1   3
BRANCH   1  13
ATOM     13  C   UNL     1       2.916   3.159  18.370  0.00  0.00    +0.000 C 
BRANCH  13  14
ATOM     14  N   UNL     1       2.487   4.176  19.307  0.00  0.00    +0.000 N 
ATOM     15  C   UNL     1       2.305   3.997  20.663  0.00  0.00    +0.000 A 
ATOM     16  O   UNL     1       2.415   2.943  21.273  0.00  0.00    +0.000 OA
ATOM     17  O   UNL     1       1.988   5.212  21.294  0.00  0.00    +0.000 OA
ATOM     18  C   UNL     1       2.045   6.116  20.245  0.00  0.00    +0.000 A 
ATOM     19  C   UNL     1       1.853   7.477  20.356  0.00  0.00    +0.000 A 
ATOM     20  C   UNL     1       1.976   8.238  19.191  0.00  0.00    +0.000 A 
ATOM     21  C   UNL     1       2.281   7.625  17.959  0.00  0.00    +0.000 A 
ATOM     22  C   UNL     1       2.472   6.243  17.871  0.00  0.00    +0.000 A 
ATOM     23  C   UNL     1       2.346   5.518  19.038  0.00  0.00    +0.000 A 
ENDBRANCH  13  14
ENDBRANCH   1  13
TORSDOF 9
ENDMDL
MODEL 9
REMARK VINA RESULT:      -5.9      2.688      6.821
REMARK  Name = 
REMARK  11 active torsions:
REMARK  status: ('A' for Active; 'I' for Inactive)
REMARK    1  A    between atoms: C_1  and  O_2
REMARK    2  A    between atoms: O_2  and  C_3
REMARK    3  A    between atoms: C_3  and  C_4
REMARK    4  A    between atoms: C_4  and  N_5
REMARK    5  A    between atoms: N_5  and  C_6
REMARK    6  A    between atoms: C_6  and  C_7
REMARK    7  A    between atoms: C_7  and  O_8
REMARK    8  A    between atoms: O_8  and  C_9
REMARK    9  A    between atoms: C_10  and  C_12
REMARK   10  A    between atoms: C_12  and  C_13
REMARK   11  A    between atoms: C_13  and  N_14
REMARK                            x       y       z     vdW  Elec       q    Type
REMARK                         _______ _______ _______ _____ _____    ______ ____
ROOT
ATOM      1  C   UNL     1       2.464   4.832  17.785  0.00  0.00    +0.000 C 
ENDROOT
BRANCH   1   3
ATOM      2  N   UNL     1       1.905   6.324  19.704  0.00  0.00    +0.000 N 
ATOM      3  C   UNL     1       2.416   6.223  18.402  0.00  0.00    +0.000 C 
ATOM      4  O   UNL     1       2.783   7.203  17.751  0.00  0.00    +0.000 OA
BRANCH   2   5
ATOM      5  C   UNL     1       1.849   7.666  20.311  0.00  0.00    +0.000 C 
BRANCH   5   6
ATOM      6  C   UNL     1       0.870   7.856  21.483  0.00  0.00    +0.000 C 
BRANCH   6   8
ATOM      7  C   UNL     1      -0.307   9.610  22.580  0.00  0.00    +0.000 C 
ATOM      8  O   UNL     1      -0.029   8.954  21.350  0.00  0.00    +0.000 OA
ENDBRANCH   6   8
ENDBRANCH   5   6
ENDBRANCH   2   5
BRANCH   2   9
ATOM      9  C   UNL     1       1.566   5.130  20.504  0.00  0.00    +0.000 C 
BRANCH   9  10
ATOM     10  C   UNL     1       2.563   4.609  21.549  0.00  0.00    +0.000 C 
BRANCH  10  11
ATOM     11  O   UNL     1       2.181   3.327  22.049  0.00  0.00    +0.000 OA
ATOM     12  C   UNL     1       1.422   2.612  21.078  0.00  0.00    +0.000 C 
ENDBRANCH  10  11
ENDBRANCH   9  10
ENDBRANCH   2   9
ENDBRANCH   1   3
BRANCH   1  13
ATOM     13  C   UNL     1       3.809   4.548  17.118  0.00  0.00    +0.000 C 
BRANCH  13  14
ATOM     14  N   UNL     1       4.913   4.769  18.027  0.00  0.00    +0.000 N 
ATOM     15  C   UNL     1       5.278   3.939  19.068  0.00  0.00    +0.000 A 
ATOM     16  O   UNL     1       4.692   2.926  19.423  0.00  0.00    +0.000 OA
ATOM     17  O   UNL     1       6.456   4.392  19.685  0.00  0.00    +0.000 OA
ATOM     18  C   UNL     1       6.787   5.497  18.919  0.00  0.00    +0.000 A 
ATOM     19  C   UNL     1       7.909   6.280  19.093  0.00  0.00    +0.000 A 
ATOM     20  C   UNL     1       8.094   7.342  18.205  0.00  0.00    +0.000 A 
ATOM     21  C   UNL     1       7.161   7.594  17.179  0.00  0.00    +0.000 A 
ATOM     22  C   UNL     1       6.030   6.788  17.022  0.00  0.00    +0.000 A 
ATOM     23  C   UNL     1       5.875   5.745  17.913  0.00  0.00    +0.000 A 
ENDBRANCH  13  14
ENDBRANCH   1  13
TORSDOF 9
ENDMDL
