MODEL 1
REMARK VINA RESULT:      -7.6      0.000      0.000
REMARK  Name = 
REMARK  7 active torsions:
REMARK  status: ('A' for Active; 'I' for Inactive)
REMARK    1  A    between atoms: C_1  and  C_2
REMARK    2  A    between atoms: C_2  and  C_3
REMARK    3  A    between atoms: C_3  and  C_4
REMARK    4  A    between atoms: C_4  and  O_5
REMARK    5  A    between atoms: O_5  and  C_6
REMARK    6  A    between atoms: C_19  and  C_20
REMARK    7  A    between atoms: C_20  and  C_21
REMARK                            x       y       z     vdW  Elec       q    Type
REMARK                         _______ _______ _______ _____ _____    ______ ____
ROOT
ATOM      1  C   UNL     1       5.615   5.837  16.012  0.00  0.00    +0.000 C 
ATOM      2  O   UNL     1       5.033   6.505  15.164  0.00  0.00    +0.000 OA
ATOM      3  N   UNL     1       5.319   5.800  17.380  0.00  0.00    +0.000 N 
ATOM      4  C   UNL     1       4.196   6.510  17.929  0.00  0.00    +0.000 A 
ATOM      5  C   UNL     1       3.688   7.690  17.372  0.00  0.00    +0.000 A 
ATOM      6  C   UNL     1       2.599   8.331  17.963  0.00  0.00    +0.000 A 
ATOM      7  F   UNL     1       2.115   9.451  17.411  0.00  0.00    +0.000 F 
ATOM      8  C   UNL     1       2.002   7.833  19.114  0.00  0.00    +0.000 A 
ATOM      9  C   UNL     1       2.463   6.640  19.660  0.00  0.00    +0.000 A 
ATOM     10  C   UNL     1       3.533   5.977  19.055  0.00  0.00    +0.000 A 
ATOM     11  N   UNL     1       3.863   4.695  19.522  0.00  0.00    +0.000 N 
ATOM     12  C   UNL     1       4.918   3.979  19.022  0.00  0.00    +0.000 C 
ATOM     13  O   UNL     1       5.099   2.812  19.362  0.00  0.00    +0.000 OA
ATOM     14  C   UNL     1       5.966   4.807  18.275  0.00  0.00    +0.000 C 
ATOM     15  H   UNL     1       3.257   4.215  20.176  0.00  0.00    +0.000 HD
ENDROOT
BRANCH  14  16
ATOM     16  C   UNL     1       6.857   5.447  19.365  0.00  0.00    +0.000 C 
ATOM     17  C   UNL     1       7.932   6.382  18.848  0.00  0.00    +0.000 C 
ENDBRANCH  14  16
BRANCH   1  18
ATOM     18  O   UNL     1       6.577   4.933  15.656  0.00  0.00    +0.000 OA
BRANCH  18  19
ATOM     19  C   UNL     1       6.120   3.968  14.701  0.00  0.00    +0.000 C 
BRANCH  19  20
ATOM     20  C   UNL     1       6.655   4.213  13.295  0.00  0.00    +0.000 C 
BRANCH  20  22
ATOM     21  C   UNL     1       4.708   3.446  11.847  0.00  0.00    +0.000 C 
ATOM     22  C   UNL     1       6.106   3.139  12.351  0.00  0.00    +0.000 C 
ENDBRANCH  20  22
ENDBRANCH  19  20
ENDBRANCH  18  19
ENDBRANCH   1  18
TORSDOF 5
ENDMDL
MODEL 2
REMARK VINA RESULT:      -7.2      3.279      5.843
REMARK  Name = 
REMARK  7 active torsions:
REMARK  status: ('A' for Active; 'I' for Inactive)
REMARK    1  A    between atoms: C_1  and  C_2
REMARK    2  A    between atoms: C_2  and  C_3
REMARK    3  A    between atoms: C_3  and  C_4
REMARK    4  A    between atoms: C_4  and  O_5
REMARK    5  A    between atoms: O_5  and  C_6
REMARK    6  A    between atoms: C_19  and  C_20
REMARK    7  A    between atoms: C_20  and  C_21
REMARK                            x       y       z     vdW  Elec       q    Type
REMARK                         _______ _______ _______ _____ _____    ______ ____
ROOT
ATOM      1  C   UNL     1       2.753   3.781  17.628  0.00  0.00    +0.000 C 
ATOM      2  O   UNL     1       3.372   2.894  17.051  0.00  0.00    +0.000 OA
ATOM      3  N   UNL     1       3.272   5.013  18.045  0.00  0.00    +0.000 N 
ATOM      4  C   UNL     1       4.622   5.404  17.743  0.00  0.00    +0.000 A 
ATOM      5  C   UNL     1       5.668   4.488  17.577  0.00  0.00    +0.000 A 
ATOM      6  C   UNL     1       6.956   4.940  17.293  0.00  0.00    +0.000 A 
ATOM      7  F   UNL     1       7.944   4.051  17.123  0.00  0.00    +0.000 F 
ATOM      8  C   UNL     1       7.241   6.296  17.180  0.00  0.00    +0.000 A 
ATOM      9  C   UNL     1       6.210   7.221  17.300  0.00  0.00    +0.000 A 
ATOM     10  C   UNL     1       4.912   6.773  17.553  0.00  0.00    +0.000 A 
ATOM     11  N   UNL     1       3.868   7.710  17.496  0.00  0.00    +0.000 N 
ATOM     12  C   UNL     1       2.567   7.379  17.767  0.00  0.00    +0.000 C 
ATOM     13  O   UNL     1       1.664   8.192  17.583  0.00  0.00    +0.000 OA
ATOM     14  C   UNL     1       2.380   6.083  18.560  0.00  0.00    +0.000 C 
ATOM     15  H   UNL     1       4.036   8.644  17.145  0.00  0.00    +0.000 HD
ENDROOT
BRANCH  14  16
ATOM     16  C   UNL     1       2.644   6.449  20.039  0.00  0.00    +0.000 C 
ATOM     17  C   UNL     1       1.478   7.102  20.756  0.00  0.00    +0.000 C 
ENDBRANCH  14  16
BRANCH   1  18
ATOM     18  O   UNL     1       1.403   3.687  17.819  0.00  0.00    +0.000 OA
BRANCH  18  19
ATOM     19  C   UNL     1       1.040   2.746  18.836  0.00  0.00    +0.000 C 
BRANCH  19  20
ATOM     20  C   UNL     1       0.635   3.406  20.149  0.00  0.00    +0.000 C 
BRANCH  20  22
ATOM     21  C   UNL     1       2.894   2.764  21.132  0.00  0.00    +0.000 C 
ATOM     22  C   UNL     1       1.387   2.735  21.305  0.00  0.00    +0.000 C 
ENDBRANCH  20  22
ENDBRANCH  19  20
ENDBRANCH  18  19
ENDBRANCH   1  18
TORSDOF 5
ENDMDL
MODEL 3
REMARK VINA RESULT:      -6.8      2.321      2.534
REMARK  Name = 
REMARK  7 active torsions:
REMARK  status: ('A' for Active; 'I' for Inactive)
REMARK    1  A    between atoms: C_1  and  C_2
REMARK    2  A    between atoms: C_2  and  C_3
REMARK    3  A    between atoms: C_3  and  C_4
REMARK    4  A    between atoms: C_4  and  O_5
REMARK    5  A    between atoms: O_5  and  C_6
REMARK    6  A    between atoms: C_19  and  C_20
REMARK    7  A    between atoms: C_20  and  C_21
REMARK                            x       y       z     vdW  Elec       q    Type
REMARK                         _______ _______ _______ _____ _____    ______ ____
ROOT
ATOM      1  C   UNL     1       5.706   4.219  15.636  0.00  0.00    +0.000 C 
ATOM      2  O   UNL     1       4.839   3.469  15.204  0.00  0.00    +0.000 OA
ATOM      3  N   UNL     1       5.626   4.989  16.804  0.00  0.00    +0.000 N 
ATOM      4  C   UNL     1       4.498   4.898  17.691  0.00  0.00    +0.000 A 
ATOM      5  C   UNL     1       3.208   4.564  17.261  0.00  0.00    +0.000 A 
ATOM      6  C   UNL     1       2.159   4.503  18.177  0.00  0.00    +0.000 A 
ATOM      7  F   UNL     1       0.933   4.168  17.754  0.00  0.00    +0.000 F 
ATOM      8  C   UNL     1       2.355   4.781  19.525  0.00  0.00    +0.000 A 
ATOM      9  C   UNL     1       3.635   5.073  19.981  0.00  0.00    +0.000 A 
ATOM     10  C   UNL     1       4.697   5.105  19.073  0.00  0.00    +0.000 A 
ATOM     11  N   UNL     1       5.998   5.230  19.585  0.00  0.00    +0.000 N 
ATOM     12  C   UNL     1       7.101   5.311  18.777  0.00  0.00    +0.000 C 
ATOM     13  O   UNL     1       8.231   5.291  19.258  0.00  0.00    +0.000 OA
ATOM     14  C   UNL     1       6.814   5.709  17.327  0.00  0.00    +0.000 C 
ATOM     15  H   UNL     1       6.168   5.157  20.580  0.00  0.00    +0.000 HD
ENDROOT
BRANCH  14  16
ATOM     16  C   UNL     1       6.650   7.247  17.334  0.00  0.00    +0.000 C 
ATOM     17  C   UNL     1       7.912   8.025  17.653  0.00  0.00    +0.000 C 
ENDBRANCH  14  16
BRANCH   1  18
ATOM     18  O   UNL     1       6.938   4.283  15.048  0.00  0.00    +0.000 OA
BRANCH  18  19
ATOM     19  C   UNL     1       6.908   4.858  13.736  0.00  0.00    +0.000 C 
BRANCH  19  20
ATOM     20  C   UNL     1       7.114   3.834  12.625  0.00  0.00    +0.000 C 
BRANCH  20  22
ATOM     21  C   UNL     1       5.757   2.003  11.491  0.00  0.00    +0.000 C 
ATOM     22  C   UNL     1       5.749   3.403  12.077  0.00  0.00    +0.000 C 
ENDBRANCH  20  22
ENDBRANCH  19  20
ENDBRANCH  18  19
ENDBRANCH   1  18
TORSDOF 5
ENDMDL
MODEL 4
REMARK VINA RESULT:      -6.7      3.026      5.285
REMARK  Name = 
REMARK  7 active torsions:
REMARK  status: ('A' for Active; 'I' for Inactive)
REMARK    1  A    between atoms: C_1  and  C_2
REMARK    2  A    between atoms: C_2  and  C_3
REMARK    3  A    between atoms: C_3  and  C_4
REMARK    4  A    between atoms: C_4  and  O_5
REMARK    5  A    between atoms: O_5  and  C_6
REMARK    6  A    between atoms: C_19  and  C_20
REMARK    7  A    between atoms: C_20  and  C_21
REMARK                            x       y       z     vdW  Elec       q    Type
REMARK                         _______ _______ _______ _____ _____    ______ ____
ROOT
ATOM      1  C   UNL     1       6.138   5.395  18.931  0.00  0.00    +0.000 C 
ATOM      2  O   UNL     1       6.495   4.420  19.581  0.00  0.00    +0.000 OA
ATOM      3  N   UNL     1       4.973   5.491  18.158  0.00  0.00    +0.000 N 
ATOM      4  C   UNL     1       4.001   4.433  18.125  0.00  0.00    +0.000 A 
ATOM      5  C   UNL     1       4.328   3.084  18.314  0.00  0.00    +0.000 A 
ATOM      6  C   UNL     1       3.332   2.108  18.260  0.00  0.00    +0.000 A 
ATOM      7  F   UNL     1       3.657   0.824  18.457  0.00  0.00    +0.000 F 
ATOM      8  C   UNL     1       2.006   2.439  18.006  0.00  0.00    +0.000 A 
ATOM      9  C   UNL     1       1.653   3.774  17.857  0.00  0.00    +0.000 A 
ATOM     10  C   UNL     1       2.640   4.759  17.941  0.00  0.00    +0.000 A 
ATOM     11  N   UNL     1       2.232   6.102  17.961  0.00  0.00    +0.000 N 
ATOM     12  C   UNL     1       3.123   7.141  18.001  0.00  0.00    +0.000 C 
ATOM     13  O   UNL     1       2.730   8.296  18.147  0.00  0.00    +0.000 OA
ATOM     14  C   UNL     1       4.550   6.788  17.573  0.00  0.00    +0.000 C 
ATOM     15  H   UNL     1       1.252   6.340  18.053  0.00  0.00    +0.000 HD
ENDROOT
BRANCH  14  16
ATOM     16  C   UNL     1       4.542   6.795  16.026  0.00  0.00    +0.000 C 
ATOM     17  C   UNL     1       5.467   5.785  15.376  0.00  0.00    +0.000 C 
ENDBRANCH  14  16
BRANCH   1  18
ATOM     18  O   UNL     1       6.820   6.577  19.003  0.00  0.00    +0.000 OA
BRANCH  18  19
ATOM     19  C   UNL     1       7.789   6.735  17.959  0.00  0.00    +0.000 C 
BRANCH  19  20
ATOM     20  C   UNL     1       7.978   8.185  17.529  0.00  0.00    +0.000 C 
BRANCH  20  22
ATOM     21  C   UNL     1       8.957  10.406  18.298  0.00  0.00    +0.000 C 
ATOM     22  C   UNL     1       8.660   8.962  18.660  0.00  0.00    +0.000 C 
ENDBRANCH  20  22
ENDBRANCH  19  20
ENDBRANCH  18  19
ENDBRANCH   1  18
TORSDOF 5
ENDMDL
MODEL 5
REMARK VINA RESULT:      -6.6      2.836      5.316
REMARK  Name = 
REMARK  7 active torsions:
REMARK  status: ('A' for Active; 'I' for Inactive)
REMARK    1  A    between atoms: C_1  and  C_2
REMARK    2  A    between atoms: C_2  and  C_3
REMARK    3  A    between atoms: C_3  and  C_4
REMARK    4  A    between atoms: C_4  and  O_5
REMARK    5  A    between atoms: O_5  and  C_6
REMARK    6  A    between atoms: C_19  and  C_20
REMARK    7  A    between atoms: C_20  and  C_21
REMARK                            x       y       z     vdW  Elec       q    Type
REMARK                         _______ _______ _______ _____ _____    ______ ____
ROOT
ATOM      1  C   UNL     1       7.262   5.411  18.799  0.00  0.00    +0.000 C 
ATOM      2  O   UNL     1       7.184   5.297  20.017  0.00  0.00    +0.000 OA
ATOM      3  N   UNL     1       6.320   4.963  17.865  0.00  0.00    +0.000 N 
ATOM      4  C   UNL     1       5.072   4.376  18.274  0.00  0.00    +0.000 A 
ATOM      5  C   UNL     1       4.912   3.675  19.476  0.00  0.00    +0.000 A 
ATOM      6  C   UNL     1       3.673   3.125  19.805  0.00  0.00    +0.000 A 
ATOM      7  F   UNL     1       3.530   2.469  20.964  0.00  0.00    +0.000 F 
ATOM      8  C   UNL     1       2.579   3.243  18.956  0.00  0.00    +0.000 A 
ATOM      9  C   UNL     1       2.704   3.970  17.779  0.00  0.00    +0.000 A 
ATOM     10  C   UNL     1       3.934   4.550  17.458  0.00  0.00    +0.000 A 
ATOM     11  N   UNL     1       3.986   5.420  16.357  0.00  0.00    +0.000 N 
ATOM     12  C   UNL     1       5.151   6.007  15.938  0.00  0.00    +0.000 C 
ATOM     13  O   UNL     1       5.137   6.860  15.054  0.00  0.00    +0.000 OA
ATOM     14  C   UNL     1       6.432   5.329  16.431  0.00  0.00    +0.000 C 
ATOM     15  H   UNL     1       3.135   5.723  15.902  0.00  0.00    +0.000 HD
ENDROOT
BRANCH  14  16
ATOM     16  C   UNL     1       6.654   4.116  15.498  0.00  0.00    +0.000 C 
ATOM     17  C   UNL     1       6.386   4.378  14.030  0.00  0.00    +0.000 C 
ENDBRANCH  14  16
BRANCH   1  18
ATOM     18  O   UNL     1       8.273   6.128  18.223  0.00  0.00    +0.000 OA
BRANCH  18  19
ATOM     19  C   UNL     1       8.347   7.480  18.695  0.00  0.00    +0.000 C 
BRANCH  19  20
ATOM     20  C   UNL     1       7.812   8.496  17.692  0.00  0.00    +0.000 C 
BRANCH  20  22
ATOM     21  C   UNL     1       9.166   9.954  19.279  0.00  0.00    +0.000 C 
ATOM     22  C   UNL     1       8.511   9.841  17.915  0.00  0.00    +0.000 C 
ENDBRANCH  20  22
ENDBRANCH  19  20
ENDBRANCH  18  19
ENDBRANCH   1  18
TORSDOF 5
ENDMDL
MODEL 6
REMARK VINA RESULT:      -6.6      2.937      5.442
REMARK  Name = 
REMARK  7 active torsions:
REMARK  status: ('A' for Active; 'I' for Inactive)
REMARK    1  A    between atoms: C_1  and  C_2
REMARK    2  A    between atoms: C_2  and  C_3
REMARK    3  A    between atoms: C_3  and  C_4
REMARK    4  A    between atoms: C_4  and  O_5
REMARK    5  A    between atoms: O_5  and  C_6
REMARK    6  A    between atoms: C_19  and  C_20
REMARK    7  A    between atoms: C_20  and  C_21
REMARK                            x       y       z     vdW  Elec       q    Type
REMARK                         _______ _______ _______ _____ _____    ______ ____
ROOT
ATOM      1  C   UNL     1       7.085   5.643  18.412  0.00  0.00    +0.000 C 
ATOM      2  O   UNL     1       7.577   5.082  19.384  0.00  0.00    +0.000 OA
ATOM      3  N   UNL     1       5.783   5.466  17.927  0.00  0.00    +0.000 N 
ATOM      4  C   UNL     1       4.830   4.635  18.611  0.00  0.00    +0.000 A 
ATOM      5  C   UNL     1       5.195   3.528  19.387  0.00  0.00    +0.000 A 
ATOM      6  C   UNL     1       4.215   2.760  20.016  0.00  0.00    +0.000 A 
ATOM      7  F   UNL     1       4.579   1.713  20.766  0.00  0.00    +0.000 F 
ATOM      8  C   UNL     1       2.864   3.058  19.882  0.00  0.00    +0.000 A 
ATOM      9  C   UNL     1       2.481   4.176  19.151  0.00  0.00    +0.000 A 
ATOM     10  C   UNL     1       3.459   4.968  18.545  0.00  0.00    +0.000 A 
ATOM     11  N   UNL     1       3.059   6.180  17.963  0.00  0.00    +0.000 N 
ATOM     12  C   UNL     1       3.935   7.008  17.310  0.00  0.00    +0.000 C 
ATOM     13  O   UNL     1       3.577   8.118  16.926  0.00  0.00    +0.000 OA
ATOM     14  C   UNL     1       5.239   6.344  16.860  0.00  0.00    +0.000 C 
ATOM     15  H   UNL     1       2.121   6.533  18.103  0.00  0.00    +0.000 HD
ENDROOT
BRANCH  14  16
ATOM     16  C   UNL     1       4.903   5.591  15.552  0.00  0.00    +0.000 C 
ATOM     17  C   UNL     1       5.975   4.634  15.069  0.00  0.00    +0.000 C 
ENDBRANCH  14  16
BRANCH   1  18
ATOM     18  O   UNL     1       7.762   6.630  17.753  0.00  0.00    +0.000 OA
BRANCH  18  19
ATOM     19  C   UNL     1       8.283   7.639  18.627  0.00  0.00    +0.000 C 
BRANCH  19  20
ATOM     20  C   UNL     1       8.234   9.039  18.026  0.00  0.00    +0.000 C 
BRANCH  20  22
ATOM     21  C   UNL     1       9.321  11.332  18.228  0.00  0.00    +0.000 C 
ATOM     22  C   UNL     1       9.075   9.988  18.888  0.00  0.00    +0.000 C 
ENDBRANCH  20  22
ENDBRANCH  19  20
ENDBRANCH  18  19
ENDBRANCH   1  18
TORSDOF 5
ENDMDL
MODEL 7
REMARK VINA RESULT:      -6.4      2.904      5.828
REMARK  Name = 
REMARK  7 active torsions:
REMARK  status: ('A' for Active; 'I' for Inactive)
REMARK    1  A    between atoms: C_1  and  C_2
REMARK    2  A    between atoms: C_2  and  C_3
REMARK    3  A    between atoms: C_3  and  C_4
REMARK    4  A    between atoms: C_4  and  O_5
REMARK    5  A    between atoms: O_5  and  C_6
REMARK    6  A    between atoms: C_19  and  C_20
REMARK    7  A    between atoms: C_20  and  C_21
REMARK                            x       y       z     vdW  Elec       q    Type
REMARK                         _______ _______ _______ _____ _____    ______ ____
ROOT
ATOM      1  C   UNL     1       2.884   6.921  18.587  0.00  0.00    +0.000 C 
ATOM      2  O   UNL     1       1.830   6.697  19.170  0.00  0.00    +0.000 OA
ATOM      3  N   UNL     1       3.833   5.967  18.200  0.00  0.00    +0.000 N 
ATOM      4  C   UNL     1       3.606   4.559  18.382  0.00  0.00    +0.000 A 
ATOM      5  C   UNL     1       2.809   4.037  19.409  0.00  0.00    +0.000 A 
ATOM      6  C   UNL     1       2.639   2.658  19.531  0.00  0.00    +0.000 A 
ATOM      7  F   UNL     1       1.864   2.174  20.509  0.00  0.00    +0.000 F 
ATOM      8  C   UNL     1       3.257   1.772  18.657  0.00  0.00    +0.000 A 
ATOM      9  C   UNL     1       4.018   2.269  17.606  0.00  0.00    +0.000 A 
ATOM     10  C   UNL     1       4.166   3.650  17.459  0.00  0.00    +0.000 A 
ATOM     11  N   UNL     1       4.790   4.127  16.296  0.00  0.00    +0.000 N 
ATOM     12  C   UNL     1       5.019   5.459  16.077  0.00  0.00    +0.000 C 
ATOM     13  O   UNL     1       5.450   5.850  14.994  0.00  0.00    +0.000 OA
ATOM     14  C   UNL     1       4.977   6.338  17.329  0.00  0.00    +0.000 C 
ATOM     15  H   UNL     1       4.997   3.499  15.529  0.00  0.00    +0.000 HD
ENDROOT
BRANCH  14  16
ATOM     16  C   UNL     1       6.354   6.167  18.013  0.00  0.00    +0.000 C 
ATOM     17  C   UNL     1       7.414   7.159  17.577  0.00  0.00    +0.000 C 
ENDBRANCH  14  16
BRANCH   1  18
ATOM     18  O   UNL     1       3.185   8.176  18.136  0.00  0.00    +0.000 OA
BRANCH  18  19
ATOM     19  C   UNL     1       2.056   8.862  17.581  0.00  0.00    +0.000 C 
BRANCH  19  20
ATOM     20  C   UNL     1       1.750  10.181  18.282  0.00  0.00    +0.000 C 
BRANCH  20  22
ATOM     21  C   UNL     1       0.019   9.794  20.108  0.00  0.00    +0.000 C 
ATOM     22  C   UNL     1       0.268  10.213  18.671  0.00  0.00    +0.000 C 
ENDBRANCH  20  22
ENDBRANCH  19  20
ENDBRANCH  18  19
ENDBRANCH   1  18
TORSDOF 5
ENDMDL
MODEL 8
REMARK VINA RESULT:      -6.4      3.053      5.737
REMARK  Name = 
REMARK  7 active torsions:
REMARK  status: ('A' for Active; 'I' for Inactive)
REMARK    1  A    between atoms: C_1  and  C_2
REMARK    2  A    between atoms: C_2  and  C_3
REMARK    3  A    between atoms: C_3  and  C_4
REMARK    4  A    between atoms: C_4  and  O_5
REMARK    5  A    between atoms: O_5  and  C_6
REMARK    6  A    between atoms: C_19  and  C_20
REMARK    7  A    between atoms: C_20  and  C_21
REMARK                            x       y       z     vdW  Elec       q    Type
REMARK                         _______ _______ _______ _____ _____    ______ ____
ROOT
ATOM      1  C   UNL     1       2.711   6.819  19.096  0.00  0.00    +0.000 C 
ATOM      2  O   UNL     1       1.644   6.866  19.697  0.00  0.00    +0.000 OA
ATOM      3  N   UNL     1       3.477   5.670  18.860  0.00  0.00    +0.000 N 
ATOM      4  C   UNL     1       3.015   4.364  19.246  0.00  0.00    +0.000 A 
ATOM      5  C   UNL     1       2.160   4.142  20.332  0.00  0.00    +0.000 A 
ATOM      6  C   UNL     1       1.759   2.845  20.654  0.00  0.00    +0.000 A 
ATOM      7  F   UNL     1       0.929   2.650  21.687  0.00  0.00    +0.000 F 
ATOM      8  C   UNL     1       2.201   1.748  19.925  0.00  0.00    +0.000 A 
ATOM      9  C   UNL     1       3.017   1.948  18.818  0.00  0.00    +0.000 A 
ATOM     10  C   UNL     1       3.397   3.247  18.471  0.00  0.00    +0.000 A 
ATOM     11  N   UNL     1       4.073   3.434  17.256  0.00  0.00    +0.000 N 
ATOM     12  C   UNL     1       4.522   4.661  16.845  0.00  0.00    +0.000 C 
ATOM     13  O   UNL     1       4.994   4.810  15.721  0.00  0.00    +0.000 OA
ATOM     14  C   UNL     1       4.652   5.708  17.955  0.00  0.00    +0.000 C 
ATOM     15  H   UNL     1       4.155   2.675  16.592  0.00  0.00    +0.000 HD
ENDROOT
BRANCH  14  16
ATOM     16  C   UNL     1       5.992   5.405  18.667  0.00  0.00    +0.000 C 
ATOM     17  C   UNL     1       7.182   6.193  18.156  0.00  0.00    +0.000 C 
ENDBRANCH  14  16
BRANCH   1  18
ATOM     18  O   UNL     1       3.214   7.924  18.468  0.00  0.00    +0.000 OA
BRANCH  18  19
ATOM     19  C   UNL     1       2.267   8.561  17.602  0.00  0.00    +0.000 C 
BRANCH  19  20
ATOM     20  C   UNL     1       1.873   9.959  18.067  0.00  0.00    +0.000 C 
BRANCH  20  22
ATOM     21  C   UNL     1       0.074  10.022  19.867  0.00  0.00    +0.000 C 
ATOM     22  C   UNL     1       0.373   9.983  18.380  0.00  0.00    +0.000 C 
ENDBRANCH  20  22
ENDBRANCH  19  20
ENDBRANCH  18  19
ENDBRANCH   1  18
TORSDOF 5
ENDMDL
MODEL 9
REMARK VINA RESULT:      -6.4      2.862      6.466
REMARK  Name = 
REMARK  7 active torsions:
REMARK  status: ('A' for Active; 'I' for Inactive)
REMARK    1  A    between atoms: C_1  and  C_2
REMARK    2  A    between atoms: C_2  and  C_3
REMARK    3  A    between atoms: C_3  and  C_4
REMARK    4  A    between atoms: C_4  and  O_5
REMARK    5  A    between atoms: O_5  and  C_6
REMARK    6  A    between atoms: C_19  and  C_20
REMARK    7  A    between atoms: C_20  and  C_21
REMARK                            x       y       z     vdW  Elec       q    Type
REMARK                         _______ _______ _______ _____ _____    ______ ____
ROOT
ATOM      1  C   UNL     1       2.507   6.543  19.298  0.00  0.00    +0.000 C 
ATOM      2  O   UNL     1       2.829   7.669  18.939  0.00  0.00    +0.000 OA
ATOM      3  N   UNL     1       2.960   5.338  18.744  0.00  0.00    +0.000 N 
ATOM      4  C   UNL     1       3.960   5.312  17.711  0.00  0.00    +0.000 A 
ATOM      5  C   UNL     1       4.133   6.348  16.784  0.00  0.00    +0.000 A 
ATOM      6  C   UNL     1       5.118   6.251  15.802  0.00  0.00    +0.000 A 
ATOM      7  F   UNL     1       5.282   7.255  14.932  0.00  0.00    +0.000 F 
ATOM      8  C   UNL     1       5.938   5.133  15.706  0.00  0.00    +0.000 A 
ATOM      9  C   UNL     1       5.812   4.112  16.640  0.00  0.00    +0.000 A 
ATOM     10  C   UNL     1       4.848   4.217  17.646  0.00  0.00    +0.000 A 
ATOM     11  N   UNL     1       4.859   3.260  18.672  0.00  0.00    +0.000 N 
ATOM     12  C   UNL     1       3.932   3.253  19.681  0.00  0.00    +0.000 C 
ATOM     13  O   UNL     1       4.048   2.482  20.631  0.00  0.00    +0.000 OA
ATOM     14  C   UNL     1       2.651   4.037  19.389  0.00  0.00    +0.000 C 
ATOM     15  H   UNL     1       5.625   2.604  18.755  0.00  0.00    +0.000 HD
ENDROOT
BRANCH  14  16
ATOM     16  C   UNL     1       1.775   3.108  18.516  0.00  0.00    +0.000 C 
ATOM     17  C   UNL     1       0.553   2.541  19.210  0.00  0.00    +0.000 C 
ENDBRANCH  14  16
BRANCH   1  18
ATOM     18  O   UNL     1       1.729   6.353  20.405  0.00  0.00    +0.000 OA
BRANCH  18  19
ATOM     19  C   UNL     1       1.506   7.555  21.152  0.00  0.00    +0.000 C 
BRANCH  19  20
ATOM     20  C   UNL     1       0.039   7.969  21.202  0.00  0.00    +0.000 C 
BRANCH  20  22
ATOM     21  C   UNL     1      -0.091   9.527  23.211  0.00  0.00    +0.000 C 
ATOM     22  C   UNL     1      -0.060   9.416  21.698  0.00  0.00    +0.000 C 
ENDBRANCH  20  22
ENDBRANCH  19  20
ENDBRANCH  18  19
ENDBRANCH   1  18
TORSDOF 5
ENDMDL
