MODEL 1
REMARK VINA RESULT:      -7.9      0.000      0.000
REMARK  Name = 
REMARK  6 active torsions:
REMARK  status: ('A' for Active; 'I' for Inactive)
REMARK    1  A    between atoms: C_1  and  O_2
REMARK    2  A    between atoms: O_2  and  C_3
REMARK    3  A    between atoms: C_5  and  C_6
REMARK    4  A    between atoms: C_6  and  C_7
REMARK    5  A    between atoms: C_7  and  C_8
REMARK    6  A    between atoms: C_13  and  C_14
REMARK                            x       y       z     vdW  Elec       q    Type
REMARK                         _______ _______ _______ _____ _____    ______ ____
ROOT
ATOM      1  C   UNL     1       3.713   4.553  18.922  0.00  0.00    +0.000 A 
ATOM      2  C   UNL     1       4.604   4.070  17.949  0.00  0.00    +0.000 A 
ATOM      3  C   UNL     1       5.034   4.861  16.869  0.00  0.00    +0.000 A 
ATOM      4  C   UNL     1       4.544   6.171  16.723  0.00  0.00    +0.000 A 
ATOM      5  C   UNL     1       3.647   6.678  17.676  0.00  0.00    +0.000 A 
ATOM      6  C   UNL     1       2.975   7.912  17.864  0.00  0.00    +0.000 A 
ATOM      7  C   UNL     1       2.234   7.798  19.023  0.00  0.00    +0.000 A 
ATOM      8  O   UNL     1       2.401   6.547  19.549  0.00  0.00    +0.000 OA
ATOM      9  C   UNL     1       3.261   5.865  18.735  0.00  0.00    +0.000 A 
ENDROOT
BRANCH   7  10
ATOM     10  C   UNL     1       1.365   8.712  19.762  0.00  0.00    +0.000 A 
ATOM     11  C   UNL     1       0.783   9.839  19.137  0.00  0.00    +0.000 A 
ATOM     12  C   UNL     1      -0.066  10.707  19.835  0.00  0.00    +0.000 A 
ATOM     13  C   UNL     1      -0.313  10.432  21.161  0.00  0.00    +0.000 A 
ATOM     14  C   UNL     1       0.248   9.344  21.785  0.00  0.00    +0.000 A 
ATOM     15  C   UNL     1       1.085   8.471  21.119  0.00  0.00    +0.000 A 
ATOM     16  O   UNL     1      -0.118   9.249  23.091  0.00  0.00    +0.000 OA
ATOM     17  C   UNL     1      -0.947  10.422  23.226  0.00  0.00    +0.000 C 
ATOM     18  O   UNL     1      -1.107  11.155  21.993  0.00  0.00    +0.000 OA
ENDBRANCH   7  10
BRANCH   1  20
ATOM     19  C   UNL     1       3.834   2.550  20.171  0.00  0.00    +0.000 C 
ATOM     20  O   UNL     1       3.245   3.831  19.987  0.00  0.00    +0.000 OA
ENDBRANCH   1  20
BRANCH   3  21
ATOM     21  C   UNL     1       6.011   4.299  15.862  0.00  0.00    +0.000 C 
BRANCH  21  22
ATOM     22  C   UNL     1       5.628   4.575  14.404  0.00  0.00    +0.000 C 
BRANCH  22  23
ATOM     23  C   UNL     1       6.382   3.690  13.423  0.00  0.00    +0.000 C 
ATOM     24 BR   UNL     1       5.204   3.194  11.953  0.00  0.00    +0.000 Br
ENDBRANCH  22  23
ENDBRANCH  21  22
ENDBRANCH   3  21
TORSDOF 5
ENDMDL
MODEL 2
REMARK VINA RESULT:      -7.8      2.156      2.707
REMARK  Name = 
REMARK  6 active torsions:
REMARK  status: ('A' for Active; 'I' for Inactive)
REMARK    1  A    between atoms: C_1  and  O_2
REMARK    2  A    between atoms: O_2  and  C_3
REMARK    3  A    between atoms: C_5  and  C_6
REMARK    4  A    between atoms: C_6  and  C_7
REMARK    5  A    between atoms: C_7  and  C_8
REMARK    6  A    between atoms: C_13  and  C_14
REMARK                            x       y       z     vdW  Elec       q    Type
REMARK                         _______ _______ _______ _____ _____    ______ ____
ROOT
ATOM      1  C   UNL     1       2.631   4.825  20.202  0.00  0.00    +0.000 A 
ATOM      2  C   UNL     1       3.360   4.227  19.161  0.00  0.00    +0.000 A 
ATOM      3  C   UNL     1       3.724   4.932  18.000  0.00  0.00    +0.000 A 
ATOM      4  C   UNL     1       3.327   6.272  17.843  0.00  0.00    +0.000 A 
ATOM      5  C   UNL     1       2.592   6.894  18.864  0.00  0.00    +0.000 A 
ATOM      6  C   UNL     1       2.048   8.188  19.063  0.00  0.00    +0.000 A 
ATOM      7  C   UNL     1       1.441   8.187  20.303  0.00  0.00    +0.000 A 
ATOM      8  O   UNL     1       1.567   6.949  20.870  0.00  0.00    +0.000 OA
ATOM      9  C   UNL     1       2.268   6.162  20.000  0.00  0.00    +0.000 A 
ENDROOT
BRANCH   7  10
ATOM     10  C   UNL     1       0.742   9.203  21.088  0.00  0.00    +0.000 A 
ATOM     11  C   UNL     1       0.009   8.858  22.247  0.00  0.00    +0.000 A 
ATOM     12  C   UNL     1      -0.647   9.829  23.015  0.00  0.00    +0.000 A 
ATOM     13  C   UNL     1      -0.562  11.139  22.598  0.00  0.00    +0.000 A 
ATOM     14  C   UNL     1       0.142  11.490  21.472  0.00  0.00    +0.000 A 
ATOM     15  C   UNL     1       0.801  10.553  20.701  0.00  0.00    +0.000 A 
ATOM     16  O   UNL     1       0.105  12.828  21.232  0.00  0.00    +0.000 OA
ATOM     17  C   UNL     1      -0.734  13.273  22.318  0.00  0.00    +0.000 C 
ATOM     18  O   UNL     1      -1.127  12.211  23.212  0.00  0.00    +0.000 OA
ENDBRANCH   7  10
BRANCH   1  20
ATOM     19  C   UNL     1       2.130   2.776  21.267  0.00  0.00    +0.000 C 
ATOM     20  O   UNL     1       2.234   4.191  21.349  0.00  0.00    +0.000 OA
ENDBRANCH   1  20
BRANCH   3  21
ATOM     21  C   UNL     1       4.527   4.247  16.919  0.00  0.00    +0.000 C 
BRANCH  21  22
ATOM     22  C   UNL     1       5.767   5.032  16.474  0.00  0.00    +0.000 C 
BRANCH  22  23
ATOM     23  C   UNL     1       7.018   4.635  17.241  0.00  0.00    +0.000 C 
ATOM     24 BR   UNL     1       7.511   6.065  18.469  0.00  0.00    +0.000 Br
ENDBRANCH  22  23
ENDBRANCH  21  22
ENDBRANCH   3  21
TORSDOF 5
ENDMDL
MODEL 3
REMARK VINA RESULT:      -7.8      1.275      1.888
REMARK  Name = 
REMARK  6 active torsions:
REMARK  status: ('A' for Active; 'I' for Inactive)
REMARK    1  A    between atoms: C_1  and  O_2
REMARK    2  A    between atoms: O_2  and  C_3
REMARK    3  A    between atoms: C_5  and  C_6
REMARK    4  A    between atoms: C_6  and  C_7
REMARK    5  A    between atoms: C_7  and  C_8
REMARK    6  A    between atoms: C_13  and  C_14
REMARK                            x       y       z     vdW  Elec       q    Type
REMARK                         _______ _______ _______ _____ _____    ______ ____
ROOT
ATOM      1  C   UNL     1       3.754   4.018  17.602  0.00  0.00    +0.000 A 
ATOM      2  C   UNL     1       4.746   3.619  16.691  0.00  0.00    +0.000 A 
ATOM      3  C   UNL     1       5.494   4.547  15.943  0.00  0.00    +0.000 A 
ATOM      4  C   UNL     1       5.233   5.922  16.073  0.00  0.00    +0.000 A 
ATOM      5  C   UNL     1       4.242   6.350  16.970  0.00  0.00    +0.000 A 
ATOM      6  C   UNL     1       3.726   7.610  17.369  0.00  0.00    +0.000 A 
ATOM      7  C   UNL     1       2.758   7.368  18.322  0.00  0.00    +0.000 A 
ATOM      8  O   UNL     1       2.637   6.020  18.517  0.00  0.00    +0.000 OA
ATOM      9  C   UNL     1       3.539   5.399  17.699  0.00  0.00    +0.000 A 
ENDROOT
BRANCH   7  10
ATOM     10  C   UNL     1       1.895   8.229  19.128  0.00  0.00    +0.000 A 
ATOM     11  C   UNL     1       1.642   7.947  20.490  0.00  0.00    +0.000 A 
ATOM     12  C   UNL     1       0.832   8.779  21.273  0.00  0.00    +0.000 A 
ATOM     13  C   UNL     1       0.279   9.886  20.669  0.00  0.00    +0.000 A 
ATOM     14  C   UNL     1       0.511  10.172  19.345  0.00  0.00    +0.000 A 
ATOM     15  C   UNL     1       1.308   9.371  18.554  0.00  0.00    +0.000 A 
ATOM     16  O   UNL     1      -0.125  11.305  18.940  0.00  0.00    +0.000 OA
ATOM     17  C   UNL     1      -0.811  11.678  20.153  0.00  0.00    +0.000 C 
ATOM     18  O   UNL     1      -0.526  10.804  21.265  0.00  0.00    +0.000 OA
ENDBRANCH   7  10
BRANCH   1  20
ATOM     19  C   UNL     1       3.250   1.782  18.176  0.00  0.00    +0.000 C 
ATOM     20  O   UNL     1       2.983   3.169  18.348  0.00  0.00    +0.000 OA
ENDBRANCH   1  20
BRANCH   3  21
ATOM     21  C   UNL     1       6.566   4.063  14.993  0.00  0.00    +0.000 C 
BRANCH  21  22
ATOM     22  C   UNL     1       6.392   4.564  13.555  0.00  0.00    +0.000 C 
BRANCH  22  23
ATOM     23  C   UNL     1       6.374   3.431  12.539  0.00  0.00    +0.000 C 
ATOM     24 BR   UNL     1       4.600   3.297  11.745  0.00  0.00    +0.000 Br
ENDBRANCH  22  23
ENDBRANCH  21  22
ENDBRANCH   3  21
TORSDOF 5
ENDMDL
MODEL 4
REMARK VINA RESULT:      -7.8      1.806      1.996
REMARK  Name = 
REMARK  6 active torsions:
REMARK  status: ('A' for Active; 'I' for Inactive)
REMARK    1  A    between atoms: C_1  and  O_2
REMARK    2  A    between atoms: O_2  and  C_3
REMARK    3  A    between atoms: C_5  and  C_6
REMARK    4  A    between atoms: C_6  and  C_7
REMARK    5  A    between atoms: C_7  and  C_8
REMARK    6  A    between atoms: C_13  and  C_14
REMARK                            x       y       z     vdW  Elec       q    Type
REMARK                         _______ _______ _______ _____ _____    ______ ____
ROOT
ATOM      1  C   UNL     1       2.741   5.106  20.108  0.00  0.00    +0.000 A 
ATOM      2  C   UNL     1       3.520   4.305  19.257  0.00  0.00    +0.000 A 
ATOM      3  C   UNL     1       3.958   4.755  17.998  0.00  0.00    +0.000 A 
ATOM      4  C   UNL     1       3.588   6.033  17.545  0.00  0.00    +0.000 A 
ATOM      5  C   UNL     1       2.804   6.853  18.371  0.00  0.00    +0.000 A 
ATOM      6  C   UNL     1       2.266   8.161  18.266  0.00  0.00    +0.000 A 
ATOM      7  C   UNL     1       1.590   8.417  19.442  0.00  0.00    +0.000 A 
ATOM      8  O   UNL     1       1.668   7.324  20.260  0.00  0.00    +0.000 OA
ATOM      9  C   UNL     1       2.407   6.373  19.613  0.00  0.00    +0.000 A 
ENDROOT
BRANCH   7  10
ATOM     10  C   UNL     1       0.860   9.574  19.958  0.00  0.00    +0.000 A 
ATOM     11  C   UNL     1       0.382  10.586  19.093  0.00  0.00    +0.000 A 
ATOM     12  C   UNL     1      -0.336  11.686  19.580  0.00  0.00    +0.000 A 
ATOM     13  C   UNL     1      -0.557  11.756  20.937  0.00  0.00    +0.000 A 
ATOM     14  C   UNL     1      -0.096  10.784  21.791  0.00  0.00    +0.000 A 
ATOM     15  C   UNL     1       0.610   9.688  21.337  0.00  0.00    +0.000 A 
ATOM     16  O   UNL     1      -0.417  11.037  23.088  0.00  0.00    +0.000 OA
ATOM     17  C   UNL     1      -1.103  12.300  22.955  0.00  0.00    +0.000 C 
ATOM     18  O   UNL     1      -1.231  12.741  21.587  0.00  0.00    +0.000 OA
ENDBRANCH   7  10
BRANCH   1  20
ATOM     19  C   UNL     1       2.184   3.322  21.554  0.00  0.00    +0.000 C 
ATOM     20  O   UNL     1       2.272   4.725  21.336  0.00  0.00    +0.000 OA
ENDBRANCH   1  20
BRANCH   3  21
ATOM     21  C   UNL     1       4.813   3.860  17.131  0.00  0.00    +0.000 C 
BRANCH  21  22
ATOM     22  C   UNL     1       5.339   4.542  15.863  0.00  0.00    +0.000 C 
BRANCH  22  23
ATOM     23  C   UNL     1       6.858   4.618  15.827  0.00  0.00    +0.000 C 
ATOM     24 BR   UNL     1       7.549   4.718  17.645  0.00  0.00    +0.000 Br
ENDBRANCH  22  23
ENDBRANCH  21  22
ENDBRANCH   3  21
TORSDOF 5
ENDMDL
MODEL 5
REMARK VINA RESULT:      -7.7      1.209      1.391
REMARK  Name = 
REMARK  6 active torsions:
REMARK  status: ('A' for Active; 'I' for Inactive)
REMARK    1  A    between atoms: C_1  and  O_2
REMARK    2  A    between atoms: O_2  and  C_3
REMARK    3  A    between atoms: C_5  and  C_6
REMARK    4  A    between atoms: C_6  and  C_7
REMARK    5  A    between atoms: C_7  and  C_8
REMARK    6  A    between atoms: C_13  and  C_14
REMARK                            x       y       z     vdW  Elec       q    Type
REMARK                         _______ _______ _______ _____ _____    ______ ____
ROOT
ATOM      1  C   UNL     1       3.002   5.321  19.860  0.00  0.00    +0.000 A 
ATOM      2  C   UNL     1       3.887   4.653  18.997  0.00  0.00    +0.000 A 
ATOM      3  C   UNL     1       4.328   5.222  17.788  0.00  0.00    +0.000 A 
ATOM      4  C   UNL     1       3.855   6.487  17.398  0.00  0.00    +0.000 A 
ATOM      5  C   UNL     1       2.965   7.175  18.237  0.00  0.00    +0.000 A 
ATOM      6  C   UNL     1       2.309   8.432  18.188  0.00  0.00    +0.000 A 
ATOM      7  C   UNL     1       1.566   8.547  19.346  0.00  0.00    +0.000 A 
ATOM      8  O   UNL     1       1.717   7.414  20.098  0.00  0.00    +0.000 OA
ATOM      9  C   UNL     1       2.568   6.580  19.428  0.00  0.00    +0.000 A 
ENDROOT
BRANCH   7  10
ATOM     10  C   UNL     1       0.710   9.594  19.899  0.00  0.00    +0.000 A 
ATOM     11  C   UNL     1      -0.061  10.431  19.058  0.00  0.00    +0.000 A 
ATOM     12  C   UNL     1      -0.899  11.423  19.583  0.00  0.00    +0.000 A 
ATOM     13  C   UNL     1      -0.945  11.564  20.952  0.00  0.00    +0.000 A 
ATOM     14  C   UNL     1      -0.199  10.763  21.782  0.00  0.00    +0.000 A 
ATOM     15  C   UNL     1       0.631   9.775  21.291  0.00  0.00    +0.000 A 
ATOM     16  O   UNL     1      -0.383  11.061  23.096  0.00  0.00    +0.000 OA
ATOM     17  C   UNL     1      -1.305  12.167  22.994  0.00  0.00    +0.000 C 
ATOM     18  O   UNL     1      -1.697  12.465  21.638  0.00  0.00    +0.000 OA
ENDBRANCH   7  10
BRANCH   1  20
ATOM     19  C   UNL     1       2.133   3.451  21.015  0.00  0.00    +0.000 C 
ATOM     20  O   UNL     1       2.525   4.818  21.040  0.00  0.00    +0.000 OA
ENDBRANCH   1  20
BRANCH   3  21
ATOM     21  C   UNL     1       5.298   4.468  16.908  0.00  0.00    +0.000 C 
BRANCH  21  22
ATOM     22  C   UNL     1       5.577   5.152  15.564  0.00  0.00    +0.000 C 
BRANCH  22  23
ATOM     23  C   UNL     1       6.760   4.539  14.830  0.00  0.00    +0.000 C 
ATOM     24 BR   UNL     1       6.150   3.748  13.158  0.00  0.00    +0.000 Br
ENDBRANCH  22  23
ENDBRANCH  21  22
ENDBRANCH   3  21
TORSDOF 5
ENDMDL
MODEL 6
REMARK VINA RESULT:      -7.7      1.140      1.702
REMARK  Name = 
REMARK  6 active torsions:
REMARK  status: ('A' for Active; 'I' for Inactive)
REMARK    1  A    between atoms: C_1  and  O_2
REMARK    2  A    between atoms: O_2  and  C_3
REMARK    3  A    between atoms: C_5  and  C_6
REMARK    4  A    between atoms: C_6  and  C_7
REMARK    5  A    between atoms: C_7  and  C_8
REMARK    6  A    between atoms: C_13  and  C_14
REMARK                            x       y       z     vdW  Elec       q    Type
REMARK                         _______ _______ _______ _____ _____    ______ ____
ROOT
ATOM      1  C   UNL     1       2.995   4.380  19.477  0.00  0.00    +0.000 A 
ATOM      2  C   UNL     1       3.793   3.872  18.439  0.00  0.00    +0.000 A 
ATOM      3  C   UNL     1       4.251   4.680  17.382  0.00  0.00    +0.000 A 
ATOM      4  C   UNL     1       3.884   6.036  17.329  0.00  0.00    +0.000 A 
ATOM      5  C   UNL     1       3.081   6.569  18.349  0.00  0.00    +0.000 A 
ATOM      6  C   UNL     1       2.539   7.849  18.634  0.00  0.00    +0.000 A 
ATOM      7  C   UNL     1       1.841   7.739  19.820  0.00  0.00    +0.000 A 
ATOM      8  O   UNL     1       1.909   6.449  20.270  0.00  0.00    +0.000 OA
ATOM      9  C   UNL     1       2.664   5.737  19.381  0.00  0.00    +0.000 A 
ENDROOT
BRANCH   7  10
ATOM     10  C   UNL     1       1.096   8.686  20.647  0.00  0.00    +0.000 A 
ATOM     11  C   UNL     1       1.122   8.606  22.059  0.00  0.00    +0.000 A 
ATOM     12  C   UNL     1       0.427   9.524  22.857  0.00  0.00    +0.000 A 
ATOM     13  C   UNL     1      -0.294  10.509  22.220  0.00  0.00    +0.000 A 
ATOM     14  C   UNL     1      -0.334  10.597  20.849  0.00  0.00    +0.000 A 
ATOM     15  C   UNL     1       0.346   9.709  20.040  0.00  0.00    +0.000 A 
ATOM     16  O   UNL     1      -1.099  11.635  20.417  0.00  0.00    +0.000 OA
ATOM     17  C   UNL     1      -1.565  12.168  21.675  0.00  0.00    +0.000 C 
ATOM     18  O   UNL     1      -1.025  11.482  22.824  0.00  0.00    +0.000 OA
ENDBRANCH   7  10
BRANCH   1  20
ATOM     19  C   UNL     1       1.276   2.973  20.283  0.00  0.00    +0.000 C 
ATOM     20  O   UNL     1       2.505   3.646  20.524  0.00  0.00    +0.000 OA
ENDBRANCH   1  20
BRANCH   3  21
ATOM     21  C   UNL     1       5.126   4.087  16.302  0.00  0.00    +0.000 C 
BRANCH  21  22
ATOM     22  C   UNL     1       5.476   5.068  15.177  0.00  0.00    +0.000 C 
BRANCH  22  23
ATOM     23  C   UNL     1       6.647   4.595  14.331  0.00  0.00    +0.000 C 
ATOM     24 BR   UNL     1       5.981   3.600  12.794  0.00  0.00    +0.000 Br
ENDBRANCH  22  23
ENDBRANCH  21  22
ENDBRANCH   3  21
TORSDOF 5
ENDMDL
MODEL 7
REMARK VINA RESULT:      -7.6      2.084      2.385
REMARK  Name = 
REMARK  6 active torsions:
REMARK  status: ('A' for Active; 'I' for Inactive)
REMARK    1  A    between atoms: C_1  and  O_2
REMARK    2  A    between atoms: O_2  and  C_3
REMARK    3  A    between atoms: C_5  and  C_6
REMARK    4  A    between atoms: C_6  and  C_7
REMARK    5  A    between atoms: C_7  and  C_8
REMARK    6  A    between atoms: C_13  and  C_14
REMARK                            x       y       z     vdW  Elec       q    Type
REMARK                         _______ _______ _______ _____ _____    ______ ____
ROOT
ATOM      1  C   UNL     1       3.074   5.355  19.706  0.00  0.00    +0.000 A 
ATOM      2  C   UNL     1       4.012   4.754  18.850  0.00  0.00    +0.000 A 
ATOM      3  C   UNL     1       4.497   5.400  17.698  0.00  0.00    +0.000 A 
ATOM      4  C   UNL     1       4.016   6.676  17.358  0.00  0.00    +0.000 A 
ATOM      5  C   UNL     1       3.073   7.298  18.190  0.00  0.00    +0.000 A 
ATOM      6  C   UNL     1       2.393   8.542  18.181  0.00  0.00    +0.000 A 
ATOM      7  C   UNL     1       1.595   8.577  19.307  0.00  0.00    +0.000 A 
ATOM      8  O   UNL     1       1.735   7.406  20.000  0.00  0.00    +0.000 OA
ATOM      9  C   UNL     1       2.634   6.628  19.326  0.00  0.00    +0.000 A 
ENDROOT
BRANCH   7  10
ATOM     10  C   UNL     1       0.691   9.575  19.876  0.00  0.00    +0.000 A 
ATOM     11  C   UNL     1      -0.162  10.347  19.053  0.00  0.00    +0.000 A 
ATOM     12  C   UNL     1      -1.044  11.290  19.595  0.00  0.00    +0.000 A 
ATOM     13  C   UNL     1      -1.051  11.449  20.962  0.00  0.00    +0.000 A 
ATOM     14  C   UNL     1      -0.226  10.711  21.775  0.00  0.00    +0.000 A 
ATOM     15  C   UNL     1       0.650   9.772  21.268  0.00  0.00    +0.000 A 
ATOM     16  O   UNL     1      -0.383  11.017  23.091  0.00  0.00    +0.000 OA
ATOM     17  C   UNL     1      -1.379  12.059  23.008  0.00  0.00    +0.000 C 
ATOM     18  O   UNL     1      -1.836  12.309  21.663  0.00  0.00    +0.000 OA
ENDBRANCH   7  10
BRANCH   1  20
ATOM     19  C   UNL     1       1.407   3.959  20.631  0.00  0.00    +0.000 C 
ATOM     20  O   UNL     1       2.553   4.776  20.832  0.00  0.00    +0.000 OA
ENDBRANCH   1  20
BRANCH   3  21
ATOM     21  C   UNL     1       5.523   4.716  16.823  0.00  0.00    +0.000 C 
BRANCH  21  22
ATOM     22  C   UNL     1       6.929   4.672  17.433  0.00  0.00    +0.000 C 
BRANCH  22  23
ATOM     23  C   UNL     1       7.155   5.766  18.464  0.00  0.00    +0.000 C 
ATOM     24 BR   UNL     1       7.637   7.424  17.561  0.00  0.00    +0.000 Br
ENDBRANCH  22  23
ENDBRANCH  21  22
ENDBRANCH   3  21
TORSDOF 5
ENDMDL
MODEL 8
REMARK VINA RESULT:      -7.5      1.482      2.283
REMARK  Name = 
REMARK  6 active torsions:
REMARK  status: ('A' for Active; 'I' for Inactive)
REMARK    1  A    between atoms: C_1  and  O_2
REMARK    2  A    between atoms: O_2  and  C_3
REMARK    3  A    between atoms: C_5  and  C_6
REMARK    4  A    between atoms: C_6  and  C_7
REMARK    5  A    between atoms: C_7  and  C_8
REMARK    6  A    between atoms: C_13  and  C_14
REMARK                            x       y       z     vdW  Elec       q    Type
REMARK                         _______ _______ _______ _____ _____    ______ ____
ROOT
ATOM      1  C   UNL     1       2.540   4.841  20.292  0.00  0.00    +0.000 A 
ATOM      2  C   UNL     1       3.292   4.231  19.274  0.00  0.00    +0.000 A 
ATOM      3  C   UNL     1       3.686   4.924  18.115  0.00  0.00    +0.000 A 
ATOM      4  C   UNL     1       3.298   6.263  17.936  0.00  0.00    +0.000 A 
ATOM      5  C   UNL     1       2.540   6.897  18.933  0.00  0.00    +0.000 A 
ATOM      6  C   UNL     1       1.996   8.195  19.106  0.00  0.00    +0.000 A 
ATOM      7  C   UNL     1       1.359   8.208  20.331  0.00  0.00    +0.000 A 
ATOM      8  O   UNL     1       1.467   6.975  20.913  0.00  0.00    +0.000 OA
ATOM      9  C   UNL     1       2.186   6.177  20.068  0.00  0.00    +0.000 A 
ENDROOT
BRANCH   7  10
ATOM     10  C   UNL     1       0.644   9.233  21.089  0.00  0.00    +0.000 A 
ATOM     11  C   UNL     1       0.294   9.033  22.444  0.00  0.00    +0.000 A 
ATOM     12  C   UNL     1      -0.374  10.020  23.181  0.00  0.00    +0.000 A 
ATOM     13  C   UNL     1      -0.687  11.196  22.539  0.00  0.00    +0.000 A 
ATOM     14  C   UNL     1      -0.358  11.405  21.221  0.00  0.00    +0.000 A 
ATOM     15  C   UNL     1       0.304  10.451  20.474  0.00  0.00    +0.000 A 
ATOM     16  O   UNL     1      -0.754  12.626  20.774  0.00  0.00    +0.000 OA
ATOM     17  C   UNL     1      -1.402  13.149  21.953  0.00  0.00    +0.000 C 
ATOM     18  O   UNL     1      -1.327  12.262  23.089  0.00  0.00    +0.000 OA
ENDBRANCH   7  10
BRANCH   1  20
ATOM     19  C   UNL     1       1.761   2.850  21.297  0.00  0.00    +0.000 C 
ATOM     20  O   UNL     1       2.113   4.220  21.435  0.00  0.00    +0.000 OA
ENDBRANCH   1  20
BRANCH   3  21
ATOM     21  C   UNL     1       4.513   4.225  17.061  0.00  0.00    +0.000 C 
BRANCH  21  22
ATOM     22  C   UNL     1       5.723   5.036  16.582  0.00  0.00    +0.000 C 
BRANCH  22  23
ATOM     23  C   UNL     1       5.605   5.458  15.126  0.00  0.00    +0.000 C 
ATOM     24 BR   UNL     1       6.206   4.005  13.976  0.00  0.00    +0.000 Br
ENDBRANCH  22  23
ENDBRANCH  21  22
ENDBRANCH   3  21
TORSDOF 5
ENDMDL
MODEL 9
REMARK VINA RESULT:      -7.5      4.185      9.082
REMARK  Name = 
REMARK  6 active torsions:
REMARK  status: ('A' for Active; 'I' for Inactive)
REMARK    1  A    between atoms: C_1  and  O_2
REMARK    2  A    between atoms: O_2  and  C_3
REMARK    3  A    between atoms: C_5  and  C_6
REMARK    4  A    between atoms: C_6  and  C_7
REMARK    5  A    between atoms: C_7  and  C_8
REMARK    6  A    between atoms: C_13  and  C_14
REMARK                            x       y       z     vdW  Elec       q    Type
REMARK                         _______ _______ _______ _____ _____    ______ ____
ROOT
ATOM      1  C   UNL     1       0.645  10.580  19.706  0.00  0.00    +0.000 A 
ATOM      2  C   UNL     1      -0.084  11.028  20.820  0.00  0.00    +0.000 A 
ATOM      3  C   UNL     1      -0.278  10.227  21.960  0.00  0.00    +0.000 A 
ATOM      4  C   UNL     1       0.240   8.920  21.993  0.00  0.00    +0.000 A 
ATOM      5  C   UNL     1       0.967   8.443  20.891  0.00  0.00    +0.000 A 
ATOM      6  C   UNL     1       1.630   7.230  20.576  0.00  0.00    +0.000 A 
ATOM      7  C   UNL     1       2.189   7.387  19.324  0.00  0.00    +0.000 A 
ATOM      8  O   UNL     1       1.886   8.630  18.842  0.00  0.00    +0.000 OA
ATOM      9  C   UNL     1       1.146   9.275  19.793  0.00  0.00    +0.000 A 
ENDROOT
BRANCH   7  10
ATOM     10  C   UNL     1       3.009   6.531  18.468  0.00  0.00    +0.000 A 
ATOM     11  C   UNL     1       2.924   5.121  18.542  0.00  0.00    +0.000 A 
ATOM     12  C   UNL     1       3.692   4.296  17.710  0.00  0.00    +0.000 A 
ATOM     13  C   UNL     1       4.544   4.905  16.816  0.00  0.00    +0.000 A 
ATOM     14  C   UNL     1       4.643   6.273  16.735  0.00  0.00    +0.000 A 
ATOM     15  C   UNL     1       3.894   7.108  17.539  0.00  0.00    +0.000 A 
ATOM     16  O   UNL     1       5.538   6.675  15.793  0.00  0.00    +0.000 OA
ATOM     17  C   UNL     1       6.018   5.400  15.316  0.00  0.00    +0.000 C 
ATOM     18  O   UNL     1       5.361   4.273  15.934  0.00  0.00    +0.000 OA
ENDBRANCH   7  10
BRANCH   1  20
ATOM     19  C   UNL     1       1.922  12.244  18.619  0.00  0.00    +0.000 C 
ATOM     20  O   UNL     1       0.858  11.303  18.564  0.00  0.00    +0.000 OA
ENDBRANCH   1  20
BRANCH   3  21
ATOM     21  C   UNL     1      -1.053  10.766  23.140  0.00  0.00    +0.000 C 
BRANCH  21  22
ATOM     22  C   UNL     1      -1.482  12.230  22.986  0.00  0.00    +0.000 C 
BRANCH  22  23
ATOM     23  C   UNL     1      -2.957  12.375  22.645  0.00  0.00    +0.000 C 
ATOM     24 BR   UNL     1      -3.977  12.676  24.277  0.00  0.00    +0.000 Br
ENDBRANCH  22  23
ENDBRANCH  21  22
ENDBRANCH   3  21
TORSDOF 5
ENDMDL
