MODEL 1
REMARK VINA RESULT:      -9.8      0.000      0.000
REMARK  Name = 
REMARK  9 active torsions:
REMARK  status: ('A' for Active; 'I' for Inactive)
REMARK    1  A    between atoms: C_1  and  C_2
REMARK    2  A    between atoms: C_5  and  C_6
REMARK    3  A    between atoms: N_8  and  C_9
REMARK    4  A    between atoms: C_13  and  C_14
REMARK    5  A    between atoms: C_16  and  C_17
REMARK    6  A    between atoms: C_17  and  N_18
REMARK    7  A    between atoms: C_19  and  C_21
REMARK    8  A    between atoms: C_26  and  N_27
REMARK    9  A    between atoms: C_32  and  C_33
REMARK                            x       y       z     vdW  Elec       q    Type
REMARK                         _______ _______ _______ _____ _____    ______ ____
ROOT
ATOM      1  C   UNL     1       2.591   6.423  19.510  0.00  0.00    +0.000 A 
ATOM      2  N   UNL     1       3.610   5.707  19.070  0.00  0.00    +0.000 NA
ATOM      3  C   UNL     1       3.442   4.472  19.674  0.00  0.00    +0.000 A 
ATOM      4  C   UNL     1       2.271   4.486  20.409  0.00  0.00    +0.000 A 
ATOM      5  C   UNL     1       1.500   3.522  21.213  0.00  0.00    +0.000 C 
ATOM      6  O   UNL     1       1.742   5.741  20.331  0.00  0.00    +0.000 OA
ENDROOT
BRANCH   1  11
ATOM      7  C   UNL     1       0.907   9.808  19.664  0.00  0.00    +0.000 A 
ATOM      8  C   UNL     1       1.324  10.339  18.448  0.00  0.00    +0.000 A 
ATOM      9  C   UNL     1       2.174   9.620  17.603  0.00  0.00    +0.000 A 
ATOM     10  C   UNL     1       2.609   8.351  17.973  0.00  0.00    +0.000 A 
ATOM     11  C   UNL     1       2.195   7.787  19.184  0.00  0.00    +0.000 A 
ATOM     12  C   UNL     1       1.363   8.535  20.039  0.00  0.00    +0.000 A 
BRANCH   7  15
ATOM     13  C   UNL     1       0.370  11.582  21.348  0.00  0.00    +0.000 C 
ATOM     14  O   UNL     1       1.459  12.146  21.330  0.00  0.00    +0.000 OA
ATOM     15  N   UNL     1       0.045  10.484  20.548  0.00  0.00    +0.000 N 
ATOM     16  H   UNL     1      -0.926  10.206  20.563  0.00  0.00    +0.000 HD
BRANCH  13  21
ATOM     17  C   UNL     1      -3.073  14.521  24.133  0.00  0.00    +0.000 C 
ATOM     18  C   UNL     1      -2.331  13.391  23.506  0.00  0.00    +0.000 A 
ATOM     19  C   UNL     1      -2.555  12.038  23.635  0.00  0.00    +0.000 A 
ATOM     20  C   UNL     1      -1.618  11.270  22.884  0.00  0.00    +0.000 A 
ATOM     21  C   UNL     1      -0.709  12.060  22.200  0.00  0.00    +0.000 A 
ATOM     22  S   UNL     1      -1.011  13.718  22.473  0.00  0.00    +0.000 S 
ENDBRANCH  13  21
ENDBRANCH   7  15
ENDBRANCH   1  11
BRANCH   3  23
ATOM     23  C   UNL     1       4.449   3.396  19.485  0.00  0.00    +0.000 C 
BRANCH  23  24
ATOM     24  N   UNL     1       5.224   3.653  18.291  0.00  0.00    +0.000 N 
ATOM     25  C   UNL     1       4.648   3.666  17.036  0.00  0.00    +0.000 C 
ATOM     26  O   UNL     1       3.462   3.427  16.854  0.00  0.00    +0.000 OA
ATOM     27  H   UNL     1       6.189   3.919  18.425  0.00  0.00    +0.000 HD
BRANCH  25  28
ATOM     28  C   UNL     1       5.562   3.964  15.891  0.00  0.00    +0.000 A 
ATOM     29  C   UNL     1       5.164   3.503  14.618  0.00  0.00    +0.000 A 
ATOM     30  C   UNL     1       5.883   3.826  13.468  0.00  0.00    +0.000 A 
ATOM     31  C   UNL     1       6.995   4.656  13.558  0.00  0.00    +0.000 A 
ATOM     32  C   UNL     1       7.382   5.159  14.800  0.00  0.00    +0.000 A 
ATOM     33  C   UNL     1       6.690   4.805  15.979  0.00  0.00    +0.000 A 
BRANCH  33  34
ATOM     34  N   UNL     1       7.206   5.320  17.201  0.00  0.00    +0.000 N 
ATOM     35  C   UNL     1       7.066   6.580  17.743  0.00  0.00    +0.000 A 
ATOM     36  C   UNL     1       7.809   6.613  18.898  0.00  0.00    +0.000 A 
ATOM     37  C   UNL     1       8.285   5.305  19.043  0.00  0.00    +0.000 A 
ATOM     38  N   UNL     1       7.855   4.495  18.074  0.00  0.00    +0.000 NA
ENDBRANCH  33  34
ENDBRANCH  25  28
ENDBRANCH  23  24
ENDBRANCH   3  23
TORSDOF 7
ENDMDL
MODEL 2
REMARK VINA RESULT:      -9.2      2.871      4.723
REMARK  Name = 
REMARK  9 active torsions:
REMARK  status: ('A' for Active; 'I' for Inactive)
REMARK    1  A    between atoms: C_1  and  C_2
REMARK    2  A    between atoms: C_5  and  C_6
REMARK    3  A    between atoms: N_8  and  C_9
REMARK    4  A    between atoms: C_13  and  C_14
REMARK    5  A    between atoms: C_16  and  C_17
REMARK    6  A    between atoms: C_17  and  N_18
REMARK    7  A    between atoms: C_19  and  C_21
REMARK    8  A    between atoms: C_26  and  N_27
REMARK    9  A    between atoms: C_32  and  C_33
REMARK                            x       y       z     vdW  Elec       q    Type
REMARK                         _______ _______ _______ _____ _____    ______ ____
ROOT
ATOM      1  C   UNL     1      -0.507  10.007  18.791  0.00  0.00    +0.000 A 
ATOM      2  N   UNL     1       0.361   9.597  17.885  0.00  0.00    +0.000 NA
ATOM      3  C   UNL     1       1.362   8.989  18.626  0.00  0.00    +0.000 A 
ATOM      4  C   UNL     1       1.006   9.005  19.962  0.00  0.00    +0.000 A 
ATOM      5  C   UNL     1       1.564   8.492  21.224  0.00  0.00    +0.000 C 
ATOM      6  O   UNL     1      -0.173   9.682  20.074  0.00  0.00    +0.000 OA
ENDROOT
BRANCH   1  11
ATOM      7  C   UNL     1      -3.435  12.351  19.295  0.00  0.00    +0.000 A 
ATOM      8  C   UNL     1      -4.336  11.807  18.386  0.00  0.00    +0.000 A 
ATOM      9  C   UNL     1      -3.984  10.714  17.590  0.00  0.00    +0.000 A 
ATOM     10  C   UNL     1      -2.717  10.150  17.707  0.00  0.00    +0.000 A 
ATOM     11  C   UNL     1      -1.795  10.668  18.622  0.00  0.00    +0.000 A 
ATOM     12  C   UNL     1      -2.153  11.788  19.396  0.00  0.00    +0.000 A 
BRANCH   7  15
ATOM     13  C   UNL     1      -3.833  13.427  21.520  0.00  0.00    +0.000 C 
ATOM     14  O   UNL     1      -3.593  12.443  22.212  0.00  0.00    +0.000 OA
ATOM     15  N   UNL     1      -3.740  13.444  20.127  0.00  0.00    +0.000 N 
ATOM     16  H   UNL     1      -3.830  14.354  19.696  0.00  0.00    +0.000 HD
BRANCH  13  21
ATOM     17  C   UNL     1      -5.316  17.316  24.826  0.00  0.00    +0.000 C 
ATOM     18  C   UNL     1      -4.887  16.534  23.632  0.00  0.00    +0.000 A 
ATOM     19  C   UNL     1      -4.670  16.979  22.346  0.00  0.00    +0.000 A 
ATOM     20  C   UNL     1      -4.278  15.918  21.476  0.00  0.00    +0.000 A 
ATOM     21  C   UNL     1      -4.203  14.698  22.126  0.00  0.00    +0.000 A 
ATOM     22  S   UNL     1      -4.600  14.858  23.779  0.00  0.00    +0.000 S 
ENDBRANCH  13  21
ENDBRANCH   7  15
ENDBRANCH   1  11
BRANCH   3  23
ATOM     23  C   UNL     1       2.580   8.459  17.958  0.00  0.00    +0.000 C 
BRANCH  23  24
ATOM     24  N   UNL     1       2.487   7.020  17.841  0.00  0.00    +0.000 N 
ATOM     25  C   UNL     1       3.154   6.172  18.703  0.00  0.00    +0.000 C 
ATOM     26  O   UNL     1       3.888   6.582  19.592  0.00  0.00    +0.000 OA
ATOM     27  H   UNL     1       1.835   6.661  17.158  0.00  0.00    +0.000 HD
BRANCH  25  28
ATOM     28  C   UNL     1       2.955   4.708  18.480  0.00  0.00    +0.000 A 
ATOM     29  C   UNL     1       1.674   4.185  18.761  0.00  0.00    +0.000 A 
ATOM     30  C   UNL     1       1.350   2.859  18.479  0.00  0.00    +0.000 A 
ATOM     31  C   UNL     1       2.287   2.034  17.865  0.00  0.00    +0.000 A 
ATOM     32  C   UNL     1       3.544   2.540  17.539  0.00  0.00    +0.000 A 
ATOM     33  C   UNL     1       3.902   3.868  17.859  0.00  0.00    +0.000 A 
BRANCH  33  34
ATOM     34  N   UNL     1       5.231   4.265  17.542  0.00  0.00    +0.000 N 
ATOM     35  C   UNL     1       5.741   4.723  16.345  0.00  0.00    +0.000 A 
ATOM     36  C   UNL     1       7.092   4.904  16.519  0.00  0.00    +0.000 A 
ATOM     37  C   UNL     1       7.308   4.633  17.875  0.00  0.00    +0.000 A 
ATOM     38  N   UNL     1       6.180   4.334  18.522  0.00  0.00    +0.000 NA
ENDBRANCH  33  34
ENDBRANCH  25  28
ENDBRANCH  23  24
ENDBRANCH   3  23
TORSDOF 7
ENDMDL
MODEL 3
REMARK VINA RESULT:      -9.0      3.501     11.070
REMARK  Name = 
REMARK  9 active torsions:
REMARK  status: ('A' for Active; 'I' for Inactive)
REMARK    1  A    between atoms: C_1  and  C_2
REMARK    2  A    between atoms: C_5  and  C_6
REMARK    3  A    between atoms: N_8  and  C_9
REMARK    4  A    between atoms: C_13  and  C_14
REMARK    5  A    between atoms: C_16  and  C_17
REMARK    6  A    between atoms: C_17  and  N_18
REMARK    7  A    between atoms: C_19  and  C_21
REMARK    8  A    between atoms: C_26  and  N_27
REMARK    9  A    between atoms: C_32  and  C_33
REMARK                            x       y       z     vdW  Elec       q    Type
REMARK                         _______ _______ _______ _____ _____    ______ ____
ROOT
ATOM      1  C   UNL     1       1.492   7.845  20.317  0.00  0.00    +0.000 A 
ATOM      2  N   UNL     1       1.398   8.909  19.542  0.00  0.00    +0.000 NA
ATOM      3  C   UNL     1       0.800   9.864  20.348  0.00  0.00    +0.000 A 
ATOM      4  C   UNL     1       0.620   9.336  21.613  0.00  0.00    +0.000 A 
ATOM      5  C   UNL     1       0.118   9.815  22.912  0.00  0.00    +0.000 C 
ATOM      6  O   UNL     1       1.033   8.035  21.587  0.00  0.00    +0.000 OA
ENDROOT
BRANCH   1  11
ATOM      7  C   UNL     1       3.353   5.028  18.608  0.00  0.00    +0.000 A 
ATOM      8  C   UNL     1       3.064   3.985  19.481  0.00  0.00    +0.000 A 
ATOM      9  C   UNL     1       2.304   4.202  20.634  0.00  0.00    +0.000 A 
ATOM     10  C   UNL     1       1.820   5.476  20.916  0.00  0.00    +0.000 A 
ATOM     11  C   UNL     1       2.083   6.541  20.048  0.00  0.00    +0.000 A 
ATOM     12  C   UNL     1       2.876   6.313  18.907  0.00  0.00    +0.000 A 
BRANCH   7  15
ATOM     13  C   UNL     1       5.489   4.705  17.342  0.00  0.00    +0.000 C 
ATOM     14  O   UNL     1       6.233   4.624  18.315  0.00  0.00    +0.000 OA
ATOM     15  N   UNL     1       4.105   4.864  17.429  0.00  0.00    +0.000 N 
ATOM     16  H   UNL     1       3.601   4.777  16.558  0.00  0.00    +0.000 HD
BRANCH  13  21
ATOM     17  C   UNL     1       6.361   3.468  12.247  0.00  0.00    +0.000 C 
ATOM     18  C   UNL     1       6.447   4.048  13.617  0.00  0.00    +0.000 A 
ATOM     19  C   UNL     1       7.382   4.925  14.123  0.00  0.00    +0.000 A 
ATOM     20  C   UNL     1       7.131   5.238  15.492  0.00  0.00    +0.000 A 
ATOM     21  C   UNL     1       6.010   4.595  15.988  0.00  0.00    +0.000 A 
ATOM     22  S   UNL     1       5.275   3.629  14.786  0.00  0.00    +0.000 S 
ENDBRANCH  13  21
ENDBRANCH   7  15
ENDBRANCH   1  11
BRANCH   3  23
ATOM     23  C   UNL     1       0.449  11.201  19.803  0.00  0.00    +0.000 C 
BRANCH  23  24
ATOM     24  N   UNL     1      -0.955  11.469  20.029  0.00  0.00    +0.000 N 
ATOM     25  C   UNL     1      -1.762  12.008  19.047  0.00  0.00    +0.000 C 
ATOM     26  O   UNL     1      -1.337  12.323  17.944  0.00  0.00    +0.000 OA
ATOM     27  H   UNL     1      -1.340  11.155  20.908  0.00  0.00    +0.000 HD
BRANCH  25  28
ATOM     28  C   UNL     1      -3.198  12.216  19.410  0.00  0.00    +0.000 A 
ATOM     29  C   UNL     1      -4.164  11.701  18.520  0.00  0.00    +0.000 A 
ATOM     30  C   UNL     1      -5.525  11.739  18.821  0.00  0.00    +0.000 A 
ATOM     31  C   UNL     1      -5.950  12.254  20.041  0.00  0.00    +0.000 A 
ATOM     32  C   UNL     1      -5.010  12.730  20.954  0.00  0.00    +0.000 A 
ATOM     33  C   UNL     1      -3.632  12.739  20.646  0.00  0.00    +0.000 A 
BRANCH  33  34
ATOM     34  N   UNL     1      -2.763  13.306  21.619  0.00  0.00    +0.000 N 
ATOM     35  C   UNL     1      -2.340  14.612  21.755  0.00  0.00    +0.000 A 
ATOM     36  C   UNL     1      -1.450  14.647  22.801  0.00  0.00    +0.000 A 
ATOM     37  C   UNL     1      -1.465  13.344  23.314  0.00  0.00    +0.000 A 
ATOM     38  N   UNL     1      -2.319  12.550  22.666  0.00  0.00    +0.000 NA
ENDBRANCH  33  34
ENDBRANCH  25  28
ENDBRANCH  23  24
ENDBRANCH   3  23
TORSDOF 7
ENDMDL
MODEL 4
REMARK VINA RESULT:      -9.0      3.682     11.146
REMARK  Name = 
REMARK  9 active torsions:
REMARK  status: ('A' for Active; 'I' for Inactive)
REMARK    1  A    between atoms: C_1  and  C_2
REMARK    2  A    between atoms: C_5  and  C_6
REMARK    3  A    between atoms: N_8  and  C_9
REMARK    4  A    between atoms: C_13  and  C_14
REMARK    5  A    between atoms: C_16  and  C_17
REMARK    6  A    between atoms: C_17  and  N_18
REMARK    7  A    between atoms: C_19  and  C_21
REMARK    8  A    between atoms: C_26  and  N_27
REMARK    9  A    between atoms: C_32  and  C_33
REMARK                            x       y       z     vdW  Elec       q    Type
REMARK                         _______ _______ _______ _____ _____    ______ ____
ROOT
ATOM      1  C   UNL     1       1.573   7.683  20.344  0.00  0.00    +0.000 A 
ATOM      2  N   UNL     1       1.496   8.753  19.575  0.00  0.00    +0.000 NA
ATOM      3  C   UNL     1       0.872   9.699  20.372  0.00  0.00    +0.000 A 
ATOM      4  C   UNL     1       0.660   9.160  21.627  0.00  0.00    +0.000 A 
ATOM      5  C   UNL     1       0.120   9.627  22.916  0.00  0.00    +0.000 C 
ATOM      6  O   UNL     1       1.078   7.861  21.603  0.00  0.00    +0.000 OA
ENDROOT
BRANCH   1  11
ATOM      7  C   UNL     1       3.437   4.867  18.636  0.00  0.00    +0.000 A 
ATOM      8  C   UNL     1       3.182   3.833  19.531  0.00  0.00    +0.000 A 
ATOM      9  C   UNL     1       2.444   4.056  20.697  0.00  0.00    +0.000 A 
ATOM     10  C   UNL     1       1.947   5.328  20.970  0.00  0.00    +0.000 A 
ATOM     11  C   UNL     1       2.177   6.383  20.082  0.00  0.00    +0.000 A 
ATOM     12  C   UNL     1       2.948   6.150  18.927  0.00  0.00    +0.000 A 
BRANCH   7  15
ATOM     13  C   UNL     1       5.515   4.995  17.245  0.00  0.00    +0.000 C 
ATOM     14  O   UNL     1       6.267   5.397  18.128  0.00  0.00    +0.000 OA
ATOM     15  N   UNL     1       4.166   4.696  17.444  0.00  0.00    +0.000 N 
ATOM     16  H   UNL     1       3.701   4.245  16.669  0.00  0.00    +0.000 HD
BRANCH  13  21
ATOM     17  C   UNL     1       6.237   3.316  12.255  0.00  0.00    +0.000 C 
ATOM     18  C   UNL     1       6.373   4.002  13.571  0.00  0.00    +0.000 A 
ATOM     19  C   UNL     1       7.350   4.880  13.987  0.00  0.00    +0.000 A 
ATOM     20  C   UNL     1       7.138   5.312  15.329  0.00  0.00    +0.000 A 
ATOM     21  C   UNL     1       6.004   4.755  15.896  0.00  0.00    +0.000 A 
ATOM     22  S   UNL     1       5.210   3.724  14.790  0.00  0.00    +0.000 S 
ENDBRANCH  13  21
ENDBRANCH   7  15
ENDBRANCH   1  11
BRANCH   3  23
ATOM     23  C   UNL     1       0.531  11.039  19.828  0.00  0.00    +0.000 C 
BRANCH  23  24
ATOM     24  N   UNL     1      -0.856  11.062  19.416  0.00  0.00    +0.000 N 
ATOM     25  C   UNL     1      -1.630  12.200  19.518  0.00  0.00    +0.000 C 
ATOM     26  O   UNL     1      -1.204  13.245  19.992  0.00  0.00    +0.000 OA
ATOM     27  H   UNL     1      -1.207  10.231  18.961  0.00  0.00    +0.000 HD
BRANCH  25  28
ATOM     28  C   UNL     1      -3.041  12.088  19.039  0.00  0.00    +0.000 A 
ATOM     29  C   UNL     1      -3.247  11.453  17.795  0.00  0.00    +0.000 A 
ATOM     30  C   UNL     1      -4.529  11.195  17.313  0.00  0.00    +0.000 A 
ATOM     31  C   UNL     1      -5.638  11.525  18.084  0.00  0.00    +0.000 A 
ATOM     32  C   UNL     1      -5.458  12.114  19.335  0.00  0.00    +0.000 A 
ATOM     33  C   UNL     1      -4.168  12.423  19.818  0.00  0.00    +0.000 A 
BRANCH  33  34
ATOM     34  N   UNL     1      -4.099  13.082  21.077  0.00  0.00    +0.000 N 
ATOM     35  C   UNL     1      -4.204  14.426  21.363  0.00  0.00    +0.000 A 
ATOM     36  C   UNL     1      -3.994  14.574  22.713  0.00  0.00    +0.000 A 
ATOM     37  C   UNL     1      -3.872  13.265  23.192  0.00  0.00    +0.000 A 
ATOM     38  N   UNL     1      -4.022  12.353  22.230  0.00  0.00    +0.000 NA
ENDBRANCH  33  34
ENDBRANCH  25  28
ENDBRANCH  23  24
ENDBRANCH   3  23
TORSDOF 7
ENDMDL
MODEL 5
REMARK VINA RESULT:      -9.0      3.654     11.075
REMARK  Name = 
REMARK  9 active torsions:
REMARK  status: ('A' for Active; 'I' for Inactive)
REMARK    1  A    between atoms: C_1  and  C_2
REMARK    2  A    between atoms: C_5  and  C_6
REMARK    3  A    between atoms: N_8  and  C_9
REMARK    4  A    between atoms: C_13  and  C_14
REMARK    5  A    between atoms: C_16  and  C_17
REMARK    6  A    between atoms: C_17  and  N_18
REMARK    7  A    between atoms: C_19  and  C_21
REMARK    8  A    between atoms: C_26  and  N_27
REMARK    9  A    between atoms: C_32  and  C_33
REMARK                            x       y       z     vdW  Elec       q    Type
REMARK                         _______ _______ _______ _____ _____    ______ ____
ROOT
ATOM      1  C   UNL     1       1.435   7.644  20.519  0.00  0.00    +0.000 A 
ATOM      2  N   UNL     1       1.335   8.739  19.788  0.00  0.00    +0.000 NA
ATOM      3  C   UNL     1       0.749   9.662  20.639  0.00  0.00    +0.000 A 
ATOM      4  C   UNL     1       0.583   9.085  21.884  0.00  0.00    +0.000 A 
ATOM      5  C   UNL     1       0.098   9.513  23.207  0.00  0.00    +0.000 C 
ATOM      6  O   UNL     1       0.993   7.785  21.801  0.00  0.00    +0.000 OA
ENDROOT
BRANCH   1  11
ATOM      7  C   UNL     1       3.259   4.891  18.671  0.00  0.00    +0.000 A 
ATOM      8  C   UNL     1       2.988   3.818  19.512  0.00  0.00    +0.000 A 
ATOM      9  C   UNL     1       2.253   3.993  20.689  0.00  0.00    +0.000 A 
ATOM     10  C   UNL     1       1.775   5.256  21.026  0.00  0.00    +0.000 A 
ATOM     11  C   UNL     1       2.021   6.351  20.191  0.00  0.00    +0.000 A 
ATOM     12  C   UNL     1       2.788   6.165  19.026  0.00  0.00    +0.000 A 
BRANCH   7  15
ATOM     13  C   UNL     1       5.365   4.600  17.349  0.00  0.00    +0.000 C 
ATOM     14  O   UNL     1       6.128   4.470  18.302  0.00  0.00    +0.000 OA
ATOM     15  N   UNL     1       3.985   4.770  17.471  0.00  0.00    +0.000 N 
ATOM     16  H   UNL     1       3.462   4.725  16.607  0.00  0.00    +0.000 HD
BRANCH  13  21
ATOM     17  C   UNL     1       8.063   5.259  12.818  0.00  0.00    +0.000 C 
ATOM     18  C   UNL     1       7.088   4.818  13.855  0.00  0.00    +0.000 A 
ATOM     19  C   UNL     1       6.028   3.948  13.726  0.00  0.00    +0.000 A 
ATOM     20  C   UNL     1       5.317   3.791  14.952  0.00  0.00    +0.000 A 
ATOM     21  C   UNL     1       5.858   4.542  15.981  0.00  0.00    +0.000 A 
ATOM     22  S   UNL     1       7.223   5.419  15.448  0.00  0.00    +0.000 S 
ENDBRANCH  13  21
ENDBRANCH   7  15
ENDBRANCH   1  11
BRANCH   3  23
ATOM     23  C   UNL     1       0.394  11.021  20.151  0.00  0.00    +0.000 C 
BRANCH  23  24
ATOM     24  N   UNL     1      -1.011  11.067  19.809  0.00  0.00    +0.000 N 
ATOM     25  C   UNL     1      -1.571  12.152  19.166  0.00  0.00    +0.000 C 
ATOM     26  O   UNL     1      -0.927  13.152  18.880  0.00  0.00    +0.000 OA
ATOM     27  H   UNL     1      -1.546  10.226  19.976  0.00  0.00    +0.000 HD
BRANCH  25  28
ATOM     28  C   UNL     1      -3.031  12.059  18.856  0.00  0.00    +0.000 A 
ATOM     29  C   UNL     1      -3.391  11.394  17.665  0.00  0.00    +0.000 A 
ATOM     30  C   UNL     1      -4.725  11.151  17.341  0.00  0.00    +0.000 A 
ATOM     31  C   UNL     1      -5.731  11.529  18.223  0.00  0.00    +0.000 A 
ATOM     32  C   UNL     1      -5.397  12.150  19.426  0.00  0.00    +0.000 A 
ATOM     33  C   UNL     1      -4.054  12.442  19.749  0.00  0.00    +0.000 A 
BRANCH  33  34
ATOM     34  N   UNL     1      -3.826  13.136  20.969  0.00  0.00    +0.000 N 
ATOM     35  C   UNL     1      -3.612  12.627  22.233  0.00  0.00    +0.000 A 
ATOM     36  C   UNL     1      -3.520  13.695  23.093  0.00  0.00    +0.000 A 
ATOM     37  C   UNL     1      -3.586  14.819  22.261  0.00  0.00    +0.000 A 
ATOM     38  N   UNL     1      -3.681  14.494  20.971  0.00  0.00    +0.000 NA
ENDBRANCH  33  34
ENDBRANCH  25  28
ENDBRANCH  23  24
ENDBRANCH   3  23
TORSDOF 7
ENDMDL
MODEL 6
REMARK VINA RESULT:      -9.0      3.747     10.963
REMARK  Name = 
REMARK  9 active torsions:
REMARK  status: ('A' for Active; 'I' for Inactive)
REMARK    1  A    between atoms: C_1  and  C_2
REMARK    2  A    between atoms: C_5  and  C_6
REMARK    3  A    between atoms: N_8  and  C_9
REMARK    4  A    between atoms: C_13  and  C_14
REMARK    5  A    between atoms: C_16  and  C_17
REMARK    6  A    between atoms: C_17  and  N_18
REMARK    7  A    between atoms: C_19  and  C_21
REMARK    8  A    between atoms: C_26  and  N_27
REMARK    9  A    between atoms: C_32  and  C_33
REMARK                            x       y       z     vdW  Elec       q    Type
REMARK                         _______ _______ _______ _____ _____    ______ ____
ROOT
ATOM      1  C   UNL     1       1.590   7.803  20.377  0.00  0.00    +0.000 A 
ATOM      2  N   UNL     1       1.465   8.911  19.670  0.00  0.00    +0.000 NA
ATOM      3  C   UNL     1       0.813   9.786  20.523  0.00  0.00    +0.000 A 
ATOM      4  C   UNL     1       0.632   9.170  21.748  0.00  0.00    +0.000 A 
ATOM      5  C   UNL     1       0.087   9.543  23.064  0.00  0.00    +0.000 C 
ATOM      6  O   UNL     1       1.100   7.892  21.647  0.00  0.00    +0.000 OA
ENDROOT
BRANCH   1  11
ATOM      7  C   UNL     1       3.571   5.172  18.514  0.00  0.00    +0.000 A 
ATOM      8  C   UNL     1       3.338   4.072  19.333  0.00  0.00    +0.000 A 
ATOM      9  C   UNL     1       2.577   4.192  20.500  0.00  0.00    +0.000 A 
ATOM     10  C   UNL     1       2.034   5.425  20.850  0.00  0.00    +0.000 A 
ATOM     11  C   UNL     1       2.241   6.545  20.038  0.00  0.00    +0.000 A 
ATOM     12  C   UNL     1       3.035   6.415  18.883  0.00  0.00    +0.000 A 
BRANCH   7  15
ATOM     13  C   UNL     1       4.730   3.946  16.665  0.00  0.00    +0.000 C 
ATOM     14  O   UNL     1       4.423   2.811  17.016  0.00  0.00    +0.000 OA
ATOM     15  N   UNL     1       4.321   5.106  17.326  0.00  0.00    +0.000 N 
ATOM     16  H   UNL     1       4.529   5.973  16.851  0.00  0.00    +0.000 HD
BRANCH  13  21
ATOM     17  C   UNL     1       8.321   5.599  13.112  0.00  0.00    +0.000 C 
ATOM     18  C   UNL     1       7.187   4.911  13.791  0.00  0.00    +0.000 A 
ATOM     19  C   UNL     1       6.292   4.004  13.266  0.00  0.00    +0.000 A 
ATOM     20  C   UNL     1       5.336   3.579  14.235  0.00  0.00    +0.000 A 
ATOM     21  C   UNL     1       5.532   4.170  15.472  0.00  0.00    +0.000 A 
ATOM     22  S   UNL     1       6.876   5.223  15.441  0.00  0.00    +0.000 S 
ENDBRANCH  13  21
ENDBRANCH   7  15
ENDBRANCH   1  11
BRANCH   3  23
ATOM     23  C   UNL     1       0.415  11.140  20.057  0.00  0.00    +0.000 C 
BRANCH  23  24
ATOM     24  N   UNL     1      -1.026  11.271  20.103  0.00  0.00    +0.000 N 
ATOM     25  C   UNL     1      -1.700  12.196  19.332  0.00  0.00    +0.000 C 
ATOM     26  O   UNL     1      -1.123  12.983  18.593  0.00  0.00    +0.000 OA
ATOM     27  H   UNL     1      -1.525  10.587  20.654  0.00  0.00    +0.000 HD
BRANCH  25  28
ATOM     28  C   UNL     1      -3.189  12.209  19.464  0.00  0.00    +0.000 A 
ATOM     29  C   UNL     1      -3.726  12.881  20.582  0.00  0.00    +0.000 A 
ATOM     30  C   UNL     1      -5.101  13.052  20.738  0.00  0.00    +0.000 A 
ATOM     31  C   UNL     1      -5.971  12.593  19.756  0.00  0.00    +0.000 A 
ATOM     32  C   UNL     1      -5.460  11.964  18.621  0.00  0.00    +0.000 A 
ATOM     33  C   UNL     1      -4.074  11.744  18.469  0.00  0.00    +0.000 A 
BRANCH  33  34
ATOM     34  N   UNL     1      -3.663  11.035  17.306  0.00  0.00    +0.000 N 
ATOM     35  C   UNL     1      -3.942  11.299  15.982  0.00  0.00    +0.000 A 
ATOM     36  C   UNL     1      -3.384  10.288  15.238  0.00  0.00    +0.000 A 
ATOM     37  C   UNL     1      -2.697   9.505  16.173  0.00  0.00    +0.000 A 
ATOM     38  N   UNL     1      -2.784   9.996  17.411  0.00  0.00    +0.000 NA
ENDBRANCH  33  34
ENDBRANCH  25  28
ENDBRANCH  23  24
ENDBRANCH   3  23
TORSDOF 7
ENDMDL
MODEL 7
REMARK VINA RESULT:      -9.0      1.252      1.381
REMARK  Name = 
REMARK  9 active torsions:
REMARK  status: ('A' for Active; 'I' for Inactive)
REMARK    1  A    between atoms: C_1  and  C_2
REMARK    2  A    between atoms: C_5  and  C_6
REMARK    3  A    between atoms: N_8  and  C_9
REMARK    4  A    between atoms: C_13  and  C_14
REMARK    5  A    between atoms: C_16  and  C_17
REMARK    6  A    between atoms: C_17  and  N_18
REMARK    7  A    between atoms: C_19  and  C_21
REMARK    8  A    between atoms: C_26  and  N_27
REMARK    9  A    between atoms: C_32  and  C_33
REMARK                            x       y       z     vdW  Elec       q    Type
REMARK                         _______ _______ _______ _____ _____    ______ ____
ROOT
ATOM      1  C   UNL     1       2.024   6.859  18.978  0.00  0.00    +0.000 A 
ATOM      2  N   UNL     1       2.150   5.958  18.022  0.00  0.00    +0.000 NA
ATOM      3  C   UNL     1       2.293   4.759  18.703  0.00  0.00    +0.000 A 
ATOM      4  C   UNL     1       2.178   4.996  20.060  0.00  0.00    +0.000 A 
ATOM      5  C   UNL     1       2.170   4.188  21.291  0.00  0.00    +0.000 C 
ATOM      6  O   UNL     1       2.036   6.342  20.240  0.00  0.00    +0.000 OA
ENDROOT
BRANCH   1  11
ATOM      7  C   UNL     1       0.495  10.287  19.463  0.00  0.00    +0.000 A 
ATOM      8  C   UNL     1       1.259  11.020  18.561  0.00  0.00    +0.000 A 
ATOM      9  C   UNL     1       2.286  10.415  17.831  0.00  0.00    +0.000 A 
ATOM     10  C   UNL     1       2.549   9.059  17.997  0.00  0.00    +0.000 A 
ATOM     11  C   UNL     1       1.788   8.294  18.887  0.00  0.00    +0.000 A 
ATOM     12  C   UNL     1       0.777   8.923  19.638  0.00  0.00    +0.000 A 
BRANCH   7  15
ATOM     13  C   UNL     1      -0.432  11.593  21.388  0.00  0.00    +0.000 C 
ATOM     14  O   UNL     1       0.642  11.922  21.882  0.00  0.00    +0.000 OA
ATOM     15  N   UNL     1      -0.556  10.842  20.217  0.00  0.00    +0.000 N 
ATOM     16  H   UNL     1      -1.494  10.761  19.849  0.00  0.00    +0.000 HD
BRANCH  13  21
ATOM     17  C   UNL     1      -5.267  13.585  22.337  0.00  0.00    +0.000 C 
ATOM     18  C   UNL     1      -3.939  12.922  22.465  0.00  0.00    +0.000 A 
ATOM     19  C   UNL     1      -3.367  12.349  23.581  0.00  0.00    +0.000 A 
ATOM     20  C   UNL     1      -2.070  11.826  23.303  0.00  0.00    +0.000 A 
ATOM     21  C   UNL     1      -1.692  12.011  21.984  0.00  0.00    +0.000 A 
ATOM     22  S   UNL     1      -2.918  12.808  21.102  0.00  0.00    +0.000 S 
ENDBRANCH  13  21
ENDBRANCH   7  15
ENDBRANCH   1  11
BRANCH   3  23
ATOM     23  C   UNL     1       2.542   3.495  17.962  0.00  0.00    +0.000 C 
BRANCH  23  24
ATOM     24  N   UNL     1       3.476   3.735  16.883  0.00  0.00    +0.000 N 
ATOM     25  C   UNL     1       4.825   3.913  17.111  0.00  0.00    +0.000 C 
ATOM     26  O   UNL     1       5.308   3.914  18.235  0.00  0.00    +0.000 OA
ATOM     27  H   UNL     1       3.108   3.671  15.944  0.00  0.00    +0.000 HD
BRANCH  25  28
ATOM     28  C   UNL     1       5.678   4.134  15.903  0.00  0.00    +0.000 A 
ATOM     29  C   UNL     1       5.267   3.510  14.706  0.00  0.00    +0.000 A 
ATOM     30  C   UNL     1       5.924   3.744  13.499  0.00  0.00    +0.000 A 
ATOM     31  C   UNL     1       6.984   4.644  13.452  0.00  0.00    +0.000 A 
ATOM     32  C   UNL     1       7.381   5.304  14.614  0.00  0.00    +0.000 A 
ATOM     33  C   UNL     1       6.754   5.045  15.852  0.00  0.00    +0.000 A 
BRANCH  33  34
ATOM     34  N   UNL     1       7.277   5.722  16.988  0.00  0.00    +0.000 N 
ATOM     35  C   UNL     1       7.795   5.198  18.153  0.00  0.00    +0.000 A 
ATOM     36  C   UNL     1       8.099   6.255  18.977  0.00  0.00    +0.000 A 
ATOM     37  C   UNL     1       7.834   7.389  18.201  0.00  0.00    +0.000 A 
ATOM     38  N   UNL     1       7.424   7.080  16.970  0.00  0.00    +0.000 NA
ENDBRANCH  33  34
ENDBRANCH  25  28
ENDBRANCH  23  24
ENDBRANCH   3  23
TORSDOF 7
ENDMDL
MODEL 8
REMARK VINA RESULT:      -9.0      1.099      1.143
REMARK  Name = 
REMARK  9 active torsions:
REMARK  status: ('A' for Active; 'I' for Inactive)
REMARK    1  A    between atoms: C_1  and  C_2
REMARK    2  A    between atoms: C_5  and  C_6
REMARK    3  A    between atoms: N_8  and  C_9
REMARK    4  A    between atoms: C_13  and  C_14
REMARK    5  A    between atoms: C_16  and  C_17
REMARK    6  A    between atoms: C_17  and  N_18
REMARK    7  A    between atoms: C_19  and  C_21
REMARK    8  A    between atoms: C_26  and  N_27
REMARK    9  A    between atoms: C_32  and  C_33
REMARK                            x       y       z     vdW  Elec       q    Type
REMARK                         _______ _______ _______ _____ _____    ______ ____
ROOT
ATOM      1  C   UNL     1       2.575   6.489  19.488  0.00  0.00    +0.000 A 
ATOM      2  N   UNL     1       3.580   5.757  19.044  0.00  0.00    +0.000 NA
ATOM      3  C   UNL     1       3.403   4.529  19.662  0.00  0.00    +0.000 A 
ATOM      4  C   UNL     1       2.241   4.565  20.410  0.00  0.00    +0.000 A 
ATOM      5  C   UNL     1       1.467   3.619  21.231  0.00  0.00    +0.000 C 
ATOM      6  O   UNL     1       1.727   5.826  20.325  0.00  0.00    +0.000 OA
ENDROOT
BRANCH   1  11
ATOM      7  C   UNL     1       0.797   9.830  19.510  0.00  0.00    +0.000 A 
ATOM      8  C   UNL     1       1.366  10.412  18.383  0.00  0.00    +0.000 A 
ATOM      9  C   UNL     1       2.346   9.742  17.644  0.00  0.00    +0.000 A 
ATOM     10  C   UNL     1       2.758   8.470  18.032  0.00  0.00    +0.000 A 
ATOM     11  C   UNL     1       2.193   7.855  19.153  0.00  0.00    +0.000 A 
ATOM     12  C   UNL     1       1.230   8.554  19.905  0.00  0.00    +0.000 A 
BRANCH   7  15
ATOM     13  C   UNL     1      -1.094  11.434  19.852  0.00  0.00    +0.000 C 
ATOM     14  O   UNL     1      -1.166  11.836  18.694  0.00  0.00    +0.000 OA
ATOM     15  N   UNL     1      -0.198  10.455  20.284  0.00  0.00    +0.000 N 
ATOM     16  H   UNL     1      -0.340  10.120  21.227  0.00  0.00    +0.000 HD
BRANCH  13  21
ATOM     17  C   UNL     1      -3.520  12.671  24.416  0.00  0.00    +0.000 C 
ATOM     18  C   UNL     1      -3.152  12.535  22.978  0.00  0.00    +0.000 A 
ATOM     19  C   UNL     1      -3.821  13.010  21.870  0.00  0.00    +0.000 A 
ATOM     20  C   UNL     1      -3.155  12.662  20.659  0.00  0.00    +0.000 A 
ATOM     21  C   UNL     1      -1.996  11.937  20.877  0.00  0.00    +0.000 A 
ATOM     22  S   UNL     1      -1.729  11.696  22.547  0.00  0.00    +0.000 S 
ENDBRANCH  13  21
ENDBRANCH   7  15
ENDBRANCH   1  11
BRANCH   3  23
ATOM     23  C   UNL     1       4.395   3.439  19.473  0.00  0.00    +0.000 C 
BRANCH  23  24
ATOM     24  N   UNL     1       5.180   3.691  18.284  0.00  0.00    +0.000 N 
ATOM     25  C   UNL     1       4.622   3.665  17.021  0.00  0.00    +0.000 C 
ATOM     26  O   UNL     1       3.445   3.394  16.828  0.00  0.00    +0.000 OA
ATOM     27  H   UNL     1       6.137   3.982  18.426  0.00  0.00    +0.000 HD
BRANCH  25  28
ATOM     28  C   UNL     1       5.544   3.962  15.883  0.00  0.00    +0.000 A 
ATOM     29  C   UNL     1       5.162   3.488  14.609  0.00  0.00    +0.000 A 
ATOM     30  C   UNL     1       5.890   3.808  13.465  0.00  0.00    +0.000 A 
ATOM     31  C   UNL     1       6.995   4.648  13.559  0.00  0.00    +0.000 A 
ATOM     32  C   UNL     1       7.366   5.162  14.801  0.00  0.00    +0.000 A 
ATOM     33  C   UNL     1       6.666   4.812  15.976  0.00  0.00    +0.000 A 
BRANCH  33  34
ATOM     34  N   UNL     1       7.165   5.339  17.199  0.00  0.00    +0.000 N 
ATOM     35  C   UNL     1       7.001   6.598  17.736  0.00  0.00    +0.000 A 
ATOM     36  C   UNL     1       7.737   6.647  18.895  0.00  0.00    +0.000 A 
ATOM     37  C   UNL     1       8.235   5.348  19.046  0.00  0.00    +0.000 A 
ATOM     38  N   UNL     1       7.824   4.528  18.078  0.00  0.00    +0.000 NA
ENDBRANCH  33  34
ENDBRANCH  25  28
ENDBRANCH  23  24
ENDBRANCH   3  23
TORSDOF 7
ENDMDL
MODEL 9
REMARK VINA RESULT:      -8.9      3.607     10.983
REMARK  Name = 
REMARK  9 active torsions:
REMARK  status: ('A' for Active; 'I' for Inactive)
REMARK    1  A    between atoms: C_1  and  C_2
REMARK    2  A    between atoms: C_5  and  C_6
REMARK    3  A    between atoms: N_8  and  C_9
REMARK    4  A    between atoms: C_13  and  C_14
REMARK    5  A    between atoms: C_16  and  C_17
REMARK    6  A    between atoms: C_17  and  N_18
REMARK    7  A    between atoms: C_19  and  C_21
REMARK    8  A    between atoms: C_26  and  N_27
REMARK    9  A    between atoms: C_32  and  C_33
REMARK                            x       y       z     vdW  Elec       q    Type
REMARK                         _______ _______ _______ _____ _____    ______ ____
ROOT
ATOM      1  C   UNL     1       1.449   8.706  20.174  0.00  0.00    +0.000 A 
ATOM      2  N   UNL     1       0.726   9.246  21.138  0.00  0.00    +0.000 NA
ATOM      3  C   UNL     1       0.548  10.559  20.733  0.00  0.00    +0.000 A 
ATOM      4  C   UNL     1       1.128  10.729  19.489  0.00  0.00    +0.000 A 
ATOM      5  C   UNL     1       1.243  11.814  18.501  0.00  0.00    +0.000 C 
ATOM      6  O   UNL     1       1.731   9.554  19.144  0.00  0.00    +0.000 OA
ENDROOT
BRANCH   1  11
ATOM      7  C   UNL     1       3.084   5.618  18.721  0.00  0.00    +0.000 A 
ATOM      8  C   UNL     1       2.637   4.662  19.626  0.00  0.00    +0.000 A 
ATOM      9  C   UNL     1       1.845   5.021  20.721  0.00  0.00    +0.000 A 
ATOM     10  C   UNL     1       1.486   6.353  20.909  0.00  0.00    +0.000 A 
ATOM     11  C   UNL     1       1.909   7.334  20.007  0.00  0.00    +0.000 A 
ATOM     12  C   UNL     1       2.733   6.961  18.927  0.00  0.00    +0.000 A 
BRANCH   7  15
ATOM     13  C   UNL     1       5.267   5.209  17.567  0.00  0.00    +0.000 C 
ATOM     14  O   UNL     1       5.987   5.318  18.555  0.00  0.00    +0.000 OA
ATOM     15  N   UNL     1       3.875   5.311  17.598  0.00  0.00    +0.000 N 
ATOM     16  H   UNL     1       3.401   5.064  16.741  0.00  0.00    +0.000 HD
BRANCH  13  21
ATOM     17  C   UNL     1       6.225   3.395  12.664  0.00  0.00    +0.000 C 
ATOM     18  C   UNL     1       6.311   4.098  13.975  0.00  0.00    +0.000 A 
ATOM     19  C   UNL     1       7.307   4.927  14.443  0.00  0.00    +0.000 A 
ATOM     20  C   UNL     1       7.031   5.397  15.761  0.00  0.00    +0.000 A 
ATOM     21  C   UNL     1       5.831   4.916  16.258  0.00  0.00    +0.000 A 
ATOM     22  S   UNL     1       5.055   3.910  15.117  0.00  0.00    +0.000 S 
ENDBRANCH  13  21
ENDBRANCH   7  15
ENDBRANCH   1  11
BRANCH   3  23
ATOM     23  C   UNL     1      -0.162  11.530  21.606  0.00  0.00    +0.000 C 
BRANCH  23  24
ATOM     24  N   UNL     1      -1.565  11.572  21.252  0.00  0.00    +0.000 N 
ATOM     25  C   UNL     1      -2.093  12.585  20.478  0.00  0.00    +0.000 C 
ATOM     26  O   UNL     1      -1.419  13.525  20.075  0.00  0.00    +0.000 OA
ATOM     27  H   UNL     1      -2.123  10.772  21.518  0.00  0.00    +0.000 HD
BRANCH  25  28
ATOM     28  C   UNL     1      -3.553  12.495  20.173  0.00  0.00    +0.000 A 
ATOM     29  C   UNL     1      -4.435  13.150  21.060  0.00  0.00    +0.000 A 
ATOM     30  C   UNL     1      -5.803  13.225  20.804  0.00  0.00    +0.000 A 
ATOM     31  C   UNL     1      -6.318  12.682  19.632  0.00  0.00    +0.000 A 
ATOM     32  C   UNL     1      -5.461  12.067  18.721  0.00  0.00    +0.000 A 
ATOM     33  C   UNL     1      -4.079  11.944  18.986  0.00  0.00    +0.000 A 
BRANCH  33  34
ATOM     34  N   UNL     1      -3.304  11.242  18.022  0.00  0.00    +0.000 N 
ATOM     35  C   UNL     1      -3.347  11.318  16.646  0.00  0.00    +0.000 A 
ATOM     36  C   UNL     1      -2.458  10.391  16.158  0.00  0.00    +0.000 A 
ATOM     37  C   UNL     1      -1.840   9.866  17.299  0.00  0.00    +0.000 A 
ATOM     38  N   UNL     1      -2.277  10.435  18.423  0.00  0.00    +0.000 NA
ENDBRANCH  33  34
ENDBRANCH  25  28
ENDBRANCH  23  24
ENDBRANCH   3  23
TORSDOF 7
ENDMDL
