MODEL 1
REMARK VINA RESULT:      -6.4      0.000      0.000
REMARK  Name = 
REMARK  5 active torsions:
REMARK  status: ('A' for Active; 'I' for Inactive)
REMARK    1  A    between atoms: C_1  and  C_2
REMARK    2  A    between atoms: C_5  and  N_6
REMARK    3  A    between atoms: C_7  and  C_9
REMARK    4  A    between atoms: C_9  and  C_10
REMARK    5  A    between atoms: C_10  and  N_11
REMARK                            x       y       z     vdW  Elec       q    Type
REMARK                         _______ _______ _______ _____ _____    ______ ____
ROOT
ATOM      1  N   UNL     1       5.269   5.107  18.403  0.00  0.00    +0.000 N 
ATOM      2  C   UNL     1       6.534   5.472  18.819  0.00  0.00    +0.000 C 
ATOM      3  O   UNL     1       6.981   5.350  19.956  0.00  0.00    +0.000 OA
ATOM      4  H   UNL     1       5.063   5.132  17.411  0.00  0.00    +0.000 HD
ENDROOT
BRANCH   1   9
ATOM      5  C   UNL     1       1.383   2.633  21.831  0.00  0.00    +0.000 C 
ATOM      6  C   UNL     1       2.382   3.285  20.922  0.00  0.00    +0.000 A 
ATOM      7  C   UNL     1       2.347   4.662  20.708  0.00  0.00    +0.000 A 
ATOM      8  C   UNL     1       3.282   5.271  19.871  0.00  0.00    +0.000 A 
ATOM      9  C   UNL     1       4.276   4.527  19.230  0.00  0.00    +0.000 A 
ATOM     10  C   UNL     1       4.295   3.140  19.422  0.00  0.00    +0.000 A 
ATOM     11  C   UNL     1       3.361   2.527  20.269  0.00  0.00    +0.000 A 
ENDBRANCH   1   9
BRANCH   2  12
ATOM     12  C   UNL     1       7.404   6.069  17.737  0.00  0.00    +0.000 C 
BRANCH  12  13
ATOM     13  C   UNL     1       6.560   6.168  16.475  0.00  0.00    +0.000 C 
BRANCH  13  14
ATOM     14  N   UNL     1       6.990   5.103  15.527  0.00  0.00    +0.000 N 
ATOM     15  O   UNL     1       7.794   5.423  14.643  0.00  0.00    +0.000 OA
ATOM     16  O   UNL     1       6.498   3.980  15.686  0.00  0.00    +0.000 OA
ENDBRANCH  13  14
ENDBRANCH  12  13
ENDBRANCH   2  12
TORSDOF 4
ENDMDL
MODEL 2
REMARK VINA RESULT:      -6.3      1.715      1.930
REMARK  Name = 
REMARK  5 active torsions:
REMARK  status: ('A' for Active; 'I' for Inactive)
REMARK    1  A    between atoms: C_1  and  C_2
REMARK    2  A    between atoms: C_5  and  N_6
REMARK    3  A    between atoms: C_7  and  C_9
REMARK    4  A    between atoms: C_9  and  C_10
REMARK    5  A    between atoms: C_10  and  N_11
REMARK                            x       y       z     vdW  Elec       q    Type
REMARK                         _______ _______ _______ _____ _____    ______ ____
ROOT
ATOM      1  N   UNL     1       3.849   4.641  17.001  0.00  0.00    +0.000 N 
ATOM      2  C   UNL     1       4.622   5.786  16.973  0.00  0.00    +0.000 C 
ATOM      3  O   UNL     1       4.861   6.517  17.930  0.00  0.00    +0.000 OA
ATOM      4  H   UNL     1       3.836   4.049  16.180  0.00  0.00    +0.000 HD
ENDROOT
BRANCH   1   9
ATOM      5  C   UNL     1       1.396   2.580  21.766  0.00  0.00    +0.000 C 
ATOM      6  C   UNL     1       2.023   3.107  20.510  0.00  0.00    +0.000 A 
ATOM      7  C   UNL     1       1.278   3.881  19.621  0.00  0.00    +0.000 A 
ATOM      8  C   UNL     1       1.863   4.380  18.458  0.00  0.00    +0.000 A 
ATOM      9  C   UNL     1       3.203   4.124  18.151  0.00  0.00    +0.000 A 
ATOM     10  C   UNL     1       3.943   3.323  19.028  0.00  0.00    +0.000 A 
ATOM     11  C   UNL     1       3.359   2.828  20.203  0.00  0.00    +0.000 A 
ENDBRANCH   1   9
BRANCH   2  12
ATOM     12  C   UNL     1       5.202   6.120  15.618  0.00  0.00    +0.000 C 
BRANCH  12  13
ATOM     13  C   UNL     1       5.819   4.846  15.058  0.00  0.00    +0.000 C 
BRANCH  13  14
ATOM     14  N   UNL     1       7.300   4.938  15.182  0.00  0.00    +0.000 N 
ATOM     15  O   UNL     1       7.812   4.466  16.204  0.00  0.00    +0.000 OA
ATOM     16  O   UNL     1       7.906   5.496  14.259  0.00  0.00    +0.000 OA
ENDBRANCH  13  14
ENDBRANCH  12  13
ENDBRANCH   2  12
TORSDOF 4
ENDMDL
MODEL 3
REMARK VINA RESULT:      -6.2      1.964      2.310
REMARK  Name = 
REMARK  5 active torsions:
REMARK  status: ('A' for Active; 'I' for Inactive)
REMARK    1  A    between atoms: C_1  and  C_2
REMARK    2  A    between atoms: C_5  and  N_6
REMARK    3  A    between atoms: C_7  and  C_9
REMARK    4  A    between atoms: C_9  and  C_10
REMARK    5  A    between atoms: C_10  and  N_11
REMARK                            x       y       z     vdW  Elec       q    Type
REMARK                         _______ _______ _______ _____ _____    ______ ____
ROOT
ATOM      1  N   UNL     1       4.211   3.979  16.871  0.00  0.00    +0.000 N 
ATOM      2  C   UNL     1       4.620   5.245  16.496  0.00  0.00    +0.000 C 
ATOM      3  O   UNL     1       4.455   6.275  17.143  0.00  0.00    +0.000 OA
ATOM      4  H   UNL     1       4.522   3.190  16.318  0.00  0.00    +0.000 HD
ENDROOT
BRANCH   1   9
ATOM      5  C   UNL     1       1.301   2.652  21.639  0.00  0.00    +0.000 C 
ATOM      6  C   UNL     1       2.073   3.013  20.405  0.00  0.00    +0.000 A 
ATOM      7  C   UNL     1       3.440   2.751  20.327  0.00  0.00    +0.000 A 
ATOM      8  C   UNL     1       4.157   3.076  19.176  0.00  0.00    +0.000 A 
ATOM      9  C   UNL     1       3.532   3.667  18.074  0.00  0.00    +0.000 A 
ATOM     10  C   UNL     1       2.165   3.957  18.162  0.00  0.00    +0.000 A 
ATOM     11  C   UNL     1       1.441   3.622  19.316  0.00  0.00    +0.000 A 
ENDBRANCH   1   9
BRANCH   2  12
ATOM     12  C   UNL     1       5.327   5.308  15.162  0.00  0.00    +0.000 C 
BRANCH  12  13
ATOM     13  C   UNL     1       6.565   4.428  15.259  0.00  0.00    +0.000 C 
BRANCH  13  14
ATOM     14  N   UNL     1       7.494   5.019  16.262  0.00  0.00    +0.000 N 
ATOM     15  O   UNL     1       7.672   6.243  16.216  0.00  0.00    +0.000 OA
ATOM     16  O   UNL     1       8.032   4.238  17.056  0.00  0.00    +0.000 OA
ENDBRANCH  13  14
ENDBRANCH  12  13
ENDBRANCH   2  12
TORSDOF 4
ENDMDL
MODEL 4
REMARK VINA RESULT:      -6.1      3.481      6.232
REMARK  Name = 
REMARK  5 active torsions:
REMARK  status: ('A' for Active; 'I' for Inactive)
REMARK    1  A    between atoms: C_1  and  C_2
REMARK    2  A    between atoms: C_5  and  N_6
REMARK    3  A    between atoms: C_7  and  C_9
REMARK    4  A    between atoms: C_9  and  C_10
REMARK    5  A    between atoms: C_10  and  N_11
REMARK                            x       y       z     vdW  Elec       q    Type
REMARK                         _______ _______ _______ _____ _____    ______ ____
ROOT
ATOM      1  N   UNL     1       3.095   4.858  18.790  0.00  0.00    +0.000 N 
ATOM      2  C   UNL     1       1.854   4.251  18.779  0.00  0.00    +0.000 C 
ATOM      3  O   UNL     1       1.342   3.678  17.821  0.00  0.00    +0.000 OA
ATOM      4  H   UNL     1       3.464   5.180  19.677  0.00  0.00    +0.000 HD
ENDROOT
BRANCH   1   9
ATOM      5  C   UNL     1       6.604   4.930  14.246  0.00  0.00    +0.000 C 
ATOM      6  C   UNL     1       5.703   4.921  15.445  0.00  0.00    +0.000 A 
ATOM      7  C   UNL     1       5.244   6.120  15.991  0.00  0.00    +0.000 A 
ATOM      8  C   UNL     1       4.397   6.112  17.099  0.00  0.00    +0.000 A 
ATOM      9  C   UNL     1       3.983   4.915  17.689  0.00  0.00    +0.000 A 
ATOM     10  C   UNL     1       4.466   3.712  17.159  0.00  0.00    +0.000 A 
ATOM     11  C   UNL     1       5.311   3.717  16.039  0.00  0.00    +0.000 A 
ENDBRANCH   1   9
BRANCH   2  12
ATOM     12  C   UNL     1       1.103   4.329  20.088  0.00  0.00    +0.000 C 
BRANCH  12  13
ATOM     13  C   UNL     1       2.133   4.318  21.207  0.00  0.00    +0.000 C 
BRANCH  13  14
ATOM     14  N   UNL     1       2.281   2.922  21.706  0.00  0.00    +0.000 N 
ATOM     15  O   UNL     1       3.400   2.402  21.608  0.00  0.00    +0.000 OA
ATOM     16  O   UNL     1       1.269   2.381  22.167  0.00  0.00    +0.000 OA
ENDBRANCH  13  14
ENDBRANCH  12  13
ENDBRANCH   2  12
TORSDOF 4
ENDMDL
MODEL 5
REMARK VINA RESULT:      -6.0      2.983      5.692
REMARK  Name = 
REMARK  5 active torsions:
REMARK  status: ('A' for Active; 'I' for Inactive)
REMARK    1  A    between atoms: C_1  and  C_2
REMARK    2  A    between atoms: C_5  and  N_6
REMARK    3  A    between atoms: C_7  and  C_9
REMARK    4  A    between atoms: C_9  and  C_10
REMARK    5  A    between atoms: C_10  and  N_11
REMARK                            x       y       z     vdW  Elec       q    Type
REMARK                         _______ _______ _______ _____ _____    ______ ____
ROOT
ATOM      1  N   UNL     1       5.366   3.763  18.439  0.00  0.00    +0.000 N 
ATOM      2  C   UNL     1       4.306   3.556  19.300  0.00  0.00    +0.000 C 
ATOM      3  O   UNL     1       3.787   4.406  20.019  0.00  0.00    +0.000 OA
ATOM      4  H   UNL     1       5.618   3.018  17.800  0.00  0.00    +0.000 HD
ENDROOT
BRANCH   1   9
ATOM      5  C   UNL     1       8.225   8.682  17.671  0.00  0.00    +0.000 C 
ATOM      6  C   UNL     1       7.461   7.409  17.879  0.00  0.00    +0.000 A 
ATOM      7  C   UNL     1       6.307   7.150  17.139  0.00  0.00    +0.000 A 
ATOM      8  C   UNL     1       5.602   5.961  17.324  0.00  0.00    +0.000 A 
ATOM      9  C   UNL     1       6.028   4.999  18.245  0.00  0.00    +0.000 A 
ATOM     10  C   UNL     1       7.170   5.271  19.008  0.00  0.00    +0.000 A 
ATOM     11  C   UNL     1       7.885   6.462  18.817  0.00  0.00    +0.000 A 
ENDBRANCH   1   9
BRANCH   2  12
ATOM     12  C   UNL     1       3.777   2.141  19.319  0.00  0.00    +0.000 C 
BRANCH  12  13
ATOM     13  C   UNL     1       2.983   1.932  18.038  0.00  0.00    +0.000 C 
BRANCH  13  14
ATOM     14  N   UNL     1       1.697   2.676  18.146  0.00  0.00    +0.000 N 
ATOM     15  O   UNL     1       0.904   2.309  19.021  0.00  0.00    +0.000 OA
ATOM     16  O   UNL     1       1.513   3.595  17.339  0.00  0.00    +0.000 OA
ENDBRANCH  13  14
ENDBRANCH  12  13
ENDBRANCH   2  12
TORSDOF 4
ENDMDL
MODEL 6
REMARK VINA RESULT:      -6.0      2.817      5.680
REMARK  Name = 
REMARK  5 active torsions:
REMARK  status: ('A' for Active; 'I' for Inactive)
REMARK    1  A    between atoms: C_1  and  C_2
REMARK    2  A    between atoms: C_5  and  N_6
REMARK    3  A    between atoms: C_7  and  C_9
REMARK    4  A    between atoms: C_9  and  C_10
REMARK    5  A    between atoms: C_10  and  N_11
REMARK                            x       y       z     vdW  Elec       q    Type
REMARK                         _______ _______ _______ _____ _____    ______ ____
ROOT
ATOM      1  N   UNL     1       5.579   3.804  18.582  0.00  0.00    +0.000 N 
ATOM      2  C   UNL     1       4.431   3.672  19.339  0.00  0.00    +0.000 C 
ATOM      3  O   UNL     1       3.844   4.581  19.920  0.00  0.00    +0.000 OA
ATOM      4  H   UNL     1       5.893   3.006  18.043  0.00  0.00    +0.000 HD
ENDROOT
BRANCH   1   9
ATOM      5  C   UNL     1       8.193   8.827  17.633  0.00  0.00    +0.000 C 
ATOM      6  C   UNL     1       7.528   7.505  17.874  0.00  0.00    +0.000 A 
ATOM      7  C   UNL     1       8.047   6.615  18.814  0.00  0.00    +0.000 A 
ATOM      8  C   UNL     1       7.423   5.390  19.046  0.00  0.00    +0.000 A 
ATOM      9  C   UNL     1       6.267   5.020  18.353  0.00  0.00    +0.000 A 
ATOM     10  C   UNL     1       5.762   5.900  17.388  0.00  0.00    +0.000 A 
ATOM     11  C   UNL     1       6.383   7.137  17.160  0.00  0.00    +0.000 A 
ENDBRANCH   1   9
BRANCH   2  12
ATOM     12  C   UNL     1       3.893   2.263  19.426  0.00  0.00    +0.000 C 
BRANCH  12  13
ATOM     13  C   UNL     1       2.374   2.354  19.445  0.00  0.00    +0.000 C 
BRANCH  13  14
ATOM     14  N   UNL     1       1.896   2.650  18.066  0.00  0.00    +0.000 N 
ATOM     15  O   UNL     1       2.403   2.005  17.141  0.00  0.00    +0.000 OA
ATOM     16  O   UNL     1       1.037   3.533  17.949  0.00  0.00    +0.000 OA
ENDBRANCH  13  14
ENDBRANCH  12  13
ENDBRANCH   2  12
TORSDOF 4
ENDMDL
MODEL 7
REMARK VINA RESULT:      -6.0      3.470      6.427
REMARK  Name = 
REMARK  5 active torsions:
REMARK  status: ('A' for Active; 'I' for Inactive)
REMARK    1  A    between atoms: C_1  and  C_2
REMARK    2  A    between atoms: C_5  and  N_6
REMARK    3  A    between atoms: C_7  and  C_9
REMARK    4  A    between atoms: C_9  and  C_10
REMARK    5  A    between atoms: C_10  and  N_11
REMARK                            x       y       z     vdW  Elec       q    Type
REMARK                         _______ _______ _______ _____ _____    ______ ____
ROOT
ATOM      1  N   UNL     1       3.072   4.614  18.504  0.00  0.00    +0.000 N 
ATOM      2  C   UNL     1       1.758   4.215  18.355  0.00  0.00    +0.000 C 
ATOM      3  O   UNL     1       1.223   3.878  17.302  0.00  0.00    +0.000 OA
ATOM      4  H   UNL     1       3.432   4.739  19.442  0.00  0.00    +0.000 HD
ENDROOT
BRANCH   1   9
ATOM      5  C   UNL     1       7.001   5.104  14.346  0.00  0.00    +0.000 C 
ATOM      6  C   UNL     1       5.962   4.966  15.418  0.00  0.00    +0.000 A 
ATOM      7  C   UNL     1       5.584   3.704  15.875  0.00  0.00    +0.000 A 
ATOM      8  C   UNL     1       4.625   3.575  16.880  0.00  0.00    +0.000 A 
ATOM      9  C   UNL     1       4.021   4.696  17.456  0.00  0.00    +0.000 A 
ATOM     10  C   UNL     1       4.379   5.962  16.978  0.00  0.00    +0.000 A 
ATOM     11  C   UNL     1       5.349   6.094  15.974  0.00  0.00    +0.000 A 
ENDBRANCH   1   9
BRANCH   2  12
ATOM     12  C   UNL     1       0.951   4.214  19.633  0.00  0.00    +0.000 C 
BRANCH  12  13
ATOM     13  C   UNL     1       1.299   2.941  20.391  0.00  0.00    +0.000 C 
BRANCH  13  14
ATOM     14  N   UNL     1       2.247   3.282  21.488  0.00  0.00    +0.000 N 
ATOM     15  O   UNL     1       2.706   2.344  22.151  0.00  0.00    +0.000 OA
ATOM     16  O   UNL     1       2.491   4.482  21.665  0.00  0.00    +0.000 OA
ENDBRANCH  13  14
ENDBRANCH  12  13
ENDBRANCH   2  12
TORSDOF 4
ENDMDL
MODEL 8
REMARK VINA RESULT:      -6.0      3.572      6.083
REMARK  Name = 
REMARK  5 active torsions:
REMARK  status: ('A' for Active; 'I' for Inactive)
REMARK    1  A    between atoms: C_1  and  C_2
REMARK    2  A    between atoms: C_5  and  N_6
REMARK    3  A    between atoms: C_7  and  C_9
REMARK    4  A    between atoms: C_9  and  C_10
REMARK    5  A    between atoms: C_10  and  N_11
REMARK                            x       y       z     vdW  Elec       q    Type
REMARK                         _______ _______ _______ _____ _____    ______ ____
ROOT
ATOM      1  N   UNL     1       2.946   4.454  18.879  0.00  0.00    +0.000 N 
ATOM      2  C   UNL     1       1.975   4.878  19.765  0.00  0.00    +0.000 C 
ATOM      3  O   UNL     1       1.963   5.953  20.358  0.00  0.00    +0.000 OA
ATOM      4  H   UNL     1       2.778   3.606  18.351  0.00  0.00    +0.000 HD
ENDROOT
BRANCH   1   9
ATOM      5  C   UNL     1       7.703   7.312  17.404  0.00  0.00    +0.000 C 
ATOM      6  C   UNL     1       6.452   6.584  17.795  0.00  0.00    +0.000 A 
ATOM      7  C   UNL     1       5.251   6.842  17.136  0.00  0.00    +0.000 A 
ATOM      8  C   UNL     1       4.089   6.158  17.492  0.00  0.00    +0.000 A 
ATOM      9  C   UNL     1       4.093   5.200  18.509  0.00  0.00    +0.000 A 
ATOM     10  C   UNL     1       5.291   4.961  19.191  0.00  0.00    +0.000 A 
ATOM     11  C   UNL     1       6.463   5.641  18.829  0.00  0.00    +0.000 A 
ENDBRANCH   1   9
BRANCH   2  12
ATOM     12  C   UNL     1       0.852   3.892  19.986  0.00  0.00    +0.000 C 
BRANCH  12  13
ATOM     13  C   UNL     1       1.478   2.517  20.161  0.00  0.00    +0.000 C 
BRANCH  13  14
ATOM     14  N   UNL     1       2.126   2.453  21.501  0.00  0.00    +0.000 N 
ATOM     15  O   UNL     1       3.361   2.388  21.529  0.00  0.00    +0.000 OA
ATOM     16  O   UNL     1       1.378   2.454  22.485  0.00  0.00    +0.000 OA
ENDBRANCH  13  14
ENDBRANCH  12  13
ENDBRANCH   2  12
TORSDOF 4
ENDMDL
MODEL 9
REMARK VINA RESULT:      -6.0      1.434      1.515
REMARK  Name = 
REMARK  5 active torsions:
REMARK  status: ('A' for Active; 'I' for Inactive)
REMARK    1  A    between atoms: C_1  and  C_2
REMARK    2  A    between atoms: C_5  and  N_6
REMARK    3  A    between atoms: C_7  and  C_9
REMARK    4  A    between atoms: C_9  and  C_10
REMARK    5  A    between atoms: C_10  and  N_11
REMARK                            x       y       z     vdW  Elec       q    Type
REMARK                         _______ _______ _______ _____ _____    ______ ____
ROOT
ATOM      1  N   UNL     1       5.108   3.796  17.525  0.00  0.00    +0.000 N 
ATOM      2  C   UNL     1       6.118   4.733  17.630  0.00  0.00    +0.000 C 
ATOM      3  O   UNL     1       6.304   5.488  18.581  0.00  0.00    +0.000 OA
ATOM      4  H   UNL     1       5.138   3.142  16.753  0.00  0.00    +0.000 HD
ENDROOT
BRANCH   1   9
ATOM      5  C   UNL     1       1.236   2.821  21.651  0.00  0.00    +0.000 C 
ATOM      6  C   UNL     1       2.234   3.066  20.559  0.00  0.00    +0.000 A 
ATOM      7  C   UNL     1       1.911   3.888  19.480  0.00  0.00    +0.000 A 
ATOM      8  C   UNL     1       2.843   4.125  18.470  0.00  0.00    +0.000 A 
ATOM      9  C   UNL     1       4.118   3.554  18.509  0.00  0.00    +0.000 A 
ATOM     10  C   UNL     1       4.433   2.706  19.577  0.00  0.00    +0.000 A 
ATOM     11  C   UNL     1       3.501   2.473  20.599  0.00  0.00    +0.000 A 
ENDBRANCH   1   9
BRANCH   2  12
ATOM     12  C   UNL     1       7.047   4.792  16.440  0.00  0.00    +0.000 C 
BRANCH  12  13
ATOM     13  C   UNL     1       6.347   4.102  15.279  0.00  0.00    +0.000 C 
BRANCH  13  14
ATOM     14  N   UNL     1       6.953   4.579  14.004  0.00  0.00    +0.000 N 
ATOM     15  O   UNL     1       7.759   5.515  14.077  0.00  0.00    +0.000 OA
ATOM     16  O   UNL     1       6.591   4.013  12.966  0.00  0.00    +0.000 OA
ENDBRANCH  13  14
ENDBRANCH  12  13
ENDBRANCH   2  12
TORSDOF 4
ENDMDL
