MODEL 1
REMARK VINA RESULT:      -8.5      0.000      0.000
REMARK  Name = 
REMARK  3 active torsions:
REMARK  status: ('A' for Active; 'I' for Inactive)
REMARK    1  A    between atoms: C_7  and  C_8
REMARK    2  A    between atoms: C_8  and  N_9
REMARK    3  A    between atoms: C_12  and  C_13
REMARK                            x       y       z     vdW  Elec       q    Type
REMARK                         _______ _______ _______ _____ _____    ______ ____
ROOT
ATOM      1  N   UNL     1       7.676   6.679  17.863  0.00  0.00    +0.000 N 
ATOM      2  N   UNL     1       6.854   7.304  16.999  0.00  0.00    +0.000 NA
ATOM      3  N   UNL     1       7.150   8.590  17.118  0.00  0.00    +0.000 NA
ATOM      4  C   UNL     1       8.136   8.689  18.072  0.00  0.00    +0.000 A 
ATOM      5  N   UNL     1       8.502   7.489  18.560  0.00  0.00    +0.000 NA
ENDROOT
BRANCH   4   6
ATOM      6  C   UNL     1       8.670   9.968  18.523  0.00  0.00    +0.000 A 
ATOM      7  C   UNL     1       9.361  10.053  19.757  0.00  0.00    +0.000 A 
ATOM      8  C   UNL     1       9.882  11.269  20.214  0.00  0.00    +0.000 A 
ATOM      9  C   UNL     1       9.689  12.382  19.428  0.00  0.00    +0.000 A 
ATOM     10  C   UNL     1       9.027  12.312  18.225  0.00  0.00    +0.000 A 
ATOM     11  C   UNL     1       8.516  11.124  17.741  0.00  0.00    +0.000 A 
ATOM     12  O   UNL     1       8.943  13.523  17.610  0.00  0.00    +0.000 OA
ATOM     13  C   UNL     1       9.567  14.371  18.598  0.00  0.00    +0.000 C 
ATOM     14  O   UNL     1      10.104  13.643  19.720  0.00  0.00    +0.000 OA
ENDBRANCH   4   6
BRANCH   1  15
ATOM     15  C   UNL     1       7.411   5.316  18.297  0.00  0.00    +0.000 C 
BRANCH  15  22
ATOM     16 BR   UNL     1       6.278   3.999  15.516  0.00  0.00    +0.000 Br
ATOM     17  C   UNL     1       5.316   4.412  17.102  0.00  0.00    +0.000 A 
ATOM     18  C   UNL     1       3.933   4.182  17.071  0.00  0.00    +0.000 A 
ATOM     19  C   UNL     1       3.207   4.468  18.205  0.00  0.00    +0.000 A 
ATOM     20  C   UNL     1       3.806   4.945  19.343  0.00  0.00    +0.000 A 
ATOM     21  C   UNL     1       5.163   5.186  19.403  0.00  0.00    +0.000 A 
ATOM     22  C   UNL     1       5.946   4.942  18.254  0.00  0.00    +0.000 A 
ATOM     23  O   UNL     1       2.916   5.158  20.347  0.00  0.00    +0.000 OA
ATOM     24  C   UNL     1       1.683   4.758  19.711  0.00  0.00    +0.000 C 
ATOM     25  O   UNL     1       1.861   4.327  18.344  0.00  0.00    +0.000 OA
ENDBRANCH  15  22
ENDBRANCH   1  15
TORSDOF 3
ENDMDL
MODEL 2
REMARK VINA RESULT:      -8.4      0.632      1.396
REMARK  Name = 
REMARK  3 active torsions:
REMARK  status: ('A' for Active; 'I' for Inactive)
REMARK    1  A    between atoms: C_7  and  C_8
REMARK    2  A    between atoms: C_8  and  N_9
REMARK    3  A    between atoms: C_12  and  C_13
REMARK                            x       y       z     vdW  Elec       q    Type
REMARK                         _______ _______ _______ _____ _____    ______ ____
ROOT
ATOM      1  N   UNL     1       7.560   6.632  17.827  0.00  0.00    +0.000 N 
ATOM      2  N   UNL     1       6.712   7.211  16.958  0.00  0.00    +0.000 NA
ATOM      3  N   UNL     1       6.994   8.504  17.018  0.00  0.00    +0.000 NA
ATOM      4  C   UNL     1       8.000   8.654  17.944  0.00  0.00    +0.000 A 
ATOM      5  N   UNL     1       8.392   7.480  18.471  0.00  0.00    +0.000 NA
ENDROOT
BRANCH   4   6
ATOM      6  C   UNL     1       8.527   9.957  18.329  0.00  0.00    +0.000 A 
ATOM      7  C   UNL     1       8.296  11.087  17.506  0.00  0.00    +0.000 A 
ATOM      8  C   UNL     1       8.793  12.349  17.851  0.00  0.00    +0.000 A 
ATOM      9  C   UNL     1       9.524  12.452  19.013  0.00  0.00    +0.000 A 
ATOM     10  C   UNL     1       9.749  11.365  19.824  0.00  0.00    +0.000 A 
ATOM     11  C   UNL     1       9.259  10.112  19.518  0.00  0.00    +0.000 A 
ATOM     12  O   UNL     1      10.495  11.682  20.917  0.00  0.00    +0.000 OA
ATOM     13  C   UNL     1      10.770  13.076  20.662  0.00  0.00    +0.000 C 
ATOM     14  O   UNL     1      10.099  13.586  19.492  0.00  0.00    +0.000 OA
ENDBRANCH   4   6
BRANCH   1  15
ATOM     15  C   UNL     1       7.323   5.285  18.323  0.00  0.00    +0.000 C 
BRANCH  15  22
ATOM     16 BR   UNL     1       6.184   3.926  15.565  0.00  0.00    +0.000 Br
ATOM     17  C   UNL     1       5.233   4.331  17.160  0.00  0.00    +0.000 A 
ATOM     18  C   UNL     1       3.854   4.073  17.148  0.00  0.00    +0.000 A 
ATOM     19  C   UNL     1       3.137   4.351  18.289  0.00  0.00    +0.000 A 
ATOM     20  C   UNL     1       3.740   4.848  19.416  0.00  0.00    +0.000 A 
ATOM     21  C   UNL     1       5.093   5.117  19.458  0.00  0.00    +0.000 A 
ATOM     22  C   UNL     1       5.866   4.881  18.301  0.00  0.00    +0.000 A 
ATOM     23  O   UNL     1       2.858   5.050  20.431  0.00  0.00    +0.000 OA
ATOM     24  C   UNL     1       1.626   4.621  19.812  0.00  0.00    +0.000 C 
ATOM     25  O   UNL     1       1.796   4.184  18.446  0.00  0.00    +0.000 OA
ENDBRANCH  15  22
ENDBRANCH   1  15
TORSDOF 3
ENDMDL
MODEL 3
REMARK VINA RESULT:      -8.4      5.359      6.662
REMARK  Name = 
REMARK  3 active torsions:
REMARK  status: ('A' for Active; 'I' for Inactive)
REMARK    1  A    between atoms: C_7  and  C_8
REMARK    2  A    between atoms: C_8  and  N_9
REMARK    3  A    between atoms: C_12  and  C_13
REMARK                            x       y       z     vdW  Elec       q    Type
REMARK                         _______ _______ _______ _____ _____    ______ ____
ROOT
ATOM      1  N   UNL     1       3.640   4.520  19.304  0.00  0.00    +0.000 N 
ATOM      2  N   UNL     1       2.833   4.345  20.366  0.00  0.00    +0.000 NA
ATOM      3  N   UNL     1       2.141   5.471  20.457  0.00  0.00    +0.000 NA
ATOM      4  C   UNL     1       2.577   6.294  19.445  0.00  0.00    +0.000 A 
ATOM      5  N   UNL     1       3.525   5.716  18.685  0.00  0.00    +0.000 NA
ENDROOT
BRANCH   4   6
ATOM      6  C   UNL     1       2.087   7.656  19.271  0.00  0.00    +0.000 A 
ATOM      7  C   UNL     1       2.236   8.309  18.023  0.00  0.00    +0.000 A 
ATOM      8  C   UNL     1       1.776   9.617  17.829  0.00  0.00    +0.000 A 
ATOM      9  C   UNL     1       1.185  10.250  18.898  0.00  0.00    +0.000 A 
ATOM     10  C   UNL     1       1.028   9.625  20.113  0.00  0.00    +0.000 A 
ATOM     11  C   UNL     1       1.457   8.332  20.329  0.00  0.00    +0.000 A 
ATOM     12  O   UNL     1       0.424  10.427  21.032  0.00  0.00    +0.000 OA
ATOM     13  C   UNL     1       0.285  11.649  20.276  0.00  0.00    +0.000 C 
ATOM     14  O   UNL     1       0.701  11.520  18.901  0.00  0.00    +0.000 OA
ENDBRANCH   4   6
BRANCH   1  15
ATOM     15  C   UNL     1       4.804   3.673  19.099  0.00  0.00    +0.000 C 
BRANCH  15  22
ATOM     16 BR   UNL     1       7.466   5.505  19.652  0.00  0.00    +0.000 Br
ATOM     17  C   UNL     1       6.779   4.896  17.988  0.00  0.00    +0.000 A 
ATOM     18  C   UNL     1       7.456   5.327  16.837  0.00  0.00    +0.000 A 
ATOM     19  C   UNL     1       6.986   4.900  15.616  0.00  0.00    +0.000 A 
ATOM     20  C   UNL     1       5.903   4.065  15.512  0.00  0.00    +0.000 A 
ATOM     21  C   UNL     1       5.213   3.628  16.625  0.00  0.00    +0.000 A 
ATOM     22  C   UNL     1       5.634   4.066  17.898  0.00  0.00    +0.000 A 
ATOM     23  O   UNL     1       5.604   3.760  14.222  0.00  0.00    +0.000 OA
ATOM     24  C   UNL     1       6.628   4.500  13.522  0.00  0.00    +0.000 C 
ATOM     25  O   UNL     1       7.504   5.235  14.404  0.00  0.00    +0.000 OA
ENDBRANCH  15  22
ENDBRANCH   1  15
TORSDOF 3
ENDMDL
MODEL 4
REMARK VINA RESULT:      -8.1      1.184      1.405
REMARK  Name = 
REMARK  3 active torsions:
REMARK  status: ('A' for Active; 'I' for Inactive)
REMARK    1  A    between atoms: C_7  and  C_8
REMARK    2  A    between atoms: C_8  and  N_9
REMARK    3  A    between atoms: C_12  and  C_13
REMARK                            x       y       z     vdW  Elec       q    Type
REMARK                         _______ _______ _______ _____ _____    ______ ____
ROOT
ATOM      1  N   UNL     1       6.995   7.535  17.470  0.00  0.00    +0.000 N 
ATOM      2  N   UNL     1       7.746   6.788  18.301  0.00  0.00    +0.000 NA
ATOM      3  N   UNL     1       8.586   7.646  18.863  0.00  0.00    +0.000 NA
ATOM      4  C   UNL     1       8.314   8.884  18.328  0.00  0.00    +0.000 A 
ATOM      5  N   UNL     1       7.299   8.851  17.446  0.00  0.00    +0.000 NA
ENDROOT
BRANCH   4   6
ATOM      6  C   UNL     1       9.089  10.073  18.661  0.00  0.00    +0.000 A 
ATOM      7  C   UNL     1       9.325  10.408  20.017  0.00  0.00    +0.000 A 
ATOM      8  C   UNL     1      10.064  11.545  20.364  0.00  0.00    +0.000 A 
ATOM      9  C   UNL     1      10.544  12.332  19.342  0.00  0.00    +0.000 A 
ATOM     10  C   UNL     1      10.327  12.014  18.022  0.00  0.00    +0.000 A 
ATOM     11  C   UNL     1       9.616  10.892  17.649  0.00  0.00    +0.000 A 
ATOM     12  O   UNL     1      10.881  12.922  17.174  0.00  0.00    +0.000 OA
ATOM     13  C   UNL     1      11.409  13.883  18.113  0.00  0.00    +0.000 C 
ATOM     14  O   UNL     1      11.259  13.478  19.489  0.00  0.00    +0.000 OA
ENDBRANCH   4   6
BRANCH   1  15
ATOM     15  C   UNL     1       6.216   6.919  16.408  0.00  0.00    +0.000 C 
BRANCH  15  22
ATOM     16 BR   UNL     1       6.226   3.975  14.965  0.00  0.00    +0.000 Br
ATOM     17  C   UNL     1       5.076   4.611  16.338  0.00  0.00    +0.000 A 
ATOM     18  C   UNL     1       4.060   3.738  16.756  0.00  0.00    +0.000 A 
ATOM     19  C   UNL     1       3.212   4.167  17.752  0.00  0.00    +0.000 A 
ATOM     20  C   UNL     1       3.355   5.399  18.339  0.00  0.00    +0.000 A 
ATOM     21  C   UNL     1       4.341   6.281  17.947  0.00  0.00    +0.000 A 
ATOM     22  C   UNL     1       5.214   5.902  16.904  0.00  0.00    +0.000 A 
ATOM     23  O   UNL     1       2.422   5.627  19.300  0.00  0.00    +0.000 OA
ATOM     24  C   UNL     1       1.672   4.393  19.252  0.00  0.00    +0.000 C 
ATOM     25  O   UNL     1       2.165   3.465  18.262  0.00  0.00    +0.000 OA
ENDBRANCH  15  22
ENDBRANCH   1  15
TORSDOF 3
ENDMDL
MODEL 5
REMARK VINA RESULT:      -8.0      5.328      6.658
REMARK  Name = 
REMARK  3 active torsions:
REMARK  status: ('A' for Active; 'I' for Inactive)
REMARK    1  A    between atoms: C_7  and  C_8
REMARK    2  A    between atoms: C_8  and  N_9
REMARK    3  A    between atoms: C_12  and  C_13
REMARK                            x       y       z     vdW  Elec       q    Type
REMARK                         _______ _______ _______ _____ _____    ______ ____
ROOT
ATOM      1  N   UNL     1       3.685   4.682  19.277  0.00  0.00    +0.000 N 
ATOM      2  N   UNL     1       2.630   4.114  19.889  0.00  0.00    +0.000 NA
ATOM      3  N   UNL     1       1.814   5.122  20.164  0.00  0.00    +0.000 NA
ATOM      4  C   UNL     1       2.427   6.269  19.716  0.00  0.00    +0.000 A 
ATOM      5  N   UNL     1       3.616   6.024  19.136  0.00  0.00    +0.000 NA
ENDROOT
BRANCH   4   6
ATOM      6  C   UNL     1       1.852   7.595  19.909  0.00  0.00    +0.000 A 
ATOM      7  C   UNL     1       1.275   7.942  21.154  0.00  0.00    +0.000 A 
ATOM      8  C   UNL     1       0.714   9.208  21.366  0.00  0.00    +0.000 A 
ATOM      9  C   UNL     1       0.734  10.098  20.317  0.00  0.00    +0.000 A 
ATOM     10  C   UNL     1       1.298   9.775  19.105  0.00  0.00    +0.000 A 
ATOM     11  C   UNL     1       1.871   8.542  18.872  0.00  0.00    +0.000 A 
ATOM     12  O   UNL     1       1.209  10.793  18.206  0.00  0.00    +0.000 OA
ATOM     13  C   UNL     1       0.463  11.764  18.970  0.00  0.00    +0.000 C 
ATOM     14  O   UNL     1       0.220  11.356  20.332  0.00  0.00    +0.000 OA
ENDBRANCH   4   6
BRANCH   1  15
ATOM     15  C   UNL     1       4.950   3.974  19.152  0.00  0.00    +0.000 C 
BRANCH  15  22
ATOM     16 BR   UNL     1       7.698   5.746  19.390  0.00  0.00    +0.000 Br
ATOM     17  C   UNL     1       6.860   5.075  17.821  0.00  0.00    +0.000 A 
ATOM     18  C   UNL     1       7.452   5.424  16.598  0.00  0.00    +0.000 A 
ATOM     19  C   UNL     1       6.872   4.951  15.444  0.00  0.00    +0.000 A 
ATOM     20  C   UNL     1       5.760   4.147  15.472  0.00  0.00    +0.000 A 
ATOM     21  C   UNL     1       5.152   3.789  16.659  0.00  0.00    +0.000 A 
ATOM     22  C   UNL     1       5.689   4.279  17.869  0.00  0.00    +0.000 A 
ATOM     23  O   UNL     1       5.348   3.786  14.229  0.00  0.00    +0.000 OA
ATOM     24  C   UNL     1       6.331   4.456  13.410  0.00  0.00    +0.000 C 
ATOM     25  O   UNL     1       7.296   5.206  14.177  0.00  0.00    +0.000 OA
ENDBRANCH  15  22
ENDBRANCH   1  15
TORSDOF 3
ENDMDL
MODEL 6
REMARK VINA RESULT:      -8.0      1.757      2.538
REMARK  Name = 
REMARK  3 active torsions:
REMARK  status: ('A' for Active; 'I' for Inactive)
REMARK    1  A    between atoms: C_7  and  C_8
REMARK    2  A    between atoms: C_8  and  N_9
REMARK    3  A    between atoms: C_12  and  C_13
REMARK                            x       y       z     vdW  Elec       q    Type
REMARK                         _______ _______ _______ _____ _____    ______ ____
ROOT
ATOM      1  N   UNL     1       6.559   7.087  17.336  0.00  0.00    +0.000 N 
ATOM      2  N   UNL     1       7.490   6.417  18.041  0.00  0.00    +0.000 NA
ATOM      3  N   UNL     1       8.305   7.354  18.504  0.00  0.00    +0.000 NA
ATOM      4  C   UNL     1       7.836   8.561  18.039  0.00  0.00    +0.000 A 
ATOM      5  N   UNL     1       6.719   8.428  17.300  0.00  0.00    +0.000 NA
ENDROOT
BRANCH   4   6
ATOM      6  C   UNL     1       8.522   9.822  18.290  0.00  0.00    +0.000 A 
ATOM      7  C   UNL     1       8.213  10.964  17.512  0.00  0.00    +0.000 A 
ATOM      8  C   UNL     1       8.858  12.187  17.731  0.00  0.00    +0.000 A 
ATOM      9  C   UNL     1       9.812  12.237  18.721  0.00  0.00    +0.000 A 
ATOM     10  C   UNL     1      10.116  11.137  19.488  0.00  0.00    +0.000 A 
ATOM     11  C   UNL     1       9.486   9.923  19.306  0.00  0.00    +0.000 A 
ATOM     12  O   UNL     1      11.086  11.400  20.406  0.00  0.00    +0.000 OA
ATOM     13  C   UNL     1      11.405  12.770  20.079  0.00  0.00    +0.000 C 
ATOM     14  O   UNL     1      10.551  13.327  19.059  0.00  0.00    +0.000 OA
ENDBRANCH   4   6
BRANCH   1  15
ATOM     15  C   UNL     1       5.710   6.401  16.375  0.00  0.00    +0.000 C 
BRANCH  15  22
ATOM     16 BR   UNL     1       3.142   7.973  17.672  0.00  0.00    +0.000 Br
ATOM     17  C   UNL     1       3.496   6.106  17.657  0.00  0.00    +0.000 A 
ATOM     18  C   UNL     1       2.577   5.290  18.334  0.00  0.00    +0.000 A 
ATOM     19  C   UNL     1       2.803   3.932  18.337  0.00  0.00    +0.000 A 
ATOM     20  C   UNL     1       3.877   3.378  17.689  0.00  0.00    +0.000 A 
ATOM     21  C   UNL     1       4.801   4.154  17.019  0.00  0.00    +0.000 A 
ATOM     22  C   UNL     1       4.633   5.555  17.015  0.00  0.00    +0.000 A 
ATOM     23  O   UNL     1       3.916   2.025  17.811  0.00  0.00    +0.000 OA
ATOM     24  C   UNL     1       2.738   1.789  18.613  0.00  0.00    +0.000 C 
ATOM     25  O   UNL     1       2.032   2.999  18.958  0.00  0.00    +0.000 OA
ENDBRANCH  15  22
ENDBRANCH   1  15
TORSDOF 3
ENDMDL
MODEL 7
REMARK VINA RESULT:      -8.0      1.095      1.807
REMARK  Name = 
REMARK  3 active torsions:
REMARK  status: ('A' for Active; 'I' for Inactive)
REMARK    1  A    between atoms: C_7  and  C_8
REMARK    2  A    between atoms: C_8  and  N_9
REMARK    3  A    between atoms: C_12  and  C_13
REMARK                            x       y       z     vdW  Elec       q    Type
REMARK                         _______ _______ _______ _____ _____    ______ ____
ROOT
ATOM      1  N   UNL     1       6.852   7.428  17.383  0.00  0.00    +0.000 N 
ATOM      2  N   UNL     1       7.738   6.805  18.182  0.00  0.00    +0.000 NA
ATOM      3  N   UNL     1       8.513   7.774  18.650  0.00  0.00    +0.000 NA
ATOM      4  C   UNL     1       8.066   8.950  18.094  0.00  0.00    +0.000 A 
ATOM      5  N   UNL     1       7.002   8.768  17.290  0.00  0.00    +0.000 NA
ENDROOT
BRANCH   4   6
ATOM      6  C   UNL     1       8.723  10.230  18.326  0.00  0.00    +0.000 A 
ATOM      7  C   UNL     1       8.357  11.364  17.561  0.00  0.00    +0.000 A 
ATOM      8  C   UNL     1       8.974  12.605  17.762  0.00  0.00    +0.000 A 
ATOM      9  C   UNL     1       9.956  12.681  18.722  0.00  0.00    +0.000 A 
ATOM     10  C   UNL     1      10.316  11.589  19.477  0.00  0.00    +0.000 A 
ATOM     11  C   UNL     1       9.715  10.358  19.312  0.00  0.00    +0.000 A 
ATOM     12  O   UNL     1      11.306  11.879  20.364  0.00  0.00    +0.000 OA
ATOM     13  C   UNL     1      11.575  13.257  20.031  0.00  0.00    +0.000 C 
ATOM     14  O   UNL     1      10.674  13.791  19.039  0.00  0.00    +0.000 OA
ENDBRANCH   4   6
BRANCH   1  15
ATOM     15  C   UNL     1       6.075   6.685  16.403  0.00  0.00    +0.000 C 
BRANCH  15  22
ATOM     16 BR   UNL     1       5.895   3.670  15.127  0.00  0.00    +0.000 Br
ATOM     17  C   UNL     1       4.861   4.418  16.535  0.00  0.00    +0.000 A 
ATOM     18  C   UNL     1       3.848   3.605  17.066  0.00  0.00    +0.000 A 
ATOM     19  C   UNL     1       3.083   4.116  18.091  0.00  0.00    +0.000 A 
ATOM     20  C   UNL     1       3.304   5.371  18.598  0.00  0.00    +0.000 A 
ATOM     21  C   UNL     1       4.288   6.196  18.094  0.00  0.00    +0.000 A 
ATOM     22  C   UNL     1       5.077   5.732  17.020  0.00  0.00    +0.000 A 
ATOM     23  O   UNL     1       2.445   5.682  19.604  0.00  0.00    +0.000 OA
ATOM     24  C   UNL     1       1.655   4.475  19.673  0.00  0.00    +0.000 C 
ATOM     25  O   UNL     1       2.051   3.479  18.706  0.00  0.00    +0.000 OA
ENDBRANCH  15  22
ENDBRANCH   1  15
TORSDOF 3
ENDMDL
MODEL 8
REMARK VINA RESULT:      -7.9      5.512      7.490
REMARK  Name = 
REMARK  3 active torsions:
REMARK  status: ('A' for Active; 'I' for Inactive)
REMARK    1  A    between atoms: C_7  and  C_8
REMARK    2  A    between atoms: C_8  and  N_9
REMARK    3  A    between atoms: C_12  and  C_13
REMARK                            x       y       z     vdW  Elec       q    Type
REMARK                         _______ _______ _______ _____ _____    ______ ____
ROOT
ATOM      1  N   UNL     1       2.577   7.313  19.203  0.00  0.00    +0.000 N 
ATOM      2  N   UNL     1       2.322   7.745  17.954  0.00  0.00    +0.000 NA
ATOM      3  N   UNL     1       1.503   8.776  18.112  0.00  0.00    +0.000 NA
ATOM      4  C   UNL     1       1.283   8.911  19.463  0.00  0.00    +0.000 A 
ATOM      5  N   UNL     1       1.961   8.003  20.188  0.00  0.00    +0.000 NA
ENDROOT
BRANCH   4   6
ATOM      6  C   UNL     1       0.372   9.905  20.017  0.00  0.00    +0.000 A 
ATOM      7  C   UNL     1      -0.561  10.558  19.174  0.00  0.00    +0.000 A 
ATOM      8  C   UNL     1      -1.446  11.519  19.678  0.00  0.00    +0.000 A 
ATOM      9  C   UNL     1      -1.371  11.813  21.020  0.00  0.00    +0.000 A 
ATOM     10  C   UNL     1      -0.475  11.181  21.851  0.00  0.00    +0.000 A 
ATOM     11  C   UNL     1       0.399  10.220  21.385  0.00  0.00    +0.000 A 
ATOM     12  O   UNL     1      -0.563  11.620  23.135  0.00  0.00    +0.000 OA
ATOM     13  C   UNL     1      -1.566  12.650  23.002  0.00  0.00    +0.000 C 
ATOM     14  O   UNL     1      -2.132  12.728  21.677  0.00  0.00    +0.000 OA
ENDBRANCH   4   6
BRANCH   1  15
ATOM     15  C   UNL     1       3.130   5.989  19.439  0.00  0.00    +0.000 C 
BRANCH  15  22
ATOM     16 BR   UNL     1       1.804   3.292  18.128  0.00  0.00    +0.000 Br
ATOM     17  C   UNL     1       3.383   4.208  17.597  0.00  0.00    +0.000 A 
ATOM     18  C   UNL     1       4.115   3.633  16.547  0.00  0.00    +0.000 A 
ATOM     19  C   UNL     1       5.261   4.274  16.136  0.00  0.00    +0.000 A 
ATOM     20  C   UNL     1       5.678   5.447  16.712  0.00  0.00    +0.000 A 
ATOM     21  C   UNL     1       4.983   6.034  17.749  0.00  0.00    +0.000 A 
ATOM     22  C   UNL     1       3.819   5.397  18.231  0.00  0.00    +0.000 A 
ATOM     23  O   UNL     1       6.827   5.917  16.160  0.00  0.00    +0.000 OA
ATOM     24  C   UNL     1       7.088   4.903  15.166  0.00  0.00    +0.000 C 
ATOM     25  O   UNL     1       6.100   3.850  15.153  0.00  0.00    +0.000 OA
ENDBRANCH  15  22
ENDBRANCH   1  15
TORSDOF 3
ENDMDL
MODEL 9
REMARK VINA RESULT:      -7.9      5.663      8.695
REMARK  Name = 
REMARK  3 active torsions:
REMARK  status: ('A' for Active; 'I' for Inactive)
REMARK    1  A    between atoms: C_7  and  C_8
REMARK    2  A    between atoms: C_8  and  N_9
REMARK    3  A    between atoms: C_12  and  C_13
REMARK                            x       y       z     vdW  Elec       q    Type
REMARK                         _______ _______ _______ _____ _____    ______ ____
ROOT
ATOM      1  N   UNL     1       1.661   8.866  18.990  0.00  0.00    +0.000 N 
ATOM      2  N   UNL     1       1.666   8.066  20.072  0.00  0.00    +0.000 NA
ATOM      3  N   UNL     1       2.418   7.030  19.726  0.00  0.00    +0.000 NA
ATOM      4  C   UNL     1       2.823   7.244  18.429  0.00  0.00    +0.000 A 
ATOM      5  N   UNL     1       2.368   8.409  17.933  0.00  0.00    +0.000 NA
ENDROOT
BRANCH   4   6
ATOM      6  C   UNL     1       3.616   6.275  17.682  0.00  0.00    +0.000 A 
ATOM      7  C   UNL     1       3.256   4.905  17.696  0.00  0.00    +0.000 A 
ATOM      8  C   UNL     1       4.001   3.953  16.989  0.00  0.00    +0.000 A 
ATOM      9  C   UNL     1       5.101   4.393  16.290  0.00  0.00    +0.000 A 
ATOM     10  C   UNL     1       5.456   5.722  16.263  0.00  0.00    +0.000 A 
ATOM     11  C   UNL     1       4.733   6.684  16.937  0.00  0.00    +0.000 A 
ATOM     12  O   UNL     1       6.574   5.942  15.519  0.00  0.00    +0.000 OA
ATOM     13  C   UNL     1       6.918   4.592  15.141  0.00  0.00    +0.000 C 
ATOM     14  O   UNL     1       5.949   3.614  15.569  0.00  0.00    +0.000 OA
ENDBRANCH   4   6
BRANCH   1  15
ATOM     15  C   UNL     1       0.661   9.910  18.835  0.00  0.00    +0.000 C 
BRANCH  15  22
ATOM     16 BR   UNL     1      -0.395  10.956  21.758  0.00  0.00    +0.000 Br
ATOM     17  C   UNL     1       0.714  11.865  20.511  0.00  0.00    +0.000 A 
ATOM     18  C   UNL     1       1.088  13.175  20.847  0.00  0.00    +0.000 A 
ATOM     19  C   UNL     1       1.895  13.859  19.967  0.00  0.00    +0.000 A 
ATOM     20  C   UNL     1       2.341  13.287  18.803  0.00  0.00    +0.000 A 
ATOM     21  C   UNL     1       1.987  12.003  18.442  0.00  0.00    +0.000 A 
ATOM     22  C   UNL     1       1.132  11.271  19.295  0.00  0.00    +0.000 A 
ATOM     23  O   UNL     1       3.126  14.127  18.078  0.00  0.00    +0.000 OA
ATOM     24  C   UNL     1       3.124  15.299  18.922  0.00  0.00    +0.000 C 
ATOM     25  O   UNL     1       2.335  15.137  20.120  0.00  0.00    +0.000 OA
ENDBRANCH  15  22
ENDBRANCH   1  15
TORSDOF 3
ENDMDL
