MODEL 1
REMARK VINA RESULT:      -8.0      0.000      0.000
REMARK  Name = 
REMARK  4 active torsions:
REMARK  status: ('A' for Active; 'I' for Inactive)
REMARK    1  A    between atoms: S_2  and  C_4
REMARK    2  A    between atoms: S_2  and  N_9
REMARK    3  A    between atoms: N_12  and  C_13
REMARK    4  A    between atoms: C_17  and  C_18
REMARK                            x       y       z     vdW  Elec       q    Type
REMARK                         _______ _______ _______ _____ _____    ______ ____
ROOT
ATOM      1  N   UNL     1       3.067   4.578  18.813  0.00  0.00    +0.000 NA
ATOM      2  C   UNL     1       2.265   4.562  20.074  0.00  0.00    +0.000 C 
ATOM      3  C   UNL     1       2.367   5.887  20.858  0.00  0.00    +0.000 C 
ATOM      4  N   UNL     1       2.033   7.045  19.996  0.00  0.00    +0.000 N 
ATOM      5  C   UNL     1       2.819   7.082  18.735  0.00  0.00    +0.000 C 
ATOM      6  C   UNL     1       2.685   5.754  17.969  0.00  0.00    +0.000 C 
ENDROOT
BRANCH   4   7
ATOM      7  C   UNL     1       1.360   8.168  20.477  0.00  0.00    +0.000 A 
ATOM      8  C   UNL     1       1.072   9.325  19.545  0.00  0.00    +0.000 A 
ATOM      9  N   UNL     1       0.522  10.463  19.836  0.00  0.00    +0.000 NA
ATOM     10  N   UNL     1       0.187  10.547  21.155  0.00  0.00    +0.000 N 
ATOM     11  C   UNL     1      -0.372  11.617  21.809  0.00  0.00    +0.000 A 
ATOM     12  N   UNL     1      -0.515  11.331  23.087  0.00  0.00    +0.000 NA
ATOM     13  N   UNL     1      -0.062  10.042  23.286  0.00  0.00    +0.000 NA
ATOM     14  C   UNL     1       0.354   9.582  22.124  0.00  0.00    +0.000 A 
ATOM     15  C   UNL     1       0.942   8.358  21.741  0.00  0.00    +0.000 A 
BRANCH  11  16
ATOM     16  C   UNL     1      -0.758  12.931  21.150  0.00  0.00    +0.000 C 
ATOM     17  C   UNL     1      -2.092  13.015  20.437  0.00  0.00    +0.000 C 
ATOM     18  C   UNL     1      -1.910  13.716  21.740  0.00  0.00    +0.000 C 
ENDBRANCH  11  16
ENDBRANCH   4   7
BRANCH   1  20
ATOM     19  O   UNL     1       4.945   2.970  19.467  0.00  0.00    +0.000 OA
ATOM     20  S   UNL     1       4.740   4.317  18.982  0.00  0.00    +0.000 S 
ATOM     21  O   UNL     1       5.312   5.453  19.674  0.00  0.00    +0.000 OA
BRANCH  20  22
ATOM     22  C   UNL     1       5.476   4.327  17.360  0.00  0.00    +0.000 A 
ATOM     23  C   UNL     1       4.984   3.985  16.113  0.00  0.00    +0.000 A 
ATOM     24  C   UNL     1       5.977   4.074  15.095  0.00  0.00    +0.000 A 
ATOM     25  C   UNL     1       7.187   4.504  15.594  0.00  0.00    +0.000 A 
ATOM     26  S   UNL     1       7.110   4.831  17.273  0.00  0.00    +0.000 S 
ENDBRANCH  20  22
ENDBRANCH   1  20
TORSDOF 4
ENDMDL
MODEL 2
REMARK VINA RESULT:      -7.4      0.887      1.589
REMARK  Name = 
REMARK  4 active torsions:
REMARK  status: ('A' for Active; 'I' for Inactive)
REMARK    1  A    between atoms: S_2  and  C_4
REMARK    2  A    between atoms: S_2  and  N_9
REMARK    3  A    between atoms: N_12  and  C_13
REMARK    4  A    between atoms: C_17  and  C_18
REMARK                            x       y       z     vdW  Elec       q    Type
REMARK                         _______ _______ _______ _____ _____    ______ ____
ROOT
ATOM      1  N   UNL     1       3.046   4.640  18.730  0.00  0.00    +0.000 NA
ATOM      2  C   UNL     1       2.214   4.671  19.972  0.00  0.00    +0.000 C 
ATOM      3  C   UNL     1       2.334   6.009  20.731  0.00  0.00    +0.000 C 
ATOM      4  N   UNL     1       2.051   7.157  19.838  0.00  0.00    +0.000 N 
ATOM      5  C   UNL     1       2.867   7.147  18.596  0.00  0.00    +0.000 C 
ATOM      6  C   UNL     1       2.715   5.808  17.854  0.00  0.00    +0.000 C 
ENDROOT
BRANCH   4   7
ATOM      7  C   UNL     1       1.397   8.308  20.280  0.00  0.00    +0.000 A 
ATOM      8  C   UNL     1       1.016   8.439  21.738  0.00  0.00    +0.000 A 
ATOM      9  N   UNL     1       0.352   9.399  22.303  0.00  0.00    +0.000 NA
ATOM     10  N   UNL     1      -0.005  10.369  21.413  0.00  0.00    +0.000 N 
ATOM     11  C   UNL     1      -0.743  11.499  21.658  0.00  0.00    +0.000 A 
ATOM     12  N   UNL     1      -0.910  12.173  20.539  0.00  0.00    +0.000 NA
ATOM     13  N   UNL     1      -0.255  11.491  19.533  0.00  0.00    +0.000 NA
ATOM     14  C   UNL     1       0.284  10.415  20.066  0.00  0.00    +0.000 A 
ATOM     15  C   UNL     1       1.026   9.349  19.513  0.00  0.00    +0.000 A 
BRANCH  11  16
ATOM     16  C   UNL     1      -1.287  11.901  23.019  0.00  0.00    +0.000 C 
ATOM     17  C   UNL     1      -1.618  13.358  23.263  0.00  0.00    +0.000 C 
ATOM     18  C   UNL     1      -2.724  12.370  23.107  0.00  0.00    +0.000 C 
ENDBRANCH  11  16
ENDBRANCH   4   7
BRANCH   1  20
ATOM     19  O   UNL     1       4.867   2.982  19.420  0.00  0.00    +0.000 OA
ATOM     20  S   UNL     1       4.707   4.339  18.945  0.00  0.00    +0.000 S 
ATOM     21  O   UNL     1       5.284   5.453  19.666  0.00  0.00    +0.000 OA
BRANCH  20  22
ATOM     22  C   UNL     1       5.490   4.349  17.345  0.00  0.00    +0.000 A 
ATOM     23  C   UNL     1       5.136   3.785  16.133  0.00  0.00    +0.000 A 
ATOM     24  C   UNL     1       6.128   3.989  15.129  0.00  0.00    +0.000 A 
ATOM     25  C   UNL     1       7.194   4.723  15.603  0.00  0.00    +0.000 A 
ATOM     26  S   UNL     1       6.977   5.190  17.236  0.00  0.00    +0.000 S 
ENDBRANCH  20  22
ENDBRANCH   1  20
TORSDOF 4
ENDMDL
MODEL 3
REMARK VINA RESULT:      -7.3      0.766      1.064
REMARK  Name = 
REMARK  4 active torsions:
REMARK  status: ('A' for Active; 'I' for Inactive)
REMARK    1  A    between atoms: S_2  and  C_4
REMARK    2  A    between atoms: S_2  and  N_9
REMARK    3  A    between atoms: N_12  and  C_13
REMARK    4  A    between atoms: C_17  and  C_18
REMARK                            x       y       z     vdW  Elec       q    Type
REMARK                         _______ _______ _______ _____ _____    ______ ____
ROOT
ATOM      1  N   UNL     1       3.247   4.785  18.523  0.00  0.00    +0.000 NA
ATOM      2  C   UNL     1       2.277   4.630  19.649  0.00  0.00    +0.000 C 
ATOM      3  C   UNL     1       2.304   5.825  20.624  0.00  0.00    +0.000 C 
ATOM      4  N   UNL     1       2.123   7.107  19.902  0.00  0.00    +0.000 N 
ATOM      5  C   UNL     1       3.077   7.285  18.777  0.00  0.00    +0.000 C 
ATOM      6  C   UNL     1       3.016   6.085  17.815  0.00  0.00    +0.000 C 
ENDROOT
BRANCH   4   7
ATOM      7  C   UNL     1       1.419   8.181  20.447  0.00  0.00    +0.000 A 
ATOM      8  C   UNL     1       1.067   9.366  19.574  0.00  0.00    +0.000 A 
ATOM      9  N   UNL     1       0.482  10.468  19.927  0.00  0.00    +0.000 NA
ATOM     10  N   UNL     1       0.173  10.481  21.255  0.00  0.00    +0.000 N 
ATOM     11  C   UNL     1      -0.411  11.499  21.968  0.00  0.00    +0.000 A 
ATOM     12  N   UNL     1      -0.514  11.151  23.234  0.00  0.00    +0.000 NA
ATOM     13  N   UNL     1      -0.009   9.873  23.366  0.00  0.00    +0.000 NA
ATOM     14  C   UNL     1       0.397   9.481  22.177  0.00  0.00    +0.000 A 
ATOM     15  C   UNL     1       1.023   8.298  21.727  0.00  0.00    +0.000 A 
BRANCH  11  16
ATOM     16  C   UNL     1      -0.861  12.824  21.377  0.00  0.00    +0.000 C 
ATOM     17  C   UNL     1      -0.720  14.075  22.219  0.00  0.00    +0.000 C 
ATOM     18  C   UNL     1       0.195  13.863  21.062  0.00  0.00    +0.000 C 
ENDBRANCH  11  16
ENDBRANCH   4   7
BRANCH   1  20
ATOM     19  O   UNL     1       4.948   3.057  19.334  0.00  0.00    +0.000 OA
ATOM     20  S   UNL     1       4.872   4.427  18.875  0.00  0.00    +0.000 S 
ATOM     21  O   UNL     1       5.418   5.510  19.666  0.00  0.00    +0.000 OA
BRANCH  20  22
ATOM     22  C   UNL     1       5.793   4.441  17.350  0.00  0.00    +0.000 A 
ATOM     23  C   UNL     1       7.036   4.949  17.018  0.00  0.00    +0.000 A 
ATOM     24  C   UNL     1       7.331   4.800  15.632  0.00  0.00    +0.000 A 
ATOM     25  C   UNL     1       6.314   4.161  14.957  0.00  0.00    +0.000 A 
ATOM     26  S   UNL     1       5.031   3.716  15.999  0.00  0.00    +0.000 S 
ENDBRANCH  20  22
ENDBRANCH   1  20
TORSDOF 4
ENDMDL
MODEL 4
REMARK VINA RESULT:      -7.2      4.063      9.339
REMARK  Name = 
REMARK  4 active torsions:
REMARK  status: ('A' for Active; 'I' for Inactive)
REMARK    1  A    between atoms: S_2  and  C_4
REMARK    2  A    between atoms: S_2  and  N_9
REMARK    3  A    between atoms: N_12  and  C_13
REMARK    4  A    between atoms: C_17  and  C_18
REMARK                            x       y       z     vdW  Elec       q    Type
REMARK                         _______ _______ _______ _____ _____    ______ ____
ROOT
ATOM      1  N   UNL     1      -0.691  10.266  19.960  0.00  0.00    +0.000 NA
ATOM      2  C   UNL     1      -0.226  10.099  18.549  0.00  0.00    +0.000 C 
ATOM      3  C   UNL     1       1.271   9.736  18.458  0.00  0.00    +0.000 C 
ATOM      4  N   UNL     1       1.585   8.554  19.295  0.00  0.00    +0.000 N 
ATOM      5  C   UNL     1       1.132   8.697  20.703  0.00  0.00    +0.000 C 
ATOM      6  C   UNL     1      -0.366   9.044  20.762  0.00  0.00    +0.000 C 
ENDROOT
BRANCH   4   7
ATOM      7  C   UNL     1       2.530   7.599  18.920  0.00  0.00    +0.000 A 
ATOM      8  C   UNL     1       3.403   7.845  17.709  0.00  0.00    +0.000 A 
ATOM      9  N   UNL     1       4.277   7.044  17.183  0.00  0.00    +0.000 NA
ATOM     10  N   UNL     1       4.366   5.865  17.862  0.00  0.00    +0.000 N 
ATOM     11  C   UNL     1       5.155   4.783  17.560  0.00  0.00    +0.000 A 
ATOM     12  N   UNL     1       4.937   3.818  18.430  0.00  0.00    +0.000 NA
ATOM     13  N   UNL     1       4.002   4.270  19.339  0.00  0.00    +0.000 NA
ATOM     14  C   UNL     1       3.669   5.495  18.992  0.00  0.00    +0.000 A 
ATOM     15  C   UNL     1       2.744   6.418  19.527  0.00  0.00    +0.000 A 
BRANCH  11  16
ATOM     16  C   UNL     1       6.125   4.716  16.392  0.00  0.00    +0.000 C 
ATOM     17  C   UNL     1       5.898   3.666  15.325  0.00  0.00    +0.000 C 
ATOM     18  C   UNL     1       5.618   5.098  15.017  0.00  0.00    +0.000 C 
ENDBRANCH  11  16
ENDBRANCH   4   7
BRANCH   1  20
ATOM     19  O   UNL     1      -0.310  12.781  19.693  0.00  0.00    +0.000 OA
ATOM     20  S   UNL     1      -0.313  11.748  20.706  0.00  0.00    +0.000 S 
ATOM     21  O   UNL     1       0.833  11.547  21.568  0.00  0.00    +0.000 OA
BRANCH  20  22
ATOM     22  C   UNL     1      -1.655  12.187  21.792  0.00  0.00    +0.000 A 
ATOM     23  C   UNL     1      -1.933  11.860  23.107  0.00  0.00    +0.000 A 
ATOM     24  C   UNL     1      -3.185  12.382  23.544  0.00  0.00    +0.000 A 
ATOM     25  C   UNL     1      -3.809  13.113  22.555  0.00  0.00    +0.000 A 
ATOM     26  S   UNL     1      -2.870  13.193  21.126  0.00  0.00    +0.000 S 
ENDBRANCH  20  22
ENDBRANCH   1  20
TORSDOF 4
ENDMDL
MODEL 5
REMARK VINA RESULT:      -7.2      1.531      1.731
REMARK  Name = 
REMARK  4 active torsions:
REMARK  status: ('A' for Active; 'I' for Inactive)
REMARK    1  A    between atoms: S_2  and  C_4
REMARK    2  A    between atoms: S_2  and  N_9
REMARK    3  A    between atoms: N_12  and  C_13
REMARK    4  A    between atoms: C_17  and  C_18
REMARK                            x       y       z     vdW  Elec       q    Type
REMARK                         _______ _______ _______ _____ _____    ______ ____
ROOT
ATOM      1  N   UNL     1       2.135   3.541  18.890  0.00  0.00    +0.000 NA
ATOM      2  C   UNL     1       1.594   4.047  20.188  0.00  0.00    +0.000 C 
ATOM      3  C   UNL     1       2.138   5.444  20.553  0.00  0.00    +0.000 C 
ATOM      4  N   UNL     1       1.926   6.405  19.446  0.00  0.00    +0.000 N 
ATOM      5  C   UNL     1       2.456   5.924  18.143  0.00  0.00    +0.000 C 
ATOM      6  C   UNL     1       1.885   4.537  17.800  0.00  0.00    +0.000 C 
ENDROOT
BRANCH   4   7
ATOM      7  C   UNL     1       1.626   7.750  19.667  0.00  0.00    +0.000 A 
ATOM      8  C   UNL     1       1.717   8.735  18.523  0.00  0.00    +0.000 A 
ATOM      9  N   UNL     1       1.541  10.019  18.563  0.00  0.00    +0.000 NA
ATOM     10  N   UNL     1       1.237  10.455  19.819  0.00  0.00    +0.000 N 
ATOM     11  C   UNL     1       1.028  11.749  20.228  0.00  0.00    +0.000 A 
ATOM     12  N   UNL     1       0.792  11.773  21.523  0.00  0.00    +0.000 NA
ATOM     13  N   UNL     1       0.824  10.472  21.984  0.00  0.00    +0.000 NA
ATOM     14  C   UNL     1       1.089   9.692  20.957  0.00  0.00    +0.000 A 
ATOM     15  C   UNL     1       1.276   8.297  20.844  0.00  0.00    +0.000 A 
BRANCH  11  16
ATOM     16  C   UNL     1       1.070  12.964  19.316  0.00  0.00    +0.000 C 
ATOM     17  C   UNL     1      -0.148  13.275  18.471  0.00  0.00    +0.000 C 
ATOM     18  C   UNL     1       0.172  14.137  19.644  0.00  0.00    +0.000 C 
ENDBRANCH  11  16
ENDBRANCH   4   7
BRANCH   1  20
ATOM     19  O   UNL     1       3.667   1.566  18.350  0.00  0.00    +0.000 OA
ATOM     20  S   UNL     1       3.706   2.889  18.933  0.00  0.00    +0.000 S 
ATOM     21  O   UNL     1       4.255   3.105  20.255  0.00  0.00    +0.000 OA
BRANCH  20  22
ATOM     22  C   UNL     1       4.736   3.835  17.830  0.00  0.00    +0.000 A 
ATOM     23  C   UNL     1       4.853   3.852  16.452  0.00  0.00    +0.000 A 
ATOM     24  C   UNL     1       5.887   4.726  16.005  0.00  0.00    +0.000 A 
ATOM     25  C   UNL     1       6.508   5.365  17.056  0.00  0.00    +0.000 A 
ATOM     26  S   UNL     1       5.821   4.937  18.565  0.00  0.00    +0.000 S 
ENDBRANCH  20  22
ENDBRANCH   1  20
TORSDOF 4
ENDMDL
MODEL 6
REMARK VINA RESULT:      -7.0      1.915      2.377
REMARK  Name = 
REMARK  4 active torsions:
REMARK  status: ('A' for Active; 'I' for Inactive)
REMARK    1  A    between atoms: S_2  and  C_4
REMARK    2  A    between atoms: S_2  and  N_9
REMARK    3  A    between atoms: N_12  and  C_13
REMARK    4  A    between atoms: C_17  and  C_18
REMARK                            x       y       z     vdW  Elec       q    Type
REMARK                         _______ _______ _______ _____ _____    ______ ____
ROOT
ATOM      1  N   UNL     1       2.146   3.411  19.035  0.00  0.00    +0.000 NA
ATOM      2  C   UNL     1       1.688   3.973  20.342  0.00  0.00    +0.000 C 
ATOM      3  C   UNL     1       2.252   5.384  20.611  0.00  0.00    +0.000 C 
ATOM      4  N   UNL     1       1.969   6.297  19.478  0.00  0.00    +0.000 N 
ATOM      5  C   UNL     1       2.415   5.759  18.167  0.00  0.00    +0.000 C 
ATOM      6  C   UNL     1       1.825   4.359  17.921  0.00  0.00    +0.000 C 
ENDROOT
BRANCH   4   7
ATOM      7  C   UNL     1       1.682   7.650  19.659  0.00  0.00    +0.000 A 
ATOM      8  C   UNL     1       1.793   8.602  18.489  0.00  0.00    +0.000 A 
ATOM      9  N   UNL     1       1.631   9.889  18.493  0.00  0.00    +0.000 NA
ATOM     10  N   UNL     1       1.321  10.363  19.733  0.00  0.00    +0.000 N 
ATOM     11  C   UNL     1       1.123  11.670  20.104  0.00  0.00    +0.000 A 
ATOM     12  N   UNL     1       0.877  11.732  21.397  0.00  0.00    +0.000 NA
ATOM     13  N   UNL     1       0.891  10.444  21.893  0.00  0.00    +0.000 NA
ATOM     14  C   UNL     1       1.155   9.633  20.890  0.00  0.00    +0.000 A 
ATOM     15  C   UNL     1       1.328   8.234  20.818  0.00  0.00    +0.000 A 
BRANCH  11  16
ATOM     16  C   UNL     1       1.187  12.858  19.159  0.00  0.00    +0.000 C 
ATOM     17  C   UNL     1       2.214  13.938  19.427  0.00  0.00    +0.000 C 
ATOM     18  C   UNL     1       2.409  13.008  18.278  0.00  0.00    +0.000 C 
ENDBRANCH  11  16
ENDBRANCH   4   7
BRANCH   1  20
ATOM     19  O   UNL     1       3.766   1.733  17.988  0.00  0.00    +0.000 OA
ATOM     20  S   UNL     1       3.717   2.759  19.006  0.00  0.00    +0.000 S 
ATOM     21  O   UNL     1       4.120   2.477  20.367  0.00  0.00    +0.000 OA
BRANCH  20  22
ATOM     22  C   UNL     1       4.836   4.019  18.428  0.00  0.00    +0.000 A 
ATOM     23  C   UNL     1       5.507   5.037  19.080  0.00  0.00    +0.000 A 
ATOM     24  C   UNL     1       6.239   5.868  18.183  0.00  0.00    +0.000 A 
ATOM     25  C   UNL     1       6.123   5.439  16.878  0.00  0.00    +0.000 A 
ATOM     26  S   UNL     1       5.165   4.026  16.748  0.00  0.00    +0.000 S 
ENDBRANCH  20  22
ENDBRANCH   1  20
TORSDOF 4
ENDMDL
MODEL 7
REMARK VINA RESULT:      -7.0      1.051      1.529
REMARK  Name = 
REMARK  4 active torsions:
REMARK  status: ('A' for Active; 'I' for Inactive)
REMARK    1  A    between atoms: S_2  and  C_4
REMARK    2  A    between atoms: S_2  and  N_9
REMARK    3  A    between atoms: N_12  and  C_13
REMARK    4  A    between atoms: C_17  and  C_18
REMARK                            x       y       z     vdW  Elec       q    Type
REMARK                         _______ _______ _______ _____ _____    ______ ____
ROOT
ATOM      1  N   UNL     1       3.990   4.690  19.357  0.00  0.00    +0.000 NA
ATOM      2  C   UNL     1       4.436   6.104  19.170  0.00  0.00    +0.000 C 
ATOM      3  C   UNL     1       3.259   7.070  18.924  0.00  0.00    +0.000 C 
ATOM      4  N   UNL     1       2.234   6.943  19.987  0.00  0.00    +0.000 N 
ATOM      5  C   UNL     1       1.774   5.544  20.193  0.00  0.00    +0.000 C 
ATOM      6  C   UNL     1       2.968   4.609  20.449  0.00  0.00    +0.000 C 
ENDROOT
BRANCH   4   7
ATOM      7  C   UNL     1       1.505   8.034  20.461  0.00  0.00    +0.000 A 
ATOM      8  C   UNL     1       1.100   9.135  19.506  0.00  0.00    +0.000 A 
ATOM      9  N   UNL     1       0.485  10.243  19.784  0.00  0.00    +0.000 NA
ATOM     10  N   UNL     1       0.201  10.351  21.114  0.00  0.00    +0.000 N 
ATOM     11  C   UNL     1      -0.402  11.403  21.757  0.00  0.00    +0.000 A 
ATOM     12  N   UNL     1      -0.471  11.153  23.048  0.00  0.00    +0.000 NA
ATOM     13  N   UNL     1       0.077   9.905  23.269  0.00  0.00    +0.000 NA
ATOM     14  C   UNL     1       0.474   9.434  22.105  0.00  0.00    +0.000 A 
ATOM     15  C   UNL     1       1.129   8.239  21.736  0.00  0.00    +0.000 A 
BRANCH  11  16
ATOM     16  C   UNL     1      -0.905  12.664  21.074  0.00  0.00    +0.000 C 
ATOM     17  C   UNL     1      -2.306  12.663  20.499  0.00  0.00    +0.000 C 
ATOM     18  C   UNL     1      -2.022  13.441  21.738  0.00  0.00    +0.000 C 
ENDBRANCH  11  16
ENDBRANCH   4   7
BRANCH   1  20
ATOM     19  O   UNL     1       2.381   4.359  17.398  0.00  0.00    +0.000 OA
ATOM     20  S   UNL     1       3.611   3.826  17.941  0.00  0.00    +0.000 S 
ATOM     21  O   UNL     1       3.754   2.412  18.216  0.00  0.00    +0.000 OA
BRANCH  20  22
ATOM     22  C   UNL     1       4.844   4.199  16.711  0.00  0.00    +0.000 A 
ATOM     23  C   UNL     1       4.769   4.369  15.340  0.00  0.00    +0.000 A 
ATOM     24  C   UNL     1       6.048   4.575  14.747  0.00  0.00    +0.000 A 
ATOM     25  C   UNL     1       7.055   4.581  15.688  0.00  0.00    +0.000 A 
ATOM     26  S   UNL     1       6.450   4.374  17.277  0.00  0.00    +0.000 S 
ENDBRANCH  20  22
ENDBRANCH   1  20
TORSDOF 4
ENDMDL
MODEL 8
REMARK VINA RESULT:      -6.8      1.548      2.311
REMARK  Name = 
REMARK  4 active torsions:
REMARK  status: ('A' for Active; 'I' for Inactive)
REMARK    1  A    between atoms: S_2  and  C_4
REMARK    2  A    between atoms: S_2  and  N_9
REMARK    3  A    between atoms: N_12  and  C_13
REMARK    4  A    between atoms: C_17  and  C_18
REMARK                            x       y       z     vdW  Elec       q    Type
REMARK                         _______ _______ _______ _____ _____    ______ ____
ROOT
ATOM      1  N   UNL     1       2.316   3.045  19.375  0.00  0.00    +0.000 NA
ATOM      2  C   UNL     1       2.187   3.698  20.714  0.00  0.00    +0.000 C 
ATOM      3  C   UNL     1       2.723   5.144  20.722  0.00  0.00    +0.000 C 
ATOM      4  N   UNL     1       2.101   5.950  19.644  0.00  0.00    +0.000 N 
ATOM      5  C   UNL     1       2.216   5.321  18.303  0.00  0.00    +0.000 C 
ATOM      6  C   UNL     1       1.661   3.886  18.323  0.00  0.00    +0.000 C 
ENDROOT
BRANCH   4   7
ATOM      7  C   UNL     1       1.798   7.303  19.799  0.00  0.00    +0.000 A 
ATOM      8  C   UNL     1       1.271   7.805  21.125  0.00  0.00    +0.000 A 
ATOM      9  N   UNL     1       0.878   9.005  21.422  0.00  0.00    +0.000 NA
ATOM     10  N   UNL     1       0.989   9.857  20.363  0.00  0.00    +0.000 N 
ATOM     11  C   UNL     1       0.630  11.181  20.314  0.00  0.00    +0.000 A 
ATOM     12  N   UNL     1       0.857  11.657  19.107  0.00  0.00    +0.000 NA
ATOM     13  N   UNL     1       1.395  10.641  18.344  0.00  0.00    +0.000 NA
ATOM     14  C   UNL     1       1.472   9.570  19.105  0.00  0.00    +0.000 A 
ATOM     15  C   UNL     1       1.901   8.249  18.849  0.00  0.00    +0.000 A 
BRANCH  11  16
ATOM     16  C   UNL     1       0.052  11.966  21.479  0.00  0.00    +0.000 C 
ATOM     17  C   UNL     1      -1.379  12.452  21.383  0.00  0.00    +0.000 C 
ATOM     18  C   UNL     1      -1.047  11.325  22.300  0.00  0.00    +0.000 C 
ENDBRANCH  11  16
ENDBRANCH   4   7
BRANCH   1  20
ATOM     19  O   UNL     1       3.691   1.292  18.121  0.00  0.00    +0.000 OA
ATOM     20  S   UNL     1       3.857   2.448  18.974  0.00  0.00    +0.000 S 
ATOM     21  O   UNL     1       4.648   2.373  20.185  0.00  0.00    +0.000 OA
BRANCH  20  22
ATOM     22  C   UNL     1       4.674   3.652  17.946  0.00  0.00    +0.000 A 
ATOM     23  C   UNL     1       4.643   3.885  16.582  0.00  0.00    +0.000 A 
ATOM     24  C   UNL     1       5.539   4.920  16.188  0.00  0.00    +0.000 A 
ATOM     25  C   UNL     1       6.207   5.460  17.266  0.00  0.00    +0.000 A 
ATOM     26  S   UNL     1       5.725   4.742  18.744  0.00  0.00    +0.000 S 
ENDBRANCH  20  22
ENDBRANCH   1  20
TORSDOF 4
ENDMDL
MODEL 9
REMARK VINA RESULT:      -6.7      5.354      9.501
REMARK  Name = 
REMARK  4 active torsions:
REMARK  status: ('A' for Active; 'I' for Inactive)
REMARK    1  A    between atoms: S_2  and  C_4
REMARK    2  A    between atoms: S_2  and  N_9
REMARK    3  A    between atoms: N_12  and  C_13
REMARK    4  A    between atoms: C_17  and  C_18
REMARK                            x       y       z     vdW  Elec       q    Type
REMARK                         _______ _______ _______ _____ _____    ______ ____
ROOT
ATOM      1  N   UNL     1      -0.887  13.945  19.561  0.00  0.00    +0.000 NA
ATOM      2  C   UNL     1      -0.301  13.343  18.325  0.00  0.00    +0.000 C 
ATOM      3  C   UNL     1       0.869  12.385  18.629  0.00  0.00    +0.000 C 
ATOM      4  N   UNL     1       0.473  11.356  19.620  0.00  0.00    +0.000 N 
ATOM      5  C   UNL     1      -0.112  11.932  20.859  0.00  0.00    +0.000 C 
ATOM      6  C   UNL     1      -1.284  12.869  20.524  0.00  0.00    +0.000 C 
ENDROOT
BRANCH   4   7
ATOM      7  C   UNL     1       0.948  10.045  19.570  0.00  0.00    +0.000 A 
ATOM      8  C   UNL     1       0.746   9.130  20.758  0.00  0.00    +0.000 A 
ATOM      9  N   UNL     1       1.176   7.916  20.908  0.00  0.00    +0.000 NA
ATOM     10  N   UNL     1       1.880   7.483  19.823  0.00  0.00    +0.000 N 
ATOM     11  C   UNL     1       2.506   6.273  19.661  0.00  0.00    +0.000 A 
ATOM     12  N   UNL     1       3.111   6.239  18.491  0.00  0.00    +0.000 NA
ATOM     13  N   UNL     1       2.868   7.439  17.854  0.00  0.00    +0.000 NA
ATOM     14  C   UNL     1       2.129   8.175  18.658  0.00  0.00    +0.000 A 
ATOM     15  C   UNL     1       1.619   9.486  18.547  0.00  0.00    +0.000 A 
BRANCH  11  16
ATOM     16  C   UNL     1       2.502   5.150  20.685  0.00  0.00    +0.000 C 
ATOM     17  C   UNL     1       1.327   4.194  20.702  0.00  0.00    +0.000 C 
ATOM     18  C   UNL     1       2.646   3.727  20.188  0.00  0.00    +0.000 C 
ENDBRANCH  11  16
ENDBRANCH   4   7
BRANCH   1  20
ATOM     19  O   UNL     1       1.335  14.830  20.466  0.00  0.00    +0.000 OA
ATOM     20  S   UNL     1      -0.031  15.249  20.240  0.00  0.00    +0.000 S 
ATOM     21  O   UNL     1      -0.826  15.809  21.313  0.00  0.00    +0.000 OA
BRANCH  20  22
ATOM     22  C   UNL     1       0.092  16.537  19.016  0.00  0.00    +0.000 A 
ATOM     23  C   UNL     1      -0.865  17.273  18.340  0.00  0.00    +0.000 A 
ATOM     24  C   UNL     1      -0.293  18.151  17.374  0.00  0.00    +0.000 A 
ATOM     25  C   UNL     1       1.083  18.075  17.362  0.00  0.00    +0.000 A 
ATOM     26  S   UNL     1       1.675  16.976  18.534  0.00  0.00    +0.000 S 
ENDBRANCH  20  22
ENDBRANCH   1  20
TORSDOF 4
ENDMDL
