MODEL 1
REMARK VINA RESULT:      -7.1      0.000      0.000
REMARK  Name = 
REMARK  4 active torsions:
REMARK  status: ('A' for Active; 'I' for Inactive)
REMARK    1  A    between atoms: C_4  and  C_5
REMARK    2  A    between atoms: C_8  and  O_9
REMARK    3  A    between atoms: C_16  and  C_17
REMARK    4  A    between atoms: C_20  and  O_21
REMARK                            x       y       z     vdW  Elec       q    Type
REMARK                         _______ _______ _______ _____ _____    ______ ____
ROOT
ATOM      1  O   UNL     1       2.230  10.116  17.494  0.00  0.00    +0.000 OA
ATOM      2  C   UNL     1       1.607   9.448  18.319  0.00  0.00    +0.000 C 
ATOM      3  C   UNL     1       2.131   8.157  18.862  0.00  0.00    +0.000 C 
ATOM      4  C   UNL     1       2.612   7.260  17.977  0.00  0.00    +0.000 C 
ATOM      5  C   UNL     1       2.022   7.962  20.341  0.00  0.00    +0.000 C 
ATOM      6  S   UNL     1       0.290   7.989  20.827  0.00  0.00    +0.000 S 
ATOM      7  C   UNL     1      -0.031   9.678  20.278  0.00  0.00    +0.000 C 
ATOM      8  C   UNL     1       0.246   9.841  18.813  0.00  0.00    +0.000 C 
ATOM      9  C   UNL     1      -0.628  10.299  17.891  0.00  0.00    +0.000 C 
ENDROOT
BRANCH   4  10
ATOM     10  C   UNL     1       2.935   5.882  18.363  0.00  0.00    +0.000 A 
ATOM     11  C   UNL     1       4.215   5.595  18.865  0.00  0.00    +0.000 A 
ATOM     12  C   UNL     1       4.604   4.278  19.118  0.00  0.00    +0.000 A 
ATOM     13  C   UNL     1       3.701   3.247  18.881  0.00  0.00    +0.000 A 
ATOM     14  C   UNL     1       2.418   3.517  18.416  0.00  0.00    +0.000 A 
ATOM     15  C   UNL     1       2.032   4.835  18.150  0.00  0.00    +0.000 A 
BRANCH  13  16
ATOM     16  O   UNL     1       4.048   1.945  19.086  0.00  0.00    +0.000 OA
ATOM     17  H   UNL     1       4.362   1.572  18.245  0.00  0.00    +0.000 HD
ENDBRANCH  13  16
ENDBRANCH   4  10
BRANCH   9  18
ATOM     18  C   UNL     1      -2.027  10.618  18.209  0.00  0.00    +0.000 A 
ATOM     19  C   UNL     1      -3.081   9.886  17.649  0.00  0.00    +0.000 A 
ATOM     20  C   UNL     1      -4.405  10.312  17.814  0.00  0.00    +0.000 A 
ATOM     21  C   UNL     1      -4.668  11.452  18.566  0.00  0.00    +0.000 A 
ATOM     22  C   UNL     1      -3.636  12.158  19.171  0.00  0.00    +0.000 A 
ATOM     23  C   UNL     1      -2.314  11.745  18.991  0.00  0.00    +0.000 A 
BRANCH  21  24
ATOM     24  O   UNL     1      -5.938  11.922  18.721  0.00  0.00    +0.000 OA
ATOM     25  H   UNL     1      -5.903  12.888  18.817  0.00  0.00    +0.000 HD
ENDBRANCH  21  24
ENDBRANCH   9  18
TORSDOF 4
ENDMDL
MODEL 2
REMARK VINA RESULT:      -7.0      1.834      8.300
REMARK  Name = 
REMARK  4 active torsions:
REMARK  status: ('A' for Active; 'I' for Inactive)
REMARK    1  A    between atoms: C_4  and  C_5
REMARK    2  A    between atoms: C_8  and  O_9
REMARK    3  A    between atoms: C_16  and  C_17
REMARK    4  A    between atoms: C_20  and  O_21
REMARK                            x       y       z     vdW  Elec       q    Type
REMARK                         _______ _______ _______ _____ _____    ______ ____
ROOT
ATOM      1  O   UNL     1       1.467   8.534  21.929  0.00  0.00    +0.000 OA
ATOM      2  C   UNL     1       1.454   8.304  20.720  0.00  0.00    +0.000 C 
ATOM      3  C   UNL     1       0.780   9.210  19.740  0.00  0.00    +0.000 C 
ATOM      4  C   UNL     1      -0.471   9.621  20.032  0.00  0.00    +0.000 C 
ATOM      5  C   UNL     1       1.545   9.536  18.496  0.00  0.00    +0.000 C 
ATOM      6  S   UNL     1       1.863   8.025  17.572  0.00  0.00    +0.000 S 
ATOM      7  C   UNL     1       2.845   7.224  18.856  0.00  0.00    +0.000 C 
ATOM      8  C   UNL     1       2.065   7.068  20.128  0.00  0.00    +0.000 C 
ATOM      9  C   UNL     1       1.849   5.907  20.783  0.00  0.00    +0.000 C 
ENDROOT
BRANCH   4  10
ATOM     10  C   UNL     1      -1.311  10.316  19.050  0.00  0.00    +0.000 A 
ATOM     11  C   UNL     1      -1.882  11.552  19.393  0.00  0.00    +0.000 A 
ATOM     12  C   UNL     1      -2.793  12.179  18.539  0.00  0.00    +0.000 A 
ATOM     13  C   UNL     1      -3.118  11.573  17.332  0.00  0.00    +0.000 A 
ATOM     14  C   UNL     1      -2.536  10.364  16.961  0.00  0.00    +0.000 A 
ATOM     15  C   UNL     1      -1.634   9.729  17.822  0.00  0.00    +0.000 A 
BRANCH  13  16
ATOM     16  O   UNL     1      -4.023  12.135  16.481  0.00  0.00    +0.000 OA
ATOM     17  H   UNL     1      -3.675  12.992  16.181  0.00  0.00    +0.000 HD
ENDBRANCH  13  16
ENDBRANCH   4  10
BRANCH   9  18
ATOM     18  C   UNL     1       2.292   4.606  20.266  0.00  0.00    +0.000 A 
ATOM     19  C   UNL     1       3.646   4.350  20.013  0.00  0.00    +0.000 A 
ATOM     20  C   UNL     1       4.034   3.178  19.353  0.00  0.00    +0.000 A 
ATOM     21  C   UNL     1       3.066   2.252  18.976  0.00  0.00    +0.000 A 
ATOM     22  C   UNL     1       1.725   2.468  19.268  0.00  0.00    +0.000 A 
ATOM     23  C   UNL     1       1.335   3.646  19.909  0.00  0.00    +0.000 A 
BRANCH  21  24
ATOM     24  O   UNL     1       3.396   1.116  18.299  0.00  0.00    +0.000 OA
ATOM     25  H   UNL     1       2.834   0.390  18.617  0.00  0.00    +0.000 HD
ENDBRANCH  21  24
ENDBRANCH   9  18
TORSDOF 4
ENDMDL
MODEL 3
REMARK VINA RESULT:      -7.0      1.718      8.374
REMARK  Name = 
REMARK  4 active torsions:
REMARK  status: ('A' for Active; 'I' for Inactive)
REMARK    1  A    between atoms: C_4  and  C_5
REMARK    2  A    between atoms: C_8  and  O_9
REMARK    3  A    between atoms: C_16  and  C_17
REMARK    4  A    between atoms: C_20  and  O_21
REMARK                            x       y       z     vdW  Elec       q    Type
REMARK                         _______ _______ _______ _____ _____    ______ ____
ROOT
ATOM      1  O   UNL     1       1.494   8.468  21.911  0.00  0.00    +0.000 OA
ATOM      2  C   UNL     1       1.466   8.351  20.686  0.00  0.00    +0.000 C 
ATOM      3  C   UNL     1       0.722   9.304  19.808  0.00  0.00    +0.000 C 
ATOM      4  C   UNL     1      -0.542   9.616  20.159  0.00  0.00    +0.000 C 
ATOM      5  C   UNL     1       1.439   9.785  18.586  0.00  0.00    +0.000 C 
ATOM      6  S   UNL     1       1.817   8.387  17.519  0.00  0.00    +0.000 S 
ATOM      7  C   UNL     1       2.871   7.527  18.705  0.00  0.00    +0.000 C 
ATOM      8  C   UNL     1       2.129   7.211  19.970  0.00  0.00    +0.000 C 
ATOM      9  C   UNL     1       1.992   5.984  20.518  0.00  0.00    +0.000 C 
ENDROOT
BRANCH   4  10
ATOM     10  C   UNL     1      -1.441  10.350  19.261  0.00  0.00    +0.000 A 
ATOM     11  C   UNL     1      -1.975  11.579  19.684  0.00  0.00    +0.000 A 
ATOM     12  C   UNL     1      -2.935  12.241  18.917  0.00  0.00    +0.000 A 
ATOM     13  C   UNL     1      -3.349  11.679  17.716  0.00  0.00    +0.000 A 
ATOM     14  C   UNL     1      -2.807  10.479  17.266  0.00  0.00    +0.000 A 
ATOM     15  C   UNL     1      -1.855   9.808  18.040  0.00  0.00    +0.000 A 
BRANCH  13  16
ATOM     16  O   UNL     1      -4.305  12.277  16.949  0.00  0.00    +0.000 OA
ATOM     17  H   UNL     1      -4.322  13.226  17.160  0.00  0.00    +0.000 HD
ENDBRANCH  13  16
ENDBRANCH   4  10
BRANCH   9  18
ATOM     18  C   UNL     1       2.492   4.763  19.874  0.00  0.00    +0.000 A 
ATOM     19  C   UNL     1       1.618   3.744  19.476  0.00  0.00    +0.000 A 
ATOM     20  C   UNL     1       2.119   2.514  19.031  0.00  0.00    +0.000 A 
ATOM     21  C   UNL     1       3.495   2.322  18.957  0.00  0.00    +0.000 A 
ATOM     22  C   UNL     1       4.374   3.342  19.299  0.00  0.00    +0.000 A 
ATOM     23  C   UNL     1       3.875   4.562  19.761  0.00  0.00    +0.000 A 
BRANCH  21  24
ATOM     24  O   UNL     1       4.026   1.129  18.566  0.00  0.00    +0.000 OA
ATOM     25  H   UNL     1       3.518   0.796  17.808  0.00  0.00    +0.000 HD
ENDBRANCH  21  24
ENDBRANCH   9  18
TORSDOF 4
ENDMDL
MODEL 4
REMARK VINA RESULT:      -7.0      0.347      1.066
REMARK  Name = 
REMARK  4 active torsions:
REMARK  status: ('A' for Active; 'I' for Inactive)
REMARK    1  A    between atoms: C_4  and  C_5
REMARK    2  A    between atoms: C_8  and  O_9
REMARK    3  A    between atoms: C_16  and  C_17
REMARK    4  A    between atoms: C_20  and  O_21
REMARK                            x       y       z     vdW  Elec       q    Type
REMARK                         _______ _______ _______ _____ _____    ______ ____
ROOT
ATOM      1  O   UNL     1       2.138  10.235  17.575  0.00  0.00    +0.000 OA
ATOM      2  C   UNL     1       1.507   9.560  18.387  0.00  0.00    +0.000 C 
ATOM      3  C   UNL     1       2.005   8.245  18.894  0.00  0.00    +0.000 C 
ATOM      4  C   UNL     1       2.463   7.361  17.984  0.00  0.00    +0.000 C 
ATOM      5  C   UNL     1       1.901   8.014  20.368  0.00  0.00    +0.000 C 
ATOM      6  S   UNL     1       0.172   8.065  20.865  0.00  0.00    +0.000 S 
ATOM      7  C   UNL     1      -0.116   9.774  20.361  0.00  0.00    +0.000 C 
ATOM      8  C   UNL     1       0.157   9.968  18.899  0.00  0.00    +0.000 C 
ATOM      9  C   UNL     1      -0.713  10.468  17.994  0.00  0.00    +0.000 C 
ENDROOT
BRANCH   4  10
ATOM     10  C   UNL     1       2.759   5.966  18.333  0.00  0.00    +0.000 A 
ATOM     11  C   UNL     1       1.764   4.992  18.156  0.00  0.00    +0.000 A 
ATOM     12  C   UNL     1       1.960   3.682  18.600  0.00  0.00    +0.000 A 
ATOM     13  C   UNL     1       3.164   3.346  19.208  0.00  0.00    +0.000 A 
ATOM     14  C   UNL     1       4.174   4.291  19.361  0.00  0.00    +0.000 A 
ATOM     15  C   UNL     1       3.972   5.606  18.929  0.00  0.00    +0.000 A 
BRANCH  13  16
ATOM     16  O   UNL     1       3.388   2.087  19.681  0.00  0.00    +0.000 OA
ATOM     17  H   UNL     1       4.348   1.948  19.750  0.00  0.00    +0.000 HD
ENDBRANCH  13  16
ENDBRANCH   4  10
BRANCH   9  18
ATOM     18  C   UNL     1      -2.103  10.807  18.328  0.00  0.00    +0.000 A 
ATOM     19  C   UNL     1      -3.176  10.153  17.710  0.00  0.00    +0.000 A 
ATOM     20  C   UNL     1      -4.487  10.608  17.901  0.00  0.00    +0.000 A 
ATOM     21  C   UNL     1      -4.719  11.697  18.734  0.00  0.00    +0.000 A 
ATOM     22  C   UNL     1      -3.669  12.323  19.395  0.00  0.00    +0.000 A 
ATOM     23  C   UNL     1      -2.359  11.882  19.190  0.00  0.00    +0.000 A 
BRANCH  21  24
ATOM     24  O   UNL     1      -5.974  12.197  18.918  0.00  0.00    +0.000 OA
ATOM     25  H   UNL     1      -6.080  12.984  18.360  0.00  0.00    +0.000 HD
ENDBRANCH  21  24
ENDBRANCH   9  18
TORSDOF 4
ENDMDL
MODEL 5
REMARK VINA RESULT:      -6.8      0.318      1.057
REMARK  Name = 
REMARK  4 active torsions:
REMARK  status: ('A' for Active; 'I' for Inactive)
REMARK    1  A    between atoms: C_4  and  C_5
REMARK    2  A    between atoms: C_8  and  O_9
REMARK    3  A    between atoms: C_16  and  C_17
REMARK    4  A    between atoms: C_20  and  O_21
REMARK                            x       y       z     vdW  Elec       q    Type
REMARK                         _______ _______ _______ _____ _____    ______ ____
ROOT
ATOM      1  O   UNL     1       2.239  10.165  17.616  0.00  0.00    +0.000 OA
ATOM      2  C   UNL     1       1.541   9.533  18.409  0.00  0.00    +0.000 C 
ATOM      3  C   UNL     1       1.967   8.218  18.978  0.00  0.00    +0.000 C 
ATOM      4  C   UNL     1       2.444   7.294  18.119  0.00  0.00    +0.000 C 
ATOM      5  C   UNL     1       1.774   8.033  20.450  0.00  0.00    +0.000 C 
ATOM      6  S   UNL     1       0.023   8.153  20.847  0.00  0.00    +0.000 S 
ATOM      7  C   UNL     1      -0.179   9.855  20.283  0.00  0.00    +0.000 C 
ATOM      8  C   UNL     1       0.180   9.999  18.833  0.00  0.00    +0.000 C 
ATOM      9  C   UNL     1      -0.622  10.500  17.868  0.00  0.00    +0.000 C 
ENDROOT
BRANCH   4  10
ATOM     10  C   UNL     1       2.674   5.901  18.521  0.00  0.00    +0.000 A 
ATOM     11  C   UNL     1       3.892   5.558  19.129  0.00  0.00    +0.000 A 
ATOM     12  C   UNL     1       4.202   4.225  19.404  0.00  0.00    +0.000 A 
ATOM     13  C   UNL     1       3.280   3.235  19.083  0.00  0.00    +0.000 A 
ATOM     14  C   UNL     1       2.055   3.561  18.511  0.00  0.00    +0.000 A 
ATOM     15  C   UNL     1       1.750   4.895  18.223  0.00  0.00    +0.000 A 
BRANCH  13  16
ATOM     16  O   UNL     1       3.552   1.918  19.307  0.00  0.00    +0.000 OA
ATOM     17  H   UNL     1       4.517   1.803  19.341  0.00  0.00    +0.000 HD
ENDBRANCH  13  16
ENDBRANCH   4  10
BRANCH   9  18
ATOM     18  C   UNL     1      -2.015  10.893  18.115  0.00  0.00    +0.000 A 
ATOM     19  C   UNL     1      -2.326  11.970  18.955  0.00  0.00    +0.000 A 
ATOM     20  C   UNL     1      -3.653  12.220  19.324  0.00  0.00    +0.000 A 
ATOM     21  C   UNL     1      -4.667  11.409  18.825  0.00  0.00    +0.000 A 
ATOM     22  C   UNL     1      -4.379  10.370  17.949  0.00  0.00    +0.000 A 
ATOM     23  C   UNL     1      -3.053  10.108  17.595  0.00  0.00    +0.000 A 
BRANCH  21  24
ATOM     24  O   UNL     1      -5.968  11.593  19.188  0.00  0.00    +0.000 OA
ATOM     25  H   UNL     1      -6.060  11.384  20.132  0.00  0.00    +0.000 HD
ENDBRANCH  21  24
ENDBRANCH   9  18
TORSDOF 4
ENDMDL
MODEL 6
REMARK VINA RESULT:      -6.8      1.270      1.859
REMARK  Name = 
REMARK  4 active torsions:
REMARK  status: ('A' for Active; 'I' for Inactive)
REMARK    1  A    between atoms: C_4  and  C_5
REMARK    2  A    between atoms: C_8  and  O_9
REMARK    3  A    between atoms: C_16  and  C_17
REMARK    4  A    between atoms: C_20  and  O_21
REMARK                            x       y       z     vdW  Elec       q    Type
REMARK                         _______ _______ _______ _____ _____    ______ ____
ROOT
ATOM      1  O   UNL     1       2.217   9.337  17.365  0.00  0.00    +0.000 OA
ATOM      2  C   UNL     1       1.562   9.040  18.364  0.00  0.00    +0.000 C 
ATOM      3  C   UNL     1       1.931   7.893  19.250  0.00  0.00    +0.000 C 
ATOM      4  C   UNL     1       2.219   6.717  18.657  0.00  0.00    +0.000 C 
ATOM      5  C   UNL     1       1.894   8.149  20.723  0.00  0.00    +0.000 C 
ATOM      6  S   UNL     1       0.220   8.584  21.218  0.00  0.00    +0.000 S 
ATOM      7  C   UNL     1       0.107  10.073  20.206  0.00  0.00    +0.000 C 
ATOM      8  C   UNL     1       0.307   9.765  18.751  0.00  0.00    +0.000 C 
ATOM      9  C   UNL     1      -0.553  10.070  17.755  0.00  0.00    +0.000 C 
ENDROOT
BRANCH   4  10
ATOM     10  C   UNL     1       2.367   5.474  19.423  0.00  0.00    +0.000 A 
ATOM     11  C   UNL     1       1.247   4.939  20.080  0.00  0.00    +0.000 A 
ATOM     12  C   UNL     1       1.376   3.835  20.925  0.00  0.00    +0.000 A 
ATOM     13  C   UNL     1       2.628   3.257  21.099  0.00  0.00    +0.000 A 
ATOM     14  C   UNL     1       3.742   3.753  20.430  0.00  0.00    +0.000 A 
ATOM     15  C   UNL     1       3.616   4.868  19.593  0.00  0.00    +0.000 A 
BRANCH  13  16
ATOM     16  O   UNL     1       2.805   2.196  21.937  0.00  0.00    +0.000 OA
ATOM     17  H   UNL     1       3.333   2.488  22.699  0.00  0.00    +0.000 HD
ENDBRANCH  13  16
ENDBRANCH   4  10
BRANCH   9  18
ATOM     18  C   UNL     1      -1.867  10.680  17.996  0.00  0.00    +0.000 A 
ATOM     19  C   UNL     1      -1.999  11.825  18.792  0.00  0.00    +0.000 A 
ATOM     20  C   UNL     1      -3.267  12.289  19.161  0.00  0.00    +0.000 A 
ATOM     21  C   UNL     1      -4.399  11.621  18.706  0.00  0.00    +0.000 A 
ATOM     22  C   UNL     1      -4.285  10.516  17.873  0.00  0.00    +0.000 A 
ATOM     23  C   UNL     1      -3.020  10.041  17.519  0.00  0.00    +0.000 A 
BRANCH  21  24
ATOM     24  O   UNL     1      -5.652  12.016  19.071  0.00  0.00    +0.000 OA
ATOM     25  H   UNL     1      -6.216  12.032  18.281  0.00  0.00    +0.000 HD
ENDBRANCH  21  24
ENDBRANCH   9  18
TORSDOF 4
ENDMDL
MODEL 7
REMARK VINA RESULT:      -6.8      5.937      8.642
REMARK  Name = 
REMARK  4 active torsions:
REMARK  status: ('A' for Active; 'I' for Inactive)
REMARK    1  A    between atoms: C_4  and  C_5
REMARK    2  A    between atoms: C_8  and  O_9
REMARK    3  A    between atoms: C_16  and  C_17
REMARK    4  A    between atoms: C_20  and  O_21
REMARK                            x       y       z     vdW  Elec       q    Type
REMARK                         _______ _______ _______ _____ _____    ______ ____
ROOT
ATOM      1  O   UNL     1       5.909   7.112  15.767  0.00  0.00    +0.000 OA
ATOM      2  C   UNL     1       6.237   6.806  16.913  0.00  0.00    +0.000 C 
ATOM      3  C   UNL     1       5.485   5.794  17.717  0.00  0.00    +0.000 C 
ATOM      4  C   UNL     1       4.141   5.903  17.753  0.00  0.00    +0.000 C 
ATOM      5  C   UNL     1       6.306   4.781  18.450  0.00  0.00    +0.000 C 
ATOM      6  S   UNL     1       7.364   5.613  19.644  0.00  0.00    +0.000 S 
ATOM      7  C   UNL     1       8.290   6.577  18.432  0.00  0.00    +0.000 C 
ATOM      8  C   UNL     1       7.384   7.460  17.625  0.00  0.00    +0.000 C 
ATOM      9  C   UNL     1       7.500   8.799  17.493  0.00  0.00    +0.000 C 
ENDROOT
BRANCH   4  10
ATOM     10  C   UNL     1       3.322   5.118  18.684  0.00  0.00    +0.000 A 
ATOM     11  C   UNL     1       2.763   3.906  18.246  0.00  0.00    +0.000 A 
ATOM     12  C   UNL     1       1.871   3.199  19.055  0.00  0.00    +0.000 A 
ATOM     13  C   UNL     1       1.552   3.699  20.312  0.00  0.00    +0.000 A 
ATOM     14  C   UNL     1       2.123   4.881  20.774  0.00  0.00    +0.000 A 
ATOM     15  C   UNL     1       3.006   5.597  19.959  0.00  0.00    +0.000 A 
BRANCH  13  16
ATOM     16  O   UNL     1       0.665   3.056  21.123  0.00  0.00    +0.000 OA
ATOM     17  H   UNL     1      -0.064   2.716  20.577  0.00  0.00    +0.000 HD
ENDBRANCH  13  16
ENDBRANCH   4  10
BRANCH   9  18
ATOM     18  C   UNL     1       8.507   9.587  18.218  0.00  0.00    +0.000 A 
ATOM     19  C   UNL     1       8.661   9.464  19.604  0.00  0.00    +0.000 A 
ATOM     20  C   UNL     1       9.492  10.346  20.305  0.00  0.00    +0.000 A 
ATOM     21  C   UNL     1      10.190  11.328  19.609  0.00  0.00    +0.000 A 
ATOM     22  C   UNL     1      10.087  11.428  18.228  0.00  0.00    +0.000 A 
ATOM     23  C   UNL     1       9.243  10.561  17.530  0.00  0.00    +0.000 A 
BRANCH  21  24
ATOM     24  O   UNL     1      10.980  12.231  20.256  0.00  0.00    +0.000 OA
ATOM     25  H   UNL     1      10.419  12.943  20.604  0.00  0.00    +0.000 HD
ENDBRANCH  21  24
ENDBRANCH   9  18
TORSDOF 4
ENDMDL
MODEL 8
REMARK VINA RESULT:      -6.7      1.021      1.515
REMARK  Name = 
REMARK  4 active torsions:
REMARK  status: ('A' for Active; 'I' for Inactive)
REMARK    1  A    between atoms: C_4  and  C_5
REMARK    2  A    between atoms: C_8  and  O_9
REMARK    3  A    between atoms: C_16  and  C_17
REMARK    4  A    between atoms: C_20  and  O_21
REMARK                            x       y       z     vdW  Elec       q    Type
REMARK                         _______ _______ _______ _____ _____    ______ ____
ROOT
ATOM      1  O   UNL     1       2.926   9.444  17.421  0.00  0.00    +0.000 OA
ATOM      2  C   UNL     1       2.222   8.836  18.226  0.00  0.00    +0.000 C 
ATOM      3  C   UNL     1       2.484   7.413  18.604  0.00  0.00    +0.000 C 
ATOM      4  C   UNL     1       2.711   6.537  17.604  0.00  0.00    +0.000 C 
ATOM      5  C   UNL     1       2.418   7.086  20.062  0.00  0.00    +0.000 C 
ATOM      6  S   UNL     1       0.762   7.422  20.681  0.00  0.00    +0.000 S 
ATOM      7  C   UNL     1       0.783   9.189  20.319  0.00  0.00    +0.000 C 
ATOM      8  C   UNL     1       1.007   9.449  18.858  0.00  0.00    +0.000 C 
ATOM      9  C   UNL     1       0.202  10.176  18.054  0.00  0.00    +0.000 C 
ENDROOT
BRANCH   4  10
ATOM     10  C   UNL     1       2.750   5.087  17.834  0.00  0.00    +0.000 A 
ATOM     11  C   UNL     1       1.544   4.371  17.885  0.00  0.00    +0.000 A 
ATOM     12  C   UNL     1       1.531   3.019  18.233  0.00  0.00    +0.000 A 
ATOM     13  C   UNL     1       2.733   2.380  18.513  0.00  0.00    +0.000 A 
ATOM     14  C   UNL     1       3.941   3.066  18.434  0.00  0.00    +0.000 A 
ATOM     15  C   UNL     1       3.953   4.424  18.100  0.00  0.00    +0.000 A 
BRANCH  13  16
ATOM     16  O   UNL     1       2.765   1.068  18.884  0.00  0.00    +0.000 OA
ATOM     17  H   UNL     1       2.741   0.519  18.083  0.00  0.00    +0.000 HD
ENDBRANCH  13  16
ENDBRANCH   4  10
BRANCH   9  18
ATOM     18  C   UNL     1      -1.075  10.743  18.507  0.00  0.00    +0.000 A 
ATOM     19  C   UNL     1      -2.293  10.307  17.969  0.00  0.00    +0.000 A 
ATOM     20  C   UNL     1      -3.483  10.978  18.274  0.00  0.00    +0.000 A 
ATOM     21  C   UNL     1      -3.453  12.065  19.142  0.00  0.00    +0.000 A 
ATOM     22  C   UNL     1      -2.260  12.476  19.725  0.00  0.00    +0.000 A 
ATOM     23  C   UNL     1      -1.069  11.819  19.406  0.00  0.00    +0.000 A 
BRANCH  21  24
ATOM     24  O   UNL     1      -4.581  12.770  19.438  0.00  0.00    +0.000 OA
ATOM     25  H   UNL     1      -4.381  13.718  19.373  0.00  0.00    +0.000 HD
ENDBRANCH  21  24
ENDBRANCH   9  18
TORSDOF 4
ENDMDL
MODEL 9
REMARK VINA RESULT:      -6.7      1.047      1.047
REMARK  Name = 
REMARK  4 active torsions:
REMARK  status: ('A' for Active; 'I' for Inactive)
REMARK    1  A    between atoms: C_4  and  C_5
REMARK    2  A    between atoms: C_8  and  O_9
REMARK    3  A    between atoms: C_16  and  C_17
REMARK    4  A    between atoms: C_20  and  O_21
REMARK                            x       y       z     vdW  Elec       q    Type
REMARK                         _______ _______ _______ _____ _____    ______ ____
ROOT
ATOM      1  O   UNL     1       1.950   9.794  17.490  0.00  0.00    +0.000 OA
ATOM      2  C   UNL     1       1.353   9.395  18.489  0.00  0.00    +0.000 C 
ATOM      3  C   UNL     1       1.861   8.266  19.328  0.00  0.00    +0.000 C 
ATOM      4  C   UNL     1       2.262   7.148  18.689  0.00  0.00    +0.000 C 
ATOM      5  C   UNL     1       1.828   8.469  20.810  0.00  0.00    +0.000 C 
ATOM      6  S   UNL     1       0.128   8.704  21.348  0.00  0.00    +0.000 S 
ATOM      7  C   UNL     1      -0.165  10.204  20.390  0.00  0.00    +0.000 C 
ATOM      8  C   UNL     1       0.035   9.967  18.922  0.00  0.00    +0.000 C 
ATOM      9  C   UNL     1      -0.873  10.209  17.953  0.00  0.00    +0.000 C 
ENDROOT
BRANCH   4  10
ATOM     10  C   UNL     1       2.559   5.904  19.409  0.00  0.00    +0.000 A 
ATOM     11  C   UNL     1       3.776   5.248  19.165  0.00  0.00    +0.000 A 
ATOM     12  C   UNL     1       4.037   3.997  19.727  0.00  0.00    +0.000 A 
ATOM     13  C   UNL     1       3.082   3.410  20.550  0.00  0.00    +0.000 A 
ATOM     14  C   UNL     1       1.885   4.062  20.829  0.00  0.00    +0.000 A 
ATOM     15  C   UNL     1       1.617   5.309  20.255  0.00  0.00    +0.000 A 
BRANCH  13  16
ATOM     16  O   UNL     1       3.283   2.178  21.097  0.00  0.00    +0.000 OA
ATOM     17  H   UNL     1       2.500   1.630  20.922  0.00  0.00    +0.000 HD
ENDBRANCH  13  16
ENDBRANCH   4  10
BRANCH   9  18
ATOM     18  C   UNL     1      -2.240  10.666  18.238  0.00  0.00    +0.000 A 
ATOM     19  C   UNL     1      -3.347  10.062  17.627  0.00  0.00    +0.000 A 
ATOM     20  C   UNL     1      -4.623  10.621  17.765  0.00  0.00    +0.000 A 
ATOM     21  C   UNL     1      -4.790  11.764  18.540  0.00  0.00    +0.000 A 
ATOM     22  C   UNL     1      -3.710  12.343  19.194  0.00  0.00    +0.000 A 
ATOM     23  C   UNL     1      -2.433  11.798  19.042  0.00  0.00    +0.000 A 
BRANCH  21  24
ATOM     24  O   UNL     1      -6.009  12.361  18.671  0.00  0.00    +0.000 OA
ATOM     25  H   UNL     1      -6.659  11.859  18.154  0.00  0.00    +0.000 HD
ENDBRANCH  21  24
ENDBRANCH   9  18
TORSDOF 4
ENDMDL
