MODEL 1
REMARK VINA RESULT:      -9.1      0.000      0.000
REMARK  Name = 
REMARK  8 active torsions:
REMARK  status: ('A' for Active; 'I' for Inactive)
REMARK    1  A    between atoms: C_1  and  C_2
REMARK    2  A    between atoms: C_2  and  O_3
REMARK    3  A    between atoms: O_3  and  C_4
REMARK    4  A    between atoms: C_4  and  C_5
REMARK    5  A    between atoms: N_7  and  C_8
REMARK    6  A    between atoms: C_12  and  S_13
REMARK    7  A    between atoms: S_13  and  N_16
REMARK    8  A    between atoms: N_16  and  C_17
REMARK                            x       y       z     vdW  Elec       q    Type
REMARK                         _______ _______ _______ _____ _____    ______ ____
ROOT
ATOM      1  C   UNL     1       6.219   5.077  16.656  0.00  0.00    +0.000 A 
ATOM      2  C   UNL     1       7.291   5.339  17.524  0.00  0.00    +0.000 A 
ATOM      3  C   UNL     1       7.063   5.495  18.889  0.00  0.00    +0.000 A 
ATOM      4  C   UNL     1       5.776   5.351  19.395  0.00  0.00    +0.000 A 
ATOM      5  C   UNL     1       4.712   5.066  18.538  0.00  0.00    +0.000 A 
ATOM      6  C   UNL     1       4.910   4.983  17.153  0.00  0.00    +0.000 A 
ENDROOT
BRANCH   1   9
ATOM      7  C   UNL     1       6.657   4.017  13.283  0.00  0.00    +0.000 A 
ATOM      8  C   UNL     1       5.947   3.901  14.457  0.00  0.00    +0.000 A 
ATOM      9  N   UNL     1       6.491   4.845  15.288  0.00  0.00    +0.000 N 
ATOM     10  N   UNL     1       7.451   5.536  14.626  0.00  0.00    +0.000 NA
ATOM     11  N   UNL     1       7.586   5.009  13.419  0.00  0.00    +0.000 NA
BRANCH   7  12
ATOM     12  C   UNL     1       6.506   3.278  12.009  0.00  0.00    +0.000 C 
BRANCH  12  13
ATOM     13  O   UNL     1       5.188   2.734  11.891  0.00  0.00    +0.000 OA
BRANCH  13  15
ATOM     14  C   UNL     1       3.312   3.062  10.451  0.00  0.00    +0.000 C 
ATOM     15  C   UNL     1       4.266   3.716  11.431  0.00  0.00    +0.000 C 
ENDBRANCH  13  15
ENDBRANCH  12  13
ENDBRANCH   7  12
ENDBRANCH   1   9
BRANCH   5  16
ATOM     16  S   UNL     1       3.094   4.858  19.256  0.00  0.00    +0.000 S 
ATOM     17  O   UNL     1       2.141   4.927  18.170  0.00  0.00    +0.000 OA
ATOM     18  O   UNL     1       3.138   3.703  20.130  0.00  0.00    +0.000 OA
BRANCH  16  19
ATOM     19  N   UNL     1       2.829   6.241  20.220  0.00  0.00    +0.000 N 
ATOM     20  H   UNL     1       3.679   6.425  20.755  0.00  0.00    +0.000 HD
BRANCH  19  21
ATOM     21  C   UNL     1       2.257   7.405  19.591  0.00  0.00    +0.000 A 
ATOM     22  C   UNL     1       2.695   7.662  18.283  0.00  0.00    +0.000 A 
ATOM     23  C   UNL     1       2.315   8.825  17.622  0.00  0.00    +0.000 A 
ATOM     24  C   UNL     1       1.461   9.727  18.243  0.00  0.00    +0.000 A 
ATOM     25  C   UNL     1       0.980   9.466  19.532  0.00  0.00    +0.000 A 
ATOM     26  C   UNL     1       0.112  10.377  20.143  0.00  0.00    +0.000 A 
ATOM     27  N   UNL     1      -0.400  10.243  21.381  0.00  0.00    +0.000 NA
ATOM     28  C   UNL     1      -0.021   9.146  22.060  0.00  0.00    +0.000 A 
ATOM     29  C   UNL     1       0.842   8.177  21.556  0.00  0.00    +0.000 A 
ATOM     30  C   UNL     1       1.370   8.308  20.248  0.00  0.00    +0.000 A 
ENDBRANCH  19  21
ENDBRANCH  16  19
ENDBRANCH   5  16
TORSDOF 7
ENDMDL
MODEL 2
REMARK VINA RESULT:      -8.5      1.599      2.172
REMARK  Name = 
REMARK  8 active torsions:
REMARK  status: ('A' for Active; 'I' for Inactive)
REMARK    1  A    between atoms: C_1  and  C_2
REMARK    2  A    between atoms: C_2  and  O_3
REMARK    3  A    between atoms: O_3  and  C_4
REMARK    4  A    between atoms: C_4  and  C_5
REMARK    5  A    between atoms: N_7  and  C_8
REMARK    6  A    between atoms: C_12  and  S_13
REMARK    7  A    between atoms: S_13  and  N_16
REMARK    8  A    between atoms: N_16  and  C_17
REMARK                            x       y       z     vdW  Elec       q    Type
REMARK                         _______ _______ _______ _____ _____    ______ ____
ROOT
ATOM      1  C   UNL     1       4.308   3.641  17.377  0.00  0.00    +0.000 A 
ATOM      2  C   UNL     1       4.127   2.248  17.390  0.00  0.00    +0.000 A 
ATOM      3  C   UNL     1       3.352   1.654  18.383  0.00  0.00    +0.000 A 
ATOM      4  C   UNL     1       2.728   2.447  19.339  0.00  0.00    +0.000 A 
ATOM      5  C   UNL     1       2.886   3.833  19.315  0.00  0.00    +0.000 A 
ATOM      6  C   UNL     1       3.724   4.442  18.370  0.00  0.00    +0.000 A 
ENDROOT
BRANCH   1   9
ATOM      7  C   UNL     1       6.441   4.660  14.712  0.00  0.00    +0.000 A 
ATOM      8  C   UNL     1       5.922   3.624  15.457  0.00  0.00    +0.000 A 
ATOM      9  N   UNL     1       5.034   4.223  16.312  0.00  0.00    +0.000 N 
ATOM     10  N   UNL     1       4.980   5.552  16.057  0.00  0.00    +0.000 NA
ATOM     11  N   UNL     1       5.865   5.832  15.113  0.00  0.00    +0.000 NA
BRANCH   7  12
ATOM     12  C   UNL     1       7.430   4.629  13.610  0.00  0.00    +0.000 C 
BRANCH  12  13
ATOM     13  O   UNL     1       6.773   4.535  12.342  0.00  0.00    +0.000 OA
BRANCH  13  15
ATOM     14  C   UNL     1       4.811   3.306  11.759  0.00  0.00    +0.000 C 
ATOM     15  C   UNL     1       6.282   3.219  12.113  0.00  0.00    +0.000 C 
ENDBRANCH  13  15
ENDBRANCH  12  13
ENDBRANCH   7  12
ENDBRANCH   1   9
BRANCH   5  16
ATOM     16  S   UNL     1       2.029   4.794  20.547  0.00  0.00    +0.000 S 
ATOM     17  O   UNL     1       0.684   5.002  20.057  0.00  0.00    +0.000 OA
ATOM     18  O   UNL     1       2.259   4.174  21.837  0.00  0.00    +0.000 OA
BRANCH  16  19
ATOM     19  N   UNL     1       2.784   6.324  20.554  0.00  0.00    +0.000 N 
ATOM     20  H   UNL     1       3.769   6.195  20.322  0.00  0.00    +0.000 HD
BRANCH  19  21
ATOM     21  C   UNL     1       2.139   7.400  19.842  0.00  0.00    +0.000 A 
ATOM     22  C   UNL     1       2.382   7.442  18.461  0.00  0.00    +0.000 A 
ATOM     23  C   UNL     1       1.923   8.505  17.692  0.00  0.00    +0.000 A 
ATOM     24  C   UNL     1       1.181   9.518  18.283  0.00  0.00    +0.000 A 
ATOM     25  C   UNL     1       0.891   9.471  19.652  0.00  0.00    +0.000 A 
ATOM     26  C   UNL     1       0.134  10.492  20.235  0.00  0.00    +0.000 A 
ATOM     27  N   UNL     1      -0.192  10.563  21.539  0.00  0.00    +0.000 NA
ATOM     28  C   UNL     1       0.270   9.568  22.316  0.00  0.00    +0.000 A 
ATOM     29  C   UNL     1       1.038   8.505  21.849  0.00  0.00    +0.000 A 
ATOM     30  C   UNL     1       1.368   8.420  20.473  0.00  0.00    +0.000 A 
ENDBRANCH  19  21
ENDBRANCH  16  19
ENDBRANCH   5  16
TORSDOF 7
ENDMDL
MODEL 3
REMARK VINA RESULT:      -8.3      2.811      7.358
REMARK  Name = 
REMARK  8 active torsions:
REMARK  status: ('A' for Active; 'I' for Inactive)
REMARK    1  A    between atoms: C_1  and  C_2
REMARK    2  A    between atoms: C_2  and  O_3
REMARK    3  A    between atoms: O_3  and  C_4
REMARK    4  A    between atoms: C_4  and  C_5
REMARK    5  A    between atoms: N_7  and  C_8
REMARK    6  A    between atoms: C_12  and  S_13
REMARK    7  A    between atoms: S_13  and  N_16
REMARK    8  A    between atoms: N_16  and  C_17
REMARK                            x       y       z     vdW  Elec       q    Type
REMARK                         _______ _______ _______ _____ _____    ______ ____
ROOT
ATOM      1  C   UNL     1       2.145   6.438  19.360  0.00  0.00    +0.000 A 
ATOM      2  C   UNL     1       2.088   6.175  20.738  0.00  0.00    +0.000 A 
ATOM      3  C   UNL     1       2.250   4.874  21.208  0.00  0.00    +0.000 A 
ATOM      4  C   UNL     1       2.507   3.842  20.312  0.00  0.00    +0.000 A 
ATOM      5  C   UNL     1       2.589   4.104  18.944  0.00  0.00    +0.000 A 
ATOM      6  C   UNL     1       2.352   5.393  18.446  0.00  0.00    +0.000 A 
ENDROOT
BRANCH   1   9
ATOM      7  C   UNL     1       1.531   9.868  18.621  0.00  0.00    +0.000 A 
ATOM      8  C   UNL     1       1.446   8.841  19.534  0.00  0.00    +0.000 A 
ATOM      9  N   UNL     1       2.056   7.778  18.919  0.00  0.00    +0.000 N 
ATOM     10  N   UNL     1       2.534   8.163  17.711  0.00  0.00    +0.000 NA
ATOM     11  N   UNL     1       2.181   9.423  17.505  0.00  0.00    +0.000 NA
BRANCH   7  12
ATOM     12  C   UNL     1       1.069  11.271  18.730  0.00  0.00    +0.000 C 
BRANCH  12  13
ATOM     13  O   UNL     1      -0.296  11.323  19.155  0.00  0.00    +0.000 OA
BRANCH  13  15
ATOM     14  C   UNL     1      -2.043  11.730  17.579  0.00  0.00    +0.000 C 
ATOM     15  C   UNL     1      -1.153  10.683  18.215  0.00  0.00    +0.000 C 
ENDBRANCH  13  15
ENDBRANCH  12  13
ENDBRANCH   7  12
ENDBRANCH   1   9
BRANCH   5  16
ATOM     16  S   UNL     1       2.957   2.744  17.853  0.00  0.00    +0.000 S 
ATOM     17  O   UNL     1       2.659   1.530  18.579  0.00  0.00    +0.000 OA
ATOM     18  O   UNL     1       2.329   3.015  16.574  0.00  0.00    +0.000 OA
BRANCH  16  19
ATOM     19  N   UNL     1       4.648   2.771  17.627  0.00  0.00    +0.000 N 
ATOM     20  H   UNL     1       4.932   1.871  17.239  0.00  0.00    +0.000 HD
BRANCH  19  21
ATOM     21  C   UNL     1       5.224   3.915  16.965  0.00  0.00    +0.000 A 
ATOM     22  C   UNL     1       4.926   4.037  15.599  0.00  0.00    +0.000 A 
ATOM     23  C   UNL     1       5.529   5.023  14.826  0.00  0.00    +0.000 A 
ATOM     24  C   UNL     1       6.405   5.925  15.415  0.00  0.00    +0.000 A 
ATOM     25  C   UNL     1       6.681   5.846  16.785  0.00  0.00    +0.000 A 
ATOM     26  C   UNL     1       7.557   6.767  17.368  0.00  0.00    +0.000 A 
ATOM     27  N   UNL     1       7.911   6.778  18.667  0.00  0.00    +0.000 NA
ATOM     28  C   UNL     1       7.374   5.813  19.433  0.00  0.00    +0.000 A 
ATOM     29  C   UNL     1       6.497   4.841  18.961  0.00  0.00    +0.000 A 
ATOM     30  C   UNL     1       6.111   4.836  17.598  0.00  0.00    +0.000 A 
ENDBRANCH  19  21
ENDBRANCH  16  19
ENDBRANCH   5  16
TORSDOF 7
ENDMDL
MODEL 4
REMARK VINA RESULT:      -8.3      2.804      7.482
REMARK  Name = 
REMARK  8 active torsions:
REMARK  status: ('A' for Active; 'I' for Inactive)
REMARK    1  A    between atoms: C_1  and  C_2
REMARK    2  A    between atoms: C_2  and  O_3
REMARK    3  A    between atoms: O_3  and  C_4
REMARK    4  A    between atoms: C_4  and  C_5
REMARK    5  A    between atoms: N_7  and  C_8
REMARK    6  A    between atoms: C_12  and  S_13
REMARK    7  A    between atoms: S_13  and  N_16
REMARK    8  A    between atoms: N_16  and  C_17
REMARK                            x       y       z     vdW  Elec       q    Type
REMARK                         _______ _______ _______ _____ _____    ______ ____
ROOT
ATOM      1  C   UNL     1       2.136   6.492  19.323  0.00  0.00    +0.000 A 
ATOM      2  C   UNL     1       2.070   6.223  20.700  0.00  0.00    +0.000 A 
ATOM      3  C   UNL     1       2.208   4.917  21.165  0.00  0.00    +0.000 A 
ATOM      4  C   UNL     1       2.449   3.886  20.264  0.00  0.00    +0.000 A 
ATOM      5  C   UNL     1       2.539   4.153  18.898  0.00  0.00    +0.000 A 
ATOM      6  C   UNL     1       2.326   5.448  18.405  0.00  0.00    +0.000 A 
ENDROOT
BRANCH   1   9
ATOM      7  C   UNL     1       1.583   9.935  18.597  0.00  0.00    +0.000 A 
ATOM      8  C   UNL     1       1.474   8.905  19.504  0.00  0.00    +0.000 A 
ATOM      9  N   UNL     1       2.072   7.836  18.888  0.00  0.00    +0.000 N 
ATOM     10  N   UNL     1       2.566   8.219  17.687  0.00  0.00    +0.000 NA
ATOM     11  N   UNL     1       2.236   9.485  17.485  0.00  0.00    +0.000 NA
BRANCH   7  12
ATOM     12  C   UNL     1       1.143  11.345  18.709  0.00  0.00    +0.000 C 
BRANCH  12  13
ATOM     13  O   UNL     1       2.231  12.237  18.456  0.00  0.00    +0.000 OA
BRANCH  13  15
ATOM     14  C   UNL     1       2.964  14.478  18.076  0.00  0.00    +0.000 C 
ATOM     15  C   UNL     1       1.802  13.594  18.482  0.00  0.00    +0.000 C 
ENDBRANCH  13  15
ENDBRANCH  12  13
ENDBRANCH   7  12
ENDBRANCH   1   9
BRANCH   5  16
ATOM     16  S   UNL     1       2.885   2.792  17.801  0.00  0.00    +0.000 S 
ATOM     17  O   UNL     1       2.530   1.581  18.508  0.00  0.00    +0.000 OA
ATOM     18  O   UNL     1       2.295   3.095  16.512  0.00  0.00    +0.000 OA
BRANCH  16  19
ATOM     19  N   UNL     1       4.580   2.763  17.613  0.00  0.00    +0.000 N 
ATOM     20  H   UNL     1       4.845   1.850  17.242  0.00  0.00    +0.000 HD
BRANCH  19  21
ATOM     21  C   UNL     1       5.206   3.880  16.950  0.00  0.00    +0.000 A 
ATOM     22  C   UNL     1       4.961   3.981  15.572  0.00  0.00    +0.000 A 
ATOM     23  C   UNL     1       5.614   4.937  14.802  0.00  0.00    +0.000 A 
ATOM     24  C   UNL     1       6.488   5.832  15.405  0.00  0.00    +0.000 A 
ATOM     25  C   UNL     1       6.713   5.774  16.785  0.00  0.00    +0.000 A 
ATOM     26  C   UNL     1       7.588   6.688  17.383  0.00  0.00    +0.000 A 
ATOM     27  N   UNL     1       7.895   6.718  18.693  0.00  0.00    +0.000 NA
ATOM     28  C   UNL     1       7.307   5.781  19.457  0.00  0.00    +0.000 A 
ATOM     29  C   UNL     1       6.426   4.819  18.972  0.00  0.00    +0.000 A 
ATOM     30  C   UNL     1       6.090   4.794  17.596  0.00  0.00    +0.000 A 
ENDBRANCH  19  21
ENDBRANCH  16  19
ENDBRANCH   5  16
TORSDOF 7
ENDMDL
MODEL 5
REMARK VINA RESULT:      -8.2      2.552      7.732
REMARK  Name = 
REMARK  8 active torsions:
REMARK  status: ('A' for Active; 'I' for Inactive)
REMARK    1  A    between atoms: C_1  and  C_2
REMARK    2  A    between atoms: C_2  and  O_3
REMARK    3  A    between atoms: O_3  and  C_4
REMARK    4  A    between atoms: C_4  and  C_5
REMARK    5  A    between atoms: N_7  and  C_8
REMARK    6  A    between atoms: C_12  and  S_13
REMARK    7  A    between atoms: S_13  and  N_16
REMARK    8  A    between atoms: N_16  and  C_17
REMARK                            x       y       z     vdW  Elec       q    Type
REMARK                         _______ _______ _______ _____ _____    ______ ____
ROOT
ATOM      1  C   UNL     1       1.956   6.631  19.331  0.00  0.00    +0.000 A 
ATOM      2  C   UNL     1       1.851   6.355  20.704  0.00  0.00    +0.000 A 
ATOM      3  C   UNL     1       1.946   5.044  21.163  0.00  0.00    +0.000 A 
ATOM      4  C   UNL     1       2.183   4.012  20.262  0.00  0.00    +0.000 A 
ATOM      5  C   UNL     1       2.312   4.285  18.899  0.00  0.00    +0.000 A 
ATOM      6  C   UNL     1       2.143   5.588  18.411  0.00  0.00    +0.000 A 
ENDROOT
BRANCH   1   9
ATOM      7  C   UNL     1       1.494  10.087  18.605  0.00  0.00    +0.000 A 
ATOM      8  C   UNL     1       1.325   9.053  19.498  0.00  0.00    +0.000 A 
ATOM      9  N   UNL     1       1.935   7.978  18.904  0.00  0.00    +0.000 N 
ATOM     10  N   UNL     1       2.492   8.361  17.730  0.00  0.00    +0.000 NA
ATOM     11  N   UNL     1       2.192   9.634  17.522  0.00  0.00    +0.000 NA
BRANCH   7  12
ATOM     12  C   UNL     1       1.072  11.503  18.707  0.00  0.00    +0.000 C 
BRANCH  12  13
ATOM     13  O   UNL     1      -0.235  11.602  19.279  0.00  0.00    +0.000 OA
BRANCH  13  15
ATOM     14  C   UNL     1      -1.858  10.755  17.746  0.00  0.00    +0.000 C 
ATOM     15  C   UNL     1      -1.195  11.998  18.305  0.00  0.00    +0.000 C 
ENDBRANCH  13  15
ENDBRANCH  12  13
ENDBRANCH   7  12
ENDBRANCH   1   9
BRANCH   5  16
ATOM     16  S   UNL     1       2.652   2.923  17.802  0.00  0.00    +0.000 S 
ATOM     17  O   UNL     1       1.940   1.776  18.322  0.00  0.00    +0.000 OA
ATOM     18  O   UNL     1       2.430   3.377  16.443  0.00  0.00    +0.000 OA
BRANCH  16  19
ATOM     19  N   UNL     1       4.314   2.582  17.980  0.00  0.00    +0.000 N 
ATOM     20  H   UNL     1       4.551   1.811  17.355  0.00  0.00    +0.000 HD
BRANCH  19  21
ATOM     21  C   UNL     1       5.239   3.687  17.940  0.00  0.00    +0.000 A 
ATOM     22  C   UNL     1       5.490   4.311  19.172  0.00  0.00    +0.000 A 
ATOM     23  C   UNL     1       6.260   5.467  19.239  0.00  0.00    +0.000 A 
ATOM     24  C   UNL     1       6.824   5.991  18.084  0.00  0.00    +0.000 A 
ATOM     25  C   UNL     1       6.621   5.358  16.852  0.00  0.00    +0.000 A 
ATOM     26  C   UNL     1       7.203   5.889  15.696  0.00  0.00    +0.000 A 
ATOM     27  N   UNL     1       7.063   5.380  14.458  0.00  0.00    +0.000 NA
ATOM     28  C   UNL     1       6.293   4.283  14.355  0.00  0.00    +0.000 A 
ATOM     29  C   UNL     1       5.659   3.672  15.433  0.00  0.00    +0.000 A 
ATOM     30  C   UNL     1       5.816   4.197  16.740  0.00  0.00    +0.000 A 
ENDBRANCH  19  21
ENDBRANCH  16  19
ENDBRANCH   5  16
TORSDOF 7
ENDMDL
MODEL 6
REMARK VINA RESULT:      -8.2      2.750      7.820
REMARK  Name = 
REMARK  8 active torsions:
REMARK  status: ('A' for Active; 'I' for Inactive)
REMARK    1  A    between atoms: C_1  and  C_2
REMARK    2  A    between atoms: C_2  and  O_3
REMARK    3  A    between atoms: O_3  and  C_4
REMARK    4  A    between atoms: C_4  and  C_5
REMARK    5  A    between atoms: N_7  and  C_8
REMARK    6  A    between atoms: C_12  and  S_13
REMARK    7  A    between atoms: S_13  and  N_16
REMARK    8  A    between atoms: N_16  and  C_17
REMARK                            x       y       z     vdW  Elec       q    Type
REMARK                         _______ _______ _______ _____ _____    ______ ____
ROOT
ATOM      1  C   UNL     1       1.979   6.626  19.279  0.00  0.00    +0.000 A 
ATOM      2  C   UNL     1       1.829   6.347  20.647  0.00  0.00    +0.000 A 
ATOM      3  C   UNL     1       1.885   5.032  21.103  0.00  0.00    +0.000 A 
ATOM      4  C   UNL     1       2.129   4.000  20.203  0.00  0.00    +0.000 A 
ATOM      5  C   UNL     1       2.303   4.276  18.847  0.00  0.00    +0.000 A 
ATOM      6  C   UNL     1       2.173   5.584  18.360  0.00  0.00    +0.000 A 
ENDROOT
BRANCH   1   9
ATOM      7  C   UNL     1       1.639  10.105  18.593  0.00  0.00    +0.000 A 
ATOM      8  C   UNL     1       1.475   9.074  19.491  0.00  0.00    +0.000 A 
ATOM      9  N   UNL     1       1.996   7.976  18.858  0.00  0.00    +0.000 N 
ATOM     10  N   UNL     1       2.500   8.339  17.654  0.00  0.00    +0.000 NA
ATOM     11  N   UNL     1       2.249   9.626  17.468  0.00  0.00    +0.000 NA
BRANCH   7  12
ATOM     12  C   UNL     1       1.291  11.539  18.724  0.00  0.00    +0.000 C 
BRANCH  12  13
ATOM     13  O   UNL     1       2.334  12.363  18.197  0.00  0.00    +0.000 OA
BRANCH  13  15
ATOM     14  C   UNL     1       3.443  14.478  18.218  0.00  0.00    +0.000 C 
ATOM     15  C   UNL     1       2.437  13.587  18.918  0.00  0.00    +0.000 C 
ENDBRANCH  13  15
ENDBRANCH  12  13
ENDBRANCH   7  12
ENDBRANCH   1   9
BRANCH   5  16
ATOM     16  S   UNL     1       2.648   2.912  17.753  0.00  0.00    +0.000 S 
ATOM     17  O   UNL     1       1.925   1.770  18.265  0.00  0.00    +0.000 OA
ATOM     18  O   UNL     1       2.445   3.368  16.392  0.00  0.00    +0.000 OA
BRANCH  16  19
ATOM     19  N   UNL     1       4.306   2.563  17.951  0.00  0.00    +0.000 N 
ATOM     20  H   UNL     1       4.553   1.809  17.309  0.00  0.00    +0.000 HD
BRANCH  19  21
ATOM     21  C   UNL     1       5.234   3.667  17.959  0.00  0.00    +0.000 A 
ATOM     22  C   UNL     1       5.420   4.292  19.201  0.00  0.00    +0.000 A 
ATOM     23  C   UNL     1       6.188   5.447  19.307  0.00  0.00    +0.000 A 
ATOM     24  C   UNL     1       6.813   5.968  18.183  0.00  0.00    +0.000 A 
ATOM     25  C   UNL     1       6.674   5.334  16.943  0.00  0.00    +0.000 A 
ATOM     26  C   UNL     1       7.317   5.862  15.819  0.00  0.00    +0.000 A 
ATOM     27  N   UNL     1       7.243   5.351  14.575  0.00  0.00    +0.000 NA
ATOM     28  C   UNL     1       6.477   4.256  14.434  0.00  0.00    +0.000 A 
ATOM     29  C   UNL     1       5.786   3.647  15.478  0.00  0.00    +0.000 A 
ATOM     30  C   UNL     1       5.875   4.174  16.790  0.00  0.00    +0.000 A 
ENDBRANCH  19  21
ENDBRANCH  16  19
ENDBRANCH   5  16
TORSDOF 7
ENDMDL
MODEL 7
REMARK VINA RESULT:      -8.2      2.889      3.980
REMARK  Name = 
REMARK  8 active torsions:
REMARK  status: ('A' for Active; 'I' for Inactive)
REMARK    1  A    between atoms: C_1  and  C_2
REMARK    2  A    between atoms: C_2  and  O_3
REMARK    3  A    between atoms: O_3  and  C_4
REMARK    4  A    between atoms: C_4  and  C_5
REMARK    5  A    between atoms: N_7  and  C_8
REMARK    6  A    between atoms: C_12  and  S_13
REMARK    7  A    between atoms: S_13  and  N_16
REMARK    8  A    between atoms: N_16  and  C_17
REMARK                            x       y       z     vdW  Elec       q    Type
REMARK                         _______ _______ _______ _____ _____    ______ ____
ROOT
ATOM      1  C   UNL     1       6.144   5.518  16.375  0.00  0.00    +0.000 A 
ATOM      2  C   UNL     1       6.919   5.121  17.477  0.00  0.00    +0.000 A 
ATOM      3  C   UNL     1       6.467   5.363  18.772  0.00  0.00    +0.000 A 
ATOM      4  C   UNL     1       5.230   5.965  18.971  0.00  0.00    +0.000 A 
ATOM      5  C   UNL     1       4.447   6.340  17.878  0.00  0.00    +0.000 A 
ATOM      6  C   UNL     1       4.919   6.174  16.569  0.00  0.00    +0.000 A 
ENDROOT
BRANCH   1   9
ATOM      7  C   UNL     1       6.948   4.251  13.145  0.00  0.00    +0.000 A 
ATOM      8  C   UNL     1       6.055   4.286  14.192  0.00  0.00    +0.000 A 
ATOM      9  N   UNL     1       6.590   5.188  15.075  0.00  0.00    +0.000 N 
ATOM     10  N   UNL     1       7.727   5.713  14.557  0.00  0.00    +0.000 NA
ATOM     11  N   UNL     1       7.973   5.116  13.401  0.00  0.00    +0.000 NA
BRANCH   7  12
ATOM     12  C   UNL     1       6.895   3.478  11.882  0.00  0.00    +0.000 C 
BRANCH  12  13
ATOM     13  O   UNL     1       6.115   2.291  12.047  0.00  0.00    +0.000 OA
BRANCH  13  15
ATOM     14  C   UNL     1       4.058   3.268  11.329  0.00  0.00    +0.000 C 
ATOM     15  C   UNL     1       5.098   2.201  11.055  0.00  0.00    +0.000 C 
ENDBRANCH  13  15
ENDBRANCH  12  13
ENDBRANCH   7  12
ENDBRANCH   1   9
BRANCH   5  16
ATOM     16  S   UNL     1       2.856   7.074  18.203  0.00  0.00    +0.000 S 
ATOM     17  O   UNL     1       2.825   7.406  19.609  0.00  0.00    +0.000 OA
ATOM     18  O   UNL     1       2.619   8.090  17.197  0.00  0.00    +0.000 OA
BRANCH  16  19
ATOM     19  N   UNL     1       1.712   5.829  17.974  0.00  0.00    +0.000 N 
ATOM     20  H   UNL     1       1.273   5.962  17.063  0.00  0.00    +0.000 HD
BRANCH  19  21
ATOM     21  C   UNL     1       2.123   4.474  18.246  0.00  0.00    +0.000 A 
ATOM     22  C   UNL     1       2.361   3.676  17.117  0.00  0.00    +0.000 A 
ATOM     23  C   UNL     1       2.635   2.319  17.251  0.00  0.00    +0.000 A 
ATOM     24  C   UNL     1       2.715   1.750  18.514  0.00  0.00    +0.000 A 
ATOM     25  C   UNL     1       2.523   2.540  19.654  0.00  0.00    +0.000 A 
ATOM     26  C   UNL     1       2.616   1.958  20.923  0.00  0.00    +0.000 A 
ATOM     27  N   UNL     1       2.434   2.610  22.087  0.00  0.00    +0.000 NA
ATOM     28  C   UNL     1       2.130   3.916  21.988  0.00  0.00    +0.000 A 
ATOM     29  C   UNL     1       2.004   4.599  20.782  0.00  0.00    +0.000 A 
ATOM     30  C   UNL     1       2.211   3.918  19.557  0.00  0.00    +0.000 A 
ENDBRANCH  19  21
ENDBRANCH  16  19
ENDBRANCH   5  16
TORSDOF 7
ENDMDL
MODEL 8
REMARK VINA RESULT:      -8.0      2.763      7.932
REMARK  Name = 
REMARK  8 active torsions:
REMARK  status: ('A' for Active; 'I' for Inactive)
REMARK    1  A    between atoms: C_1  and  C_2
REMARK    2  A    between atoms: C_2  and  O_3
REMARK    3  A    between atoms: O_3  and  C_4
REMARK    4  A    between atoms: C_4  and  C_5
REMARK    5  A    between atoms: N_7  and  C_8
REMARK    6  A    between atoms: C_12  and  S_13
REMARK    7  A    between atoms: S_13  and  N_16
REMARK    8  A    between atoms: N_16  and  C_17
REMARK                            x       y       z     vdW  Elec       q    Type
REMARK                         _______ _______ _______ _____ _____    ______ ____
ROOT
ATOM      1  C   UNL     1       2.030   6.032  19.944  0.00  0.00    +0.000 A 
ATOM      2  C   UNL     1       2.069   5.526  21.253  0.00  0.00    +0.000 A 
ATOM      3  C   UNL     1       2.330   4.175  21.473  0.00  0.00    +0.000 A 
ATOM      4  C   UNL     1       2.589   3.338  20.394  0.00  0.00    +0.000 A 
ATOM      5  C   UNL     1       2.575   3.843  19.093  0.00  0.00    +0.000 A 
ATOM      6  C   UNL     1       2.239   5.181  18.848  0.00  0.00    +0.000 A 
ENDROOT
BRANCH   1   9
ATOM      7  C   UNL     1       1.249   9.507  19.918  0.00  0.00    +0.000 A 
ATOM      8  C   UNL     1       1.360   8.345  20.647  0.00  0.00    +0.000 A 
ATOM      9  N   UNL     1       1.842   7.421  19.756  0.00  0.00    +0.000 N 
ATOM     10  N   UNL     1       2.061   8.013  18.558  0.00  0.00    +0.000 NA
ATOM     11  N   UNL     1       1.663   9.274  18.637  0.00  0.00    +0.000 NA
BRANCH   7  12
ATOM     12  C   UNL     1       0.806  10.854  20.346  0.00  0.00    +0.000 C 
BRANCH  12  13
ATOM     13  O   UNL     1      -0.551  10.822  20.798  0.00  0.00    +0.000 OA
BRANCH  13  15
ATOM     14  C   UNL     1      -0.763  10.179  23.087  0.00  0.00    +0.000 C 
ATOM     15  C   UNL     1      -0.667  11.340  22.119  0.00  0.00    +0.000 C 
ENDBRANCH  13  15
ENDBRANCH  12  13
ENDBRANCH   7  12
ENDBRANCH   1   9
BRANCH   5  16
ATOM     16  S   UNL     1       2.952   2.724  17.758  0.00  0.00    +0.000 S 
ATOM     17  O   UNL     1       2.627   1.393  18.220  0.00  0.00    +0.000 OA
ATOM     18  O   UNL     1       2.353   3.254  16.549  0.00  0.00    +0.000 OA
BRANCH  16  19
ATOM     19  N   UNL     1       4.647   2.772  17.573  0.00  0.00    +0.000 N 
ATOM     20  H   UNL     1       4.951   1.880  17.179  0.00  0.00    +0.000 HD
BRANCH  19  21
ATOM     21  C   UNL     1       5.226   3.931  16.940  0.00  0.00    +0.000 A 
ATOM     22  C   UNL     1       4.931   4.085  15.577  0.00  0.00    +0.000 A 
ATOM     23  C   UNL     1       5.537   5.090  14.829  0.00  0.00    +0.000 A 
ATOM     24  C   UNL     1       6.412   5.977  15.441  0.00  0.00    +0.000 A 
ATOM     25  C   UNL     1       6.685   5.864  16.809  0.00  0.00    +0.000 A 
ATOM     26  C   UNL     1       7.561   6.770  17.417  0.00  0.00    +0.000 A 
ATOM     27  N   UNL     1       7.912   6.750  18.717  0.00  0.00    +0.000 NA
ATOM     28  C   UNL     1       7.371   5.767  19.458  0.00  0.00    +0.000 A 
ATOM     29  C   UNL     1       6.495   4.807  18.960  0.00  0.00    +0.000 A 
ATOM     30  C   UNL     1       6.112   4.835  17.596  0.00  0.00    +0.000 A 
ENDBRANCH  19  21
ENDBRANCH  16  19
ENDBRANCH   5  16
TORSDOF 7
ENDMDL
MODEL 9
REMARK VINA RESULT:      -8.0      2.780      4.572
REMARK  Name = 
REMARK  8 active torsions:
REMARK  status: ('A' for Active; 'I' for Inactive)
REMARK    1  A    between atoms: C_1  and  C_2
REMARK    2  A    between atoms: C_2  and  O_3
REMARK    3  A    between atoms: O_3  and  C_4
REMARK    4  A    between atoms: C_4  and  C_5
REMARK    5  A    between atoms: N_7  and  C_8
REMARK    6  A    between atoms: C_12  and  S_13
REMARK    7  A    between atoms: S_13  and  N_16
REMARK    8  A    between atoms: N_16  and  C_17
REMARK                            x       y       z     vdW  Elec       q    Type
REMARK                         _______ _______ _______ _____ _____    ______ ____
ROOT
ATOM      1  C   UNL     1       5.910   5.505  16.762  0.00  0.00    +0.000 A 
ATOM      2  C   UNL     1       6.660   5.082  17.871  0.00  0.00    +0.000 A 
ATOM      3  C   UNL     1       6.178   5.293  19.161  0.00  0.00    +0.000 A 
ATOM      4  C   UNL     1       4.936   5.889  19.346  0.00  0.00    +0.000 A 
ATOM      5  C   UNL     1       4.178   6.289  18.245  0.00  0.00    +0.000 A 
ATOM      6  C   UNL     1       4.679   6.154  16.943  0.00  0.00    +0.000 A 
ENDROOT
BRANCH   1   9
ATOM      7  C   UNL     1       6.745   4.352  13.497  0.00  0.00    +0.000 A 
ATOM      8  C   UNL     1       5.808   4.420  14.503  0.00  0.00    +0.000 A 
ATOM      9  N   UNL     1       6.387   5.206  15.465  0.00  0.00    +0.000 N 
ATOM     10  N   UNL     1       7.597   5.636  15.034  0.00  0.00    +0.000 NA
ATOM     11  N   UNL     1       7.840   5.086  13.855  0.00  0.00    +0.000 NA
BRANCH   7  12
ATOM     12  C   UNL     1       6.678   3.665  12.186  0.00  0.00    +0.000 C 
BRANCH  12  13
ATOM     13  O   UNL     1       5.423   2.998  12.027  0.00  0.00    +0.000 OA
BRANCH  13  15
ATOM     14  C   UNL     1       3.273   2.963  10.988  0.00  0.00    +0.000 C 
ATOM     15  C   UNL     1       4.649   3.598  10.993  0.00  0.00    +0.000 C 
ENDBRANCH  13  15
ENDBRANCH  12  13
ENDBRANCH   7  12
ENDBRANCH   1   9
BRANCH   5  16
ATOM     16  S   UNL     1       2.578   7.013  18.549  0.00  0.00    +0.000 S 
ATOM     17  O   UNL     1       2.557   7.416  19.938  0.00  0.00    +0.000 OA
ATOM     18  O   UNL     1       2.314   7.973  17.496  0.00  0.00    +0.000 OA
BRANCH  16  19
ATOM     19  N   UNL     1       1.452   5.740  18.398  0.00  0.00    +0.000 N 
ATOM     20  H   UNL     1       1.292   5.571  17.404  0.00  0.00    +0.000 HD
BRANCH  19  21
ATOM     21  C   UNL     1       1.671   4.546  19.177  0.00  0.00    +0.000 A 
ATOM     22  C   UNL     1       1.164   4.577  20.485  0.00  0.00    +0.000 A 
ATOM     23  C   UNL     1       1.427   3.539  21.372  0.00  0.00    +0.000 A 
ATOM     24  C   UNL     1       2.163   2.439  20.953  0.00  0.00    +0.000 A 
ATOM     25  C   UNL     1       2.641   2.371  19.639  0.00  0.00    +0.000 A 
ATOM     26  C   UNL     1       3.373   1.254  19.225  0.00  0.00    +0.000 A 
ATOM     27  N   UNL     1       3.895   1.085  17.996  0.00  0.00    +0.000 NA
ATOM     28  C   UNL     1       3.690   2.090  17.126  0.00  0.00    +0.000 A 
ATOM     29  C   UNL     1       2.984   3.251  17.428  0.00  0.00    +0.000 A 
ATOM     30  C   UNL     1       2.420   3.423  18.716  0.00  0.00    +0.000 A 
ENDBRANCH  19  21
ENDBRANCH  16  19
ENDBRANCH   5  16
TORSDOF 7
ENDMDL
