MODEL 1
REMARK VINA RESULT:      -7.2      0.000      0.000
REMARK  Name = 
REMARK  10 active torsions:
REMARK  status: ('A' for Active; 'I' for Inactive)
REMARK    1  A    between atoms: C_1  and  O_2
REMARK    2  A    between atoms: O_2  and  C_3
REMARK    3  A    between atoms: C_8  and  N_9
REMARK    4  A    between atoms: N_9  and  C_10
REMARK    5  A    between atoms: C_10  and  C_11
REMARK    6  A    between atoms: N_13  and  C_14
REMARK    7  A    between atoms: C_14  and  C_15
REMARK    8  A    between atoms: C_14  and  C_16
REMARK    9  A    between atoms: C_14  and  C_17
REMARK   10  A    between atoms: C_18  and  C_20
REMARK                            x       y       z     vdW  Elec       q    Type
REMARK                         _______ _______ _______ _____ _____    ______ ____
ROOT
ATOM      1  N   UNL     1       5.396   4.369  17.170  0.00  0.00    +0.000 N 
ATOM      2  C   UNL     1       4.127   4.403  17.746  0.00  0.00    +0.000 C 
ATOM      3  O   UNL     1       3.808   5.249  18.585  0.00  0.00    +0.000 OA
ENDROOT
BRANCH   1   9
ATOM      4  C   UNL     1       6.423   6.644  17.073  0.00  0.00    +0.000 A 
ATOM      5  C   UNL     1       7.339   7.562  17.605  0.00  0.00    +0.000 A 
ATOM      6  C   UNL     1       8.214   7.187  18.628  0.00  0.00    +0.000 A 
ATOM      7  C   UNL     1       8.185   5.887  19.117  0.00  0.00    +0.000 A 
ATOM      8  C   UNL     1       7.284   4.962  18.586  0.00  0.00    +0.000 A 
ATOM      9  C   UNL     1       6.364   5.335  17.583  0.00  0.00    +0.000 A 
BRANCH   4  11
ATOM     10  C   UNL     1       4.356   7.638  16.509  0.00  0.00    +0.000 C 
ATOM     11  O   UNL     1       5.627   7.154  16.079  0.00  0.00    +0.000 OA
ENDBRANCH   4  11
ENDBRANCH   1   9
BRANCH   2  12
ATOM     12  C   UNL     1       3.114   3.321  17.359  0.00  0.00    +0.000 C 
ATOM     13  C   UNL     1       3.376   1.995  18.059  0.00  0.00    +0.000 C 
ATOM     14  S   UNL     1       2.580   2.114  19.684  0.00  0.00    +0.000 S 
ATOM     15  C   UNL     1       1.514   3.422  19.193  0.00  0.00    +0.000 C 
ATOM     16  O   UNL     1       0.661   3.902  19.923  0.00  0.00    +0.000 OA
ATOM     17  C   UNL     1       1.701   3.767  17.739  0.00  0.00    +0.000 C 
ENDBRANCH   2  12
BRANCH   1  18
ATOM     18  C   UNL     1       5.829   3.407  16.143  0.00  0.00    +0.000 C 
BRANCH  18  19
ATOM     19  C   UNL     1       5.668   3.880  14.683  0.00  0.00    +0.000 C 
ATOM     20  O   UNL     1       4.986   4.872  14.435  0.00  0.00    +0.000 OA
ATOM     21  N   UNL     1       6.328   3.148  13.720  0.00  0.00    +0.000 N 
ATOM     22  H   UNL     1       6.673   2.241  14.007  0.00  0.00    +0.000 HD
BRANCH  21  23
ATOM     23  C   UNL     1       6.255   3.416  12.270  0.00  0.00    +0.000 C 
ATOM     24  C   UNL     1       7.106   4.640  11.891  0.00  0.00    +0.000 C 
ATOM     25  C   UNL     1       6.826   2.198  11.515  0.00  0.00    +0.000 C 
ATOM     26  C   UNL     1       4.801   3.621  11.820  0.00  0.00    +0.000 C 
ENDBRANCH  21  23
ENDBRANCH  18  19
ENDBRANCH   1  18
TORSDOF 6
ENDMDL
MODEL 2
REMARK VINA RESULT:      -7.0      0.995      1.885
REMARK  Name = 
REMARK  10 active torsions:
REMARK  status: ('A' for Active; 'I' for Inactive)
REMARK    1  A    between atoms: C_1  and  O_2
REMARK    2  A    between atoms: O_2  and  C_3
REMARK    3  A    between atoms: C_8  and  N_9
REMARK    4  A    between atoms: N_9  and  C_10
REMARK    5  A    between atoms: C_10  and  C_11
REMARK    6  A    between atoms: N_13  and  C_14
REMARK    7  A    between atoms: C_14  and  C_15
REMARK    8  A    between atoms: C_14  and  C_16
REMARK    9  A    between atoms: C_14  and  C_17
REMARK   10  A    between atoms: C_18  and  C_20
REMARK                            x       y       z     vdW  Elec       q    Type
REMARK                         _______ _______ _______ _____ _____    ______ ____
ROOT
ATOM      1  N   UNL     1       5.446   4.944  17.166  0.00  0.00    +0.000 N 
ATOM      2  C   UNL     1       4.161   4.895  17.705  0.00  0.00    +0.000 C 
ATOM      3  O   UNL     1       3.728   5.775  18.453  0.00  0.00    +0.000 OA
ENDROOT
BRANCH   1   9
ATOM      4  C   UNL     1       7.351   5.944  18.435  0.00  0.00    +0.000 A 
ATOM      5  C   UNL     1       8.202   7.039  18.643  0.00  0.00    +0.000 A 
ATOM      6  C   UNL     1       7.999   8.241  17.958  0.00  0.00    +0.000 A 
ATOM      7  C   UNL     1       6.937   8.357  17.069  0.00  0.00    +0.000 A 
ATOM      8  C   UNL     1       6.079   7.275  16.863  0.00  0.00    +0.000 A 
ATOM      9  C   UNL     1       6.294   6.041  17.513  0.00  0.00    +0.000 A 
BRANCH   4  11
ATOM     10  C   UNL     1       8.414   5.089  20.364  0.00  0.00    +0.000 C 
ATOM     11  O   UNL     1       7.674   4.832  19.171  0.00  0.00    +0.000 OA
ENDBRANCH   4  11
ENDBRANCH   1   9
BRANCH   2  12
ATOM     12  C   UNL     1       3.280   3.682  17.395  0.00  0.00    +0.000 C 
ATOM     13  C   UNL     1       3.713   2.434  18.151  0.00  0.00    +0.000 C 
ATOM     14  S   UNL     1       2.939   2.538  19.788  0.00  0.00    +0.000 S 
ATOM     15  C   UNL     1       1.713   3.682  19.261  0.00  0.00    +0.000 C 
ATOM     16  O   UNL     1       0.823   4.093  19.988  0.00  0.00    +0.000 OA
ATOM     17  C   UNL     1       1.830   3.973  17.788  0.00  0.00    +0.000 C 
ENDBRANCH   2  12
BRANCH   1  18
ATOM     18  C   UNL     1       6.012   3.945  16.245  0.00  0.00    +0.000 C 
BRANCH  18  19
ATOM     19  C   UNL     1       5.833   4.253  14.743  0.00  0.00    +0.000 C 
ATOM     20  O   UNL     1       5.254   5.281  14.397  0.00  0.00    +0.000 OA
ATOM     21  N   UNL     1       6.358   3.338  13.858  0.00  0.00    +0.000 N 
ATOM     22  H   UNL     1       6.613   2.438  14.244  0.00  0.00    +0.000 HD
BRANCH  21  23
ATOM     23  C   UNL     1       6.244   3.434  12.389  0.00  0.00    +0.000 C 
ATOM     24  C   UNL     1       7.132   4.563  11.839  0.00  0.00    +0.000 C 
ATOM     25  C   UNL     1       6.733   2.110  11.769  0.00  0.00    +0.000 C 
ATOM     26  C   UNL     1       4.785   3.653  11.964  0.00  0.00    +0.000 C 
ENDBRANCH  21  23
ENDBRANCH  18  19
ENDBRANCH   1  18
TORSDOF 6
ENDMDL
MODEL 3
REMARK VINA RESULT:      -7.0      3.188      6.993
REMARK  Name = 
REMARK  10 active torsions:
REMARK  status: ('A' for Active; 'I' for Inactive)
REMARK    1  A    between atoms: C_1  and  O_2
REMARK    2  A    between atoms: O_2  and  C_3
REMARK    3  A    between atoms: C_8  and  N_9
REMARK    4  A    between atoms: N_9  and  C_10
REMARK    5  A    between atoms: C_10  and  C_11
REMARK    6  A    between atoms: N_13  and  C_14
REMARK    7  A    between atoms: C_14  and  C_15
REMARK    8  A    between atoms: C_14  and  C_16
REMARK    9  A    between atoms: C_14  and  C_17
REMARK   10  A    between atoms: C_18  and  C_20
REMARK                            x       y       z     vdW  Elec       q    Type
REMARK                         _______ _______ _______ _____ _____    ______ ____
ROOT
ATOM      1  N   UNL     1       3.334   5.345  18.637  0.00  0.00    +0.000 N 
ATOM      2  C   UNL     1       4.721   5.223  18.576  0.00  0.00    +0.000 C 
ATOM      3  O   UNL     1       5.333   4.351  19.197  0.00  0.00    +0.000 OA
ENDROOT
BRANCH   1   9
ATOM      4  C   UNL     1       1.905   3.323  18.971  0.00  0.00    +0.000 A 
ATOM      5  C   UNL     1       1.297   2.427  19.861  0.00  0.00    +0.000 A 
ATOM      6  C   UNL     1       1.352   2.642  21.241  0.00  0.00    +0.000 A 
ATOM      7  C   UNL     1       2.009   3.761  21.738  0.00  0.00    +0.000 A 
ATOM      8  C   UNL     1       2.610   4.665  20.859  0.00  0.00    +0.000 A 
ATOM      9  C   UNL     1       2.601   4.441  19.466  0.00  0.00    +0.000 A 
BRANCH   4  11
ATOM     10  C   UNL     1       2.832   2.186  17.119  0.00  0.00    +0.000 C 
ATOM     11  O   UNL     1       1.773   2.982  17.649  0.00  0.00    +0.000 OA
ENDBRANCH   4  11
ENDBRANCH   1   9
BRANCH   2  12
ATOM     12  C   UNL     1       5.513   6.240  17.749  0.00  0.00    +0.000 C 
ATOM     13  C   UNL     1       7.009   5.959  17.750  0.00  0.00    +0.000 C 
ATOM     14  S   UNL     1       7.296   4.726  16.452  0.00  0.00    +0.000 S 
ATOM     15  C   UNL     1       5.788   5.084  15.622  0.00  0.00    +0.000 C 
ATOM     16  O   UNL     1       5.457   4.550  14.575  0.00  0.00    +0.000 OA
ATOM     17  C   UNL     1       5.045   6.209  16.292  0.00  0.00    +0.000 C 
ENDBRANCH   2  12
BRANCH   1  18
ATOM     18  C   UNL     1       2.543   6.343  17.898  0.00  0.00    +0.000 C 
BRANCH  18  19
ATOM     19  C   UNL     1       2.142   7.598  18.703  0.00  0.00    +0.000 C 
ATOM     20  O   UNL     1       2.508   7.714  19.871  0.00  0.00    +0.000 OA
ATOM     21  N   UNL     1       1.389   8.542  18.041  0.00  0.00    +0.000 N 
ATOM     22  H   UNL     1       0.968   8.246  17.170  0.00  0.00    +0.000 HD
BRANCH  21  23
ATOM     23  C   UNL     1       0.871   9.780  18.656  0.00  0.00    +0.000 C 
ATOM     24  C   UNL     1       1.840  10.954  18.436  0.00  0.00    +0.000 C 
ATOM     25  C   UNL     1      -0.466  10.144  17.979  0.00  0.00    +0.000 C 
ATOM     26  C   UNL     1       0.611   9.582  20.157  0.00  0.00    +0.000 C 
ENDBRANCH  21  23
ENDBRANCH  18  19
ENDBRANCH   1  18
TORSDOF 6
ENDMDL
MODEL 4
REMARK VINA RESULT:      -6.9      2.773      5.575
REMARK  Name = 
REMARK  10 active torsions:
REMARK  status: ('A' for Active; 'I' for Inactive)
REMARK    1  A    between atoms: C_1  and  O_2
REMARK    2  A    between atoms: O_2  and  C_3
REMARK    3  A    between atoms: C_8  and  N_9
REMARK    4  A    between atoms: N_9  and  C_10
REMARK    5  A    between atoms: C_10  and  C_11
REMARK    6  A    between atoms: N_13  and  C_14
REMARK    7  A    between atoms: C_14  and  C_15
REMARK    8  A    between atoms: C_14  and  C_16
REMARK    9  A    between atoms: C_14  and  C_17
REMARK   10  A    between atoms: C_18  and  C_20
REMARK                            x       y       z     vdW  Elec       q    Type
REMARK                         _______ _______ _______ _____ _____    ______ ____
ROOT
ATOM      1  N   UNL     1       3.960   5.373  18.072  0.00  0.00    +0.000 N 
ATOM      2  C   UNL     1       3.029   4.339  18.152  0.00  0.00    +0.000 C 
ATOM      3  O   UNL     1       3.157   3.288  17.520  0.00  0.00    +0.000 OA
ENDROOT
BRANCH   1   9
ATOM      4  C   UNL     1       6.363   4.828  17.660  0.00  0.00    +0.000 A 
ATOM      5  C   UNL     1       7.391   4.596  16.736  0.00  0.00    +0.000 A 
ATOM      6  C   UNL     1       7.173   4.768  15.366  0.00  0.00    +0.000 A 
ATOM      7  C   UNL     1       5.927   5.182  14.913  0.00  0.00    +0.000 A 
ATOM      8  C   UNL     1       4.898   5.425  15.826  0.00  0.00    +0.000 A 
ATOM      9  C   UNL     1       5.088   5.215  17.209  0.00  0.00    +0.000 A 
BRANCH   4  11
ATOM     10  C   UNL     1       7.530   5.638  19.547  0.00  0.00    +0.000 C 
ATOM     11  O   UNL     1       6.721   4.616  18.967  0.00  0.00    +0.000 OA
ENDBRANCH   4  11
ENDBRANCH   1   9
BRANCH   2  12
ATOM     12  C   UNL     1       1.781   4.538  19.017  0.00  0.00    +0.000 C 
ATOM     13  C   UNL     1       0.745   3.441  18.814  0.00  0.00    +0.000 C 
ATOM     14  S   UNL     1       1.238   2.072  19.896  0.00  0.00    +0.000 S 
ATOM     15  C   UNL     1       2.230   3.093  20.926  0.00  0.00    +0.000 C 
ATOM     16  O   UNL     1       2.806   2.683  21.922  0.00  0.00    +0.000 OA
ATOM     17  C   UNL     1       2.164   4.535  20.499  0.00  0.00    +0.000 C 
ENDBRANCH   2  12
BRANCH   1  18
ATOM     18  C   UNL     1       3.881   6.637  18.822  0.00  0.00    +0.000 C 
BRANCH  18  19
ATOM     19  C   UNL     1       2.981   7.723  18.196  0.00  0.00    +0.000 C 
ATOM     20  O   UNL     1       3.070   7.970  16.995  0.00  0.00    +0.000 OA
ATOM     21  N   UNL     1       2.099   8.358  19.042  0.00  0.00    +0.000 N 
ATOM     22  H   UNL     1       2.263   8.233  20.034  0.00  0.00    +0.000 HD
BRANCH  21  23
ATOM     23  C   UNL     1       1.195   9.454  18.640  0.00  0.00    +0.000 C 
ATOM     24  C   UNL     1       0.234   8.997  17.530  0.00  0.00    +0.000 C 
ATOM     25  C   UNL     1       0.342   9.861  19.859  0.00  0.00    +0.000 C 
ATOM     26  C   UNL     1       1.991  10.683  18.179  0.00  0.00    +0.000 C 
ENDBRANCH  21  23
ENDBRANCH  18  19
ENDBRANCH   1  18
TORSDOF 6
ENDMDL
MODEL 5
REMARK VINA RESULT:      -6.7      3.418      7.414
REMARK  Name = 
REMARK  10 active torsions:
REMARK  status: ('A' for Active; 'I' for Inactive)
REMARK    1  A    between atoms: C_1  and  O_2
REMARK    2  A    between atoms: O_2  and  C_3
REMARK    3  A    between atoms: C_8  and  N_9
REMARK    4  A    between atoms: N_9  and  C_10
REMARK    5  A    between atoms: C_10  and  C_11
REMARK    6  A    between atoms: N_13  and  C_14
REMARK    7  A    between atoms: C_14  and  C_15
REMARK    8  A    between atoms: C_14  and  C_16
REMARK    9  A    between atoms: C_14  and  C_17
REMARK   10  A    between atoms: C_18  and  C_20
REMARK                            x       y       z     vdW  Elec       q    Type
REMARK                         _______ _______ _______ _____ _____    ______ ____
ROOT
ATOM      1  N   UNL     1       3.540   5.250  18.601  0.00  0.00    +0.000 N 
ATOM      2  C   UNL     1       3.999   4.898  17.333  0.00  0.00    +0.000 C 
ATOM      3  O   UNL     1       3.764   3.796  16.832  0.00  0.00    +0.000 OA
ENDROOT
BRANCH   1   9
ATOM      4  C   UNL     1       3.382   3.256  20.098  0.00  0.00    +0.000 A 
ATOM      5  C   UNL     1       2.583   2.420  20.889  0.00  0.00    +0.000 A 
ATOM      6  C   UNL     1       1.196   2.587  20.930  0.00  0.00    +0.000 A 
ATOM      7  C   UNL     1       0.599   3.586  20.171  0.00  0.00    +0.000 A 
ATOM      8  C   UNL     1       1.386   4.418  19.371  0.00  0.00    +0.000 A 
ATOM      9  C   UNL     1       2.791   4.292  19.351  0.00  0.00    +0.000 A 
BRANCH   4  11
ATOM     10  C   UNL     1       5.048   1.629  20.494  0.00  0.00    +0.000 C 
ATOM     11  O   UNL     1       4.724   2.978  20.160  0.00  0.00    +0.000 OA
ENDBRANCH   4  11
ENDBRANCH   1   9
BRANCH   2  12
ATOM     12  C   UNL     1       4.866   5.897  16.561  0.00  0.00    +0.000 C 
ATOM     13  C   UNL     1       6.243   6.082  17.182  0.00  0.00    +0.000 C 
ATOM     14  S   UNL     1       7.274   4.737  16.538  0.00  0.00    +0.000 S 
ATOM     15  C   UNL     1       6.225   4.439  15.160  0.00  0.00    +0.000 C 
ATOM     16  O   UNL     1       6.473   3.615  14.294  0.00  0.00    +0.000 OA
ATOM     17  C   UNL     1       5.074   5.410  15.126  0.00  0.00    +0.000 C 
ENDBRANCH   2  12
BRANCH   1  18
ATOM     18  C   UNL     1       3.758   6.557  19.243  0.00  0.00    +0.000 C 
BRANCH  18  19
ATOM     19  C   UNL     1       2.501   7.439  19.393  0.00  0.00    +0.000 C 
ATOM     20  O   UNL     1       1.891   7.806  18.391  0.00  0.00    +0.000 OA
ATOM     21  N   UNL     1       2.121   7.762  20.678  0.00  0.00    +0.000 N 
ATOM     22  H   UNL     1       2.808   7.594  21.402  0.00  0.00    +0.000 HD
BRANCH  21  23
ATOM     23  C   UNL     1       0.979   8.632  21.019  0.00  0.00    +0.000 C 
ATOM     24  C   UNL     1      -0.327   7.824  21.100  0.00  0.00    +0.000 C 
ATOM     25  C   UNL     1       1.231   9.253  22.408  0.00  0.00    +0.000 C 
ATOM     26  C   UNL     1       0.834   9.773  20.002  0.00  0.00    +0.000 C 
ENDBRANCH  21  23
ENDBRANCH  18  19
ENDBRANCH   1  18
TORSDOF 6
ENDMDL
MODEL 6
REMARK VINA RESULT:      -6.6      3.433      7.314
REMARK  Name = 
REMARK  10 active torsions:
REMARK  status: ('A' for Active; 'I' for Inactive)
REMARK    1  A    between atoms: C_1  and  O_2
REMARK    2  A    between atoms: O_2  and  C_3
REMARK    3  A    between atoms: C_8  and  N_9
REMARK    4  A    between atoms: N_9  and  C_10
REMARK    5  A    between atoms: C_10  and  C_11
REMARK    6  A    between atoms: N_13  and  C_14
REMARK    7  A    between atoms: C_14  and  C_15
REMARK    8  A    between atoms: C_14  and  C_16
REMARK    9  A    between atoms: C_14  and  C_17
REMARK   10  A    between atoms: C_18  and  C_20
REMARK                            x       y       z     vdW  Elec       q    Type
REMARK                         _______ _______ _______ _____ _____    ______ ____
ROOT
ATOM      1  N   UNL     1       3.195   5.459  18.721  0.00  0.00    +0.000 N 
ATOM      2  C   UNL     1       4.579   5.370  18.584  0.00  0.00    +0.000 C 
ATOM      3  O   UNL     1       5.239   4.488  19.137  0.00  0.00    +0.000 OA
ENDROOT
BRANCH   1   9
ATOM      4  C   UNL     1       1.862   3.371  19.047  0.00  0.00    +0.000 A 
ATOM      5  C   UNL     1       1.317   2.431  19.933  0.00  0.00    +0.000 A 
ATOM      6  C   UNL     1       1.403   2.618  21.315  0.00  0.00    +0.000 A 
ATOM      7  C   UNL     1       2.027   3.752  21.820  0.00  0.00    +0.000 A 
ATOM      8  C   UNL     1       2.564   4.700  20.946  0.00  0.00    +0.000 A 
ATOM      9  C   UNL     1       2.524   4.506  19.548  0.00  0.00    +0.000 A 
BRANCH   4  11
ATOM     10  C   UNL     1       2.755   2.270  17.158  0.00  0.00    +0.000 C 
ATOM     11  O   UNL     1       1.705   3.054  17.722  0.00  0.00    +0.000 OA
ENDBRANCH   4  11
ENDBRANCH   1   9
BRANCH   2  12
ATOM     12  C   UNL     1       5.306   6.436  17.759  0.00  0.00    +0.000 C 
ATOM     13  C   UNL     1       6.820   6.283  17.807  0.00  0.00    +0.000 C 
ATOM     14  S   UNL     1       7.247   5.058  16.542  0.00  0.00    +0.000 S 
ATOM     15  C   UNL     1       5.739   5.272  15.663  0.00  0.00    +0.000 C 
ATOM     16  O   UNL     1       5.484   4.694  14.618  0.00  0.00    +0.000 OA
ATOM     17  C   UNL     1       4.885   6.341  16.291  0.00  0.00    +0.000 C 
ENDBRANCH   2  12
BRANCH   1  18
ATOM     18  C   UNL     1       2.346   6.467  18.064  0.00  0.00    +0.000 C 
BRANCH  18  19
ATOM     19  C   UNL     1       2.108   7.760  18.874  0.00  0.00    +0.000 C 
ATOM     20  O   UNL     1       2.683   8.797  18.549  0.00  0.00    +0.000 OA
ATOM     21  N   UNL     1       1.233   7.673  19.934  0.00  0.00    +0.000 N 
ATOM     22  H   UNL     1       0.993   6.738  20.239  0.00  0.00    +0.000 HD
BRANCH  21  23
ATOM     23  C   UNL     1       0.917   8.785  20.851  0.00  0.00    +0.000 C 
ATOM     24  C   UNL     1       0.736  10.103  20.079  0.00  0.00    +0.000 C 
ATOM     25  C   UNL     1      -0.415   8.473  21.563  0.00  0.00    +0.000 C 
ATOM     26  C   UNL     1       2.007   8.943  21.921  0.00  0.00    +0.000 C 
ENDBRANCH  21  23
ENDBRANCH  18  19
ENDBRANCH   1  18
TORSDOF 6
ENDMDL
MODEL 7
REMARK VINA RESULT:      -6.5      2.844      5.430
REMARK  Name = 
REMARK  10 active torsions:
REMARK  status: ('A' for Active; 'I' for Inactive)
REMARK    1  A    between atoms: C_1  and  O_2
REMARK    2  A    between atoms: O_2  and  C_3
REMARK    3  A    between atoms: C_8  and  N_9
REMARK    4  A    between atoms: N_9  and  C_10
REMARK    5  A    between atoms: C_10  and  C_11
REMARK    6  A    between atoms: N_13  and  C_14
REMARK    7  A    between atoms: C_14  and  C_15
REMARK    8  A    between atoms: C_14  and  C_16
REMARK    9  A    between atoms: C_14  and  C_17
REMARK   10  A    between atoms: C_18  and  C_20
REMARK                            x       y       z     vdW  Elec       q    Type
REMARK                         _______ _______ _______ _____ _____    ______ ____
ROOT
ATOM      1  N   UNL     1       3.774   5.544  18.851  0.00  0.00    +0.000 N 
ATOM      2  C   UNL     1       3.154   4.381  18.399  0.00  0.00    +0.000 C 
ATOM      3  O   UNL     1       3.767   3.508  17.779  0.00  0.00    +0.000 OA
ENDROOT
BRANCH   1   9
ATOM      4  C   UNL     1       5.639   6.237  17.340  0.00  0.00    +0.000 A 
ATOM      5  C   UNL     1       7.007   6.497  17.176  0.00  0.00    +0.000 A 
ATOM      6  C   UNL     1       7.911   6.245  18.212  0.00  0.00    +0.000 A 
ATOM      7  C   UNL     1       7.453   5.723  19.415  0.00  0.00    +0.000 A 
ATOM      8  C   UNL     1       6.093   5.451  19.585  0.00  0.00    +0.000 A 
ATOM      9  C   UNL     1       5.161   5.740  18.566  0.00  0.00    +0.000 A 
BRANCH   4  11
ATOM     10  C   UNL     1       5.217   5.829  15.052  0.00  0.00    +0.000 C 
ATOM     11  O   UNL     1       4.873   6.536  16.242  0.00  0.00    +0.000 OA
ENDBRANCH   4  11
ENDBRANCH   1   9
BRANCH   2  12
ATOM     12  C   UNL     1       1.652   4.207  18.638  0.00  0.00    +0.000 C 
ATOM     13  C   UNL     1       1.150   2.827  18.237  0.00  0.00    +0.000 C 
ATOM     14  S   UNL     1       1.469   1.740  19.653  0.00  0.00    +0.000 S 
ATOM     15  C   UNL     1       1.592   3.072  20.793  0.00  0.00    +0.000 C 
ATOM     16  O   UNL     1       1.760   2.915  21.992  0.00  0.00    +0.000 OA
ATOM     17  C   UNL     1       1.332   4.395  20.122  0.00  0.00    +0.000 C 
ENDBRANCH   2  12
BRANCH   1  18
ATOM     18  C   UNL     1       3.109   6.608  19.621  0.00  0.00    +0.000 C 
BRANCH  18  19
ATOM     19  C   UNL     1       2.424   7.705  18.778  0.00  0.00    +0.000 C 
ATOM     20  O   UNL     1       2.451   7.637  17.551  0.00  0.00    +0.000 OA
ATOM     21  N   UNL     1       1.797   8.717  19.472  0.00  0.00    +0.000 N 
ATOM     22  H   UNL     1       2.023   8.790  20.456  0.00  0.00    +0.000 HD
BRANCH  21  23
ATOM     23  C   UNL     1       1.133   9.876  18.844  0.00  0.00    +0.000 C 
ATOM     24  C   UNL     1      -0.016   9.424  17.927  0.00  0.00    +0.000 C 
ATOM     25  C   UNL     1       0.526  10.757  19.954  0.00  0.00    +0.000 C 
ATOM     26  C   UNL     1       2.139  10.725  18.054  0.00  0.00    +0.000 C 
ENDBRANCH  21  23
ENDBRANCH  18  19
ENDBRANCH   1  18
TORSDOF 6
ENDMDL
MODEL 8
REMARK VINA RESULT:      -6.5      3.287      7.072
REMARK  Name = 
REMARK  10 active torsions:
REMARK  status: ('A' for Active; 'I' for Inactive)
REMARK    1  A    between atoms: C_1  and  O_2
REMARK    2  A    between atoms: O_2  and  C_3
REMARK    3  A    between atoms: C_8  and  N_9
REMARK    4  A    between atoms: N_9  and  C_10
REMARK    5  A    between atoms: C_10  and  C_11
REMARK    6  A    between atoms: N_13  and  C_14
REMARK    7  A    between atoms: C_14  and  C_15
REMARK    8  A    between atoms: C_14  and  C_16
REMARK    9  A    between atoms: C_14  and  C_17
REMARK   10  A    between atoms: C_18  and  C_20
REMARK                            x       y       z     vdW  Elec       q    Type
REMARK                         _______ _______ _______ _____ _____    ______ ____
ROOT
ATOM      1  N   UNL     1       3.021   5.206  18.305  0.00  0.00    +0.000 N 
ATOM      2  C   UNL     1       4.348   4.948  17.965  0.00  0.00    +0.000 C 
ATOM      3  O   UNL     1       5.008   4.064  18.517  0.00  0.00    +0.000 OA
ENDROOT
BRANCH   1   9
ATOM      4  C   UNL     1       1.692   3.251  19.112  0.00  0.00    +0.000 A 
ATOM      5  C   UNL     1       1.217   2.497  20.195  0.00  0.00    +0.000 A 
ATOM      6  C   UNL     1       1.434   2.919  21.509  0.00  0.00    +0.000 A 
ATOM      7  C   UNL     1       2.120   4.104  21.748  0.00  0.00    +0.000 A 
ATOM      8  C   UNL     1       2.589   4.867  20.676  0.00  0.00    +0.000 A 
ATOM      9  C   UNL     1       2.416   4.434  19.344  0.00  0.00    +0.000 A 
BRANCH   4  11
ATOM     10  C   UNL     1       2.476   1.984  17.278  0.00  0.00    +0.000 C 
ATOM     11  O   UNL     1       1.408   2.712  17.882  0.00  0.00    +0.000 OA
ENDBRANCH   4  11
ENDBRANCH   1   9
BRANCH   2  12
ATOM     12  C   UNL     1       5.020   5.825  16.905  0.00  0.00    +0.000 C 
ATOM     13  C   UNL     1       5.757   7.013  17.508  0.00  0.00    +0.000 C 
ATOM     14  S   UNL     1       7.393   6.402  17.994  0.00  0.00    +0.000 S 
ATOM     15  C   UNL     1       7.315   5.008  16.927  0.00  0.00    +0.000 C 
ATOM     16  O   UNL     1       8.233   4.214  16.793  0.00  0.00    +0.000 OA
ATOM     17  C   UNL     1       6.045   5.005  16.118  0.00  0.00    +0.000 C 
ENDBRANCH   2  12
BRANCH   1  18
ATOM     18  C   UNL     1       2.171   6.223  17.665  0.00  0.00    +0.000 C 
BRANCH  18  19
ATOM     19  C   UNL     1       2.065   7.566  18.418  0.00  0.00    +0.000 C 
ATOM     20  O   UNL     1       2.829   7.803  19.352  0.00  0.00    +0.000 OA
ATOM     21  N   UNL     1       1.102   8.447  17.979  0.00  0.00    +0.000 N 
ATOM     22  H   UNL     1       0.398   8.066  17.359  0.00  0.00    +0.000 HD
BRANCH  21  23
ATOM     23  C   UNL     1       0.817   9.755  18.601  0.00  0.00    +0.000 C 
ATOM     24  C   UNL     1       0.792   9.643  20.135  0.00  0.00    +0.000 C 
ATOM     25  C   UNL     1       1.945  10.736  18.222  0.00  0.00    +0.000 C 
ATOM     26  C   UNL     1      -0.512  10.330  18.090  0.00  0.00    +0.000 C 
ENDBRANCH  21  23
ENDBRANCH  18  19
ENDBRANCH   1  18
TORSDOF 6
ENDMDL
MODEL 9
REMARK VINA RESULT:      -6.5      2.682      5.355
REMARK  Name = 
REMARK  10 active torsions:
REMARK  status: ('A' for Active; 'I' for Inactive)
REMARK    1  A    between atoms: C_1  and  O_2
REMARK    2  A    between atoms: O_2  and  C_3
REMARK    3  A    between atoms: C_8  and  N_9
REMARK    4  A    between atoms: N_9  and  C_10
REMARK    5  A    between atoms: C_10  and  C_11
REMARK    6  A    between atoms: N_13  and  C_14
REMARK    7  A    between atoms: C_14  and  C_15
REMARK    8  A    between atoms: C_14  and  C_16
REMARK    9  A    between atoms: C_14  and  C_17
REMARK   10  A    between atoms: C_18  and  C_20
REMARK                            x       y       z     vdW  Elec       q    Type
REMARK                         _______ _______ _______ _____ _____    ______ ____
ROOT
ATOM      1  N   UNL     1       3.907   5.228  18.371  0.00  0.00    +0.000 N 
ATOM      2  C   UNL     1       3.232   4.294  19.156  0.00  0.00    +0.000 C 
ATOM      3  O   UNL     1       3.824   3.409  19.779  0.00  0.00    +0.000 OA
ENDROOT
BRANCH   1   9
ATOM      4  C   UNL     1       5.996   4.565  17.172  0.00  0.00    +0.000 A 
ATOM      5  C   UNL     1       7.395   4.611  17.101  0.00  0.00    +0.000 A 
ATOM      6  C   UNL     1       8.143   5.203  18.122  0.00  0.00    +0.000 A 
ATOM      7  C   UNL     1       7.496   5.745  19.226  0.00  0.00    +0.000 A 
ATOM      8  C   UNL     1       6.103   5.696  19.311  0.00  0.00    +0.000 A 
ATOM      9  C   UNL     1       5.329   5.140  18.269  0.00  0.00    +0.000 A 
BRANCH   4  11
ATOM     10  C   UNL     1       5.557   4.634  14.852  0.00  0.00    +0.000 C 
ATOM     11  O   UNL     1       5.396   3.958  16.098  0.00  0.00    +0.000 OA
ENDBRANCH   4  11
ENDBRANCH   1   9
BRANCH   2  12
ATOM     12  C   UNL     1       1.703   4.341  19.204  0.00  0.00    +0.000 C 
ATOM     13  C   UNL     1       1.057   3.168  18.480  0.00  0.00    +0.000 C 
ATOM     14  S   UNL     1       1.020   1.798  19.667  0.00  0.00    +0.000 S 
ATOM     15  C   UNL     1       1.190   2.852  21.063  0.00  0.00    +0.000 C 
ATOM     16  O   UNL     1       1.174   2.448  22.214  0.00  0.00    +0.000 OA
ATOM     17  C   UNL     1       1.222   4.302  20.656  0.00  0.00    +0.000 C 
ENDBRANCH   2  12
BRANCH   1  18
ATOM     18  C   UNL     1       3.264   6.325  17.628  0.00  0.00    +0.000 C 
BRANCH  18  19
ATOM     19  C   UNL     1       2.636   7.434  18.499  0.00  0.00    +0.000 C 
ATOM     20  O   UNL     1       2.815   7.428  19.715  0.00  0.00    +0.000 OA
ATOM     21  N   UNL     1       1.903   8.396  17.840  0.00  0.00    +0.000 N 
ATOM     22  H   UNL     1       1.642   8.183  16.885  0.00  0.00    +0.000 HD
BRANCH  21  23
ATOM     23  C   UNL     1       1.188   9.504  18.504  0.00  0.00    +0.000 C 
ATOM     24  C   UNL     1       1.977  10.819  18.387  0.00  0.00    +0.000 C 
ATOM     25  C   UNL     1      -0.168   9.708  17.799  0.00  0.00    +0.000 C 
ATOM     26  C   UNL     1       0.917   9.178  19.980  0.00  0.00    +0.000 C 
ENDBRANCH  21  23
ENDBRANCH  18  19
ENDBRANCH   1  18
TORSDOF 6
ENDMDL
