MODEL 1
REMARK VINA RESULT:      -6.5      0.000      0.000
REMARK  Name = 
REMARK  6 active torsions:
REMARK  status: ('A' for Active; 'I' for Inactive)
REMARK    1  A    between atoms: C_1  and  C_2
REMARK    2  A    between atoms: C_4  and  N_5
REMARK    3  A    between atoms: C_6  and  C_8
REMARK    4  A    between atoms: C_14  and  C_15
REMARK    5  A    between atoms: N_20  and  C_21
REMARK    6  A    between atoms: C_24  and  C_25
REMARK                            x       y       z     vdW  Elec       q    Type
REMARK                         _______ _______ _______ _____ _____    ______ ____
ROOT
ATOM      1  C   UNL     1       2.411   6.777  20.038  0.00  0.00    +0.000 C 
ATOM      2  C   UNL     1       1.615   8.040  20.085  0.00  0.00    +0.000 A 
ATOM      3  S   UNL     1       0.808   8.467  21.510  0.00  0.00    +0.000 S 
ATOM      4  C   UNL     1       0.106   9.845  20.816  0.00  0.00    +0.000 A 
ATOM      5  C   UNL     1       0.436   9.977  19.467  0.00  0.00    +0.000 A 
ATOM      6  C   UNL     1       1.435   8.976  19.081  0.00  0.00    +0.000 A 
ATOM      7  C   UNL     1       2.166   8.890  17.774  0.00  0.00    +0.000 C 
ENDROOT
BRANCH   5   8
ATOM      8  C   UNL     1      -0.137  11.058  18.643  0.00  0.00    +0.000 C 
ATOM      9  O   UNL     1       0.429  12.151  18.573  0.00  0.00    +0.000 OA
ATOM     10  N   UNL     1      -1.338  10.818  17.958  0.00  0.00    +0.000 N 
ATOM     11  C   UNL     1      -1.807  11.860  17.040  0.00  0.00    +0.000 C 
ATOM     12  C   UNL     1      -2.810  11.327  15.994  0.00  0.00    +0.000 C 
ATOM     13  N   UNL     1      -3.903  10.487  16.529  0.00  0.00    +0.000 NA
ATOM     14  C   UNL     1      -4.905  11.281  17.240  0.00  0.00    +0.000 C 
ATOM     15  C   UNL     1      -3.333   9.441  17.402  0.00  0.00    +0.000 C 
ATOM     16  C   UNL     1      -2.416   9.989  18.513  0.00  0.00    +0.000 C 
ENDBRANCH   5   8
BRANCH   4  17
ATOM     17  N   UNL     1      -0.722  10.678  21.571  0.00  0.00    +0.000 N 
ATOM     18  C   UNL     1      -0.407  11.952  22.033  0.00  0.00    +0.000 C 
ATOM     19  O   UNL     1       0.640  12.566  21.854  0.00  0.00    +0.000 OA
ATOM     20  H   UNL     1      -1.629  10.281  21.796  0.00  0.00    +0.000 HD
BRANCH  18  21
ATOM     21  C   UNL     1      -1.435  12.627  22.881  0.00  0.00    +0.000 A 
ATOM     22  C   UNL     1      -1.142  13.922  23.343  0.00  0.00    +0.000 A 
ATOM     23  C   UNL     1      -2.053  14.621  24.138  0.00  0.00    +0.000 A 
ATOM     24  C   UNL     1      -3.271  14.035  24.472  0.00  0.00    +0.000 A 
ATOM     25  C   UNL     1      -3.579  12.756  24.001  0.00  0.00    +0.000 A 
ATOM     26  C   UNL     1      -2.669  12.051  23.204  0.00  0.00    +0.000 A 
ENDBRANCH  18  21
ENDBRANCH   4  17
TORSDOF 3
ENDMDL
MODEL 2
REMARK VINA RESULT:      -6.3      4.517      7.349
REMARK  Name = 
REMARK  6 active torsions:
REMARK  status: ('A' for Active; 'I' for Inactive)
REMARK    1  A    between atoms: C_1  and  C_2
REMARK    2  A    between atoms: C_4  and  N_5
REMARK    3  A    between atoms: C_6  and  C_8
REMARK    4  A    between atoms: C_14  and  C_15
REMARK    5  A    between atoms: N_20  and  C_21
REMARK    6  A    between atoms: C_24  and  C_25
REMARK                            x       y       z     vdW  Elec       q    Type
REMARK                         _______ _______ _______ _____ _____    ______ ____
ROOT
ATOM      1  C   UNL     1       7.232   5.737  16.503  0.00  0.00    +0.000 C 
ATOM      2  C   UNL     1       5.799   5.976  16.846  0.00  0.00    +0.000 A 
ATOM      3  S   UNL     1       5.277   7.545  17.208  0.00  0.00    +0.000 S 
ATOM      4  C   UNL     1       3.697   7.044  17.562  0.00  0.00    +0.000 A 
ATOM      5  C   UNL     1       3.551   5.660  17.457  0.00  0.00    +0.000 A 
ATOM      6  C   UNL     1       4.767   5.054  16.905  0.00  0.00    +0.000 A 
ATOM      7  C   UNL     1       4.952   3.626  16.486  0.00  0.00    +0.000 C 
ENDROOT
BRANCH   5   8
ATOM      8  C   UNL     1       2.281   4.997  17.805  0.00  0.00    +0.000 C 
ATOM      9  O   UNL     1       1.237   5.315  17.231  0.00  0.00    +0.000 OA
ATOM     10  N   UNL     1       2.286   4.015  18.808  0.00  0.00    +0.000 N 
ATOM     11  C   UNL     1       1.039   3.279  19.033  0.00  0.00    +0.000 C 
ATOM     12  C   UNL     1       1.262   1.934  19.759  0.00  0.00    +0.000 C 
ATOM     13  N   UNL     1       2.129   1.991  20.955  0.00  0.00    +0.000 NA
ATOM     14  C   UNL     1       1.452   2.612  22.093  0.00  0.00    +0.000 C 
ATOM     15  C   UNL     1       3.376   2.707  20.621  0.00  0.00    +0.000 C 
ATOM     16  C   UNL     1       3.148   4.097  19.994  0.00  0.00    +0.000 C 
ENDBRANCH   5   8
BRANCH   4  17
ATOM     17  N   UNL     1       2.724   7.972  17.939  0.00  0.00    +0.000 N 
ATOM     18  C   UNL     1       2.133   8.082  19.193  0.00  0.00    +0.000 C 
ATOM     19  O   UNL     1       2.365   7.396  20.184  0.00  0.00    +0.000 OA
ATOM     20  H   UNL     1       2.436   8.605  17.200  0.00  0.00    +0.000 HD
BRANCH  18  21
ATOM     21  C   UNL     1       1.064   9.116  19.339  0.00  0.00    +0.000 A 
ATOM     22  C   UNL     1       0.504   9.636  18.159  0.00  0.00    +0.000 A 
ATOM     23  C   UNL     1      -0.501  10.603  18.211  0.00  0.00    +0.000 A 
ATOM     24  C   UNL     1      -0.966  11.053  19.444  0.00  0.00    +0.000 A 
ATOM     25  C   UNL     1      -0.430  10.526  20.622  0.00  0.00    +0.000 A 
ATOM     26  C   UNL     1       0.580   9.558  20.575  0.00  0.00    +0.000 A 
ENDBRANCH  18  21
ENDBRANCH   4  17
TORSDOF 3
ENDMDL
MODEL 3
REMARK VINA RESULT:      -6.2      4.560      7.409
REMARK  Name = 
REMARK  6 active torsions:
REMARK  status: ('A' for Active; 'I' for Inactive)
REMARK    1  A    between atoms: C_1  and  C_2
REMARK    2  A    between atoms: C_4  and  N_5
REMARK    3  A    between atoms: C_6  and  C_8
REMARK    4  A    between atoms: C_14  and  C_15
REMARK    5  A    between atoms: N_20  and  C_21
REMARK    6  A    between atoms: C_24  and  C_25
REMARK                            x       y       z     vdW  Elec       q    Type
REMARK                         _______ _______ _______ _____ _____    ______ ____
ROOT
ATOM      1  C   UNL     1       7.091   5.815  16.268  0.00  0.00    +0.000 C 
ATOM      2  C   UNL     1       5.697   5.918  16.795  0.00  0.00    +0.000 A 
ATOM      3  S   UNL     1       5.211   7.324  17.603  0.00  0.00    +0.000 S 
ATOM      4  C   UNL     1       3.674   6.706  17.959  0.00  0.00    +0.000 A 
ATOM      5  C   UNL     1       3.520   5.394  17.509  0.00  0.00    +0.000 A 
ATOM      6  C   UNL     1       4.677   4.986  16.707  0.00  0.00    +0.000 A 
ATOM      7  C   UNL     1       4.823   3.722  15.913  0.00  0.00    +0.000 C 
ENDROOT
BRANCH   5   8
ATOM      8  C   UNL     1       2.291   4.629  17.789  0.00  0.00    +0.000 C 
ATOM      9  O   UNL     1       1.291   4.782  17.083  0.00  0.00    +0.000 OA
ATOM     10  N   UNL     1       2.282   3.742  18.877  0.00  0.00    +0.000 N 
ATOM     11  C   UNL     1       1.096   2.898  19.045  0.00  0.00    +0.000 C 
ATOM     12  C   UNL     1       1.369   1.651  19.915  0.00  0.00    +0.000 C 
ATOM     13  N   UNL     1       2.088   1.904  21.183  0.00  0.00    +0.000 NA
ATOM     14  C   UNL     1       1.230   2.543  22.180  0.00  0.00    +0.000 C 
ATOM     15  C   UNL     1       3.287   2.720  20.909  0.00  0.00    +0.000 C 
ATOM     16  C   UNL     1       2.994   4.018  20.131  0.00  0.00    +0.000 C 
ENDBRANCH   5   8
BRANCH   4  17
ATOM     17  N   UNL     1       2.741   7.477  18.655  0.00  0.00    +0.000 N 
ATOM     18  C   UNL     1       2.092   8.612  18.180  0.00  0.00    +0.000 C 
ATOM     19  O   UNL     1       2.217   9.128  17.074  0.00  0.00    +0.000 OA
ATOM     20  H   UNL     1       2.548   7.156  19.599  0.00  0.00    +0.000 HD
BRANCH  18  21
ATOM     21  C   UNL     1       1.181   9.309  19.137  0.00  0.00    +0.000 A 
ATOM     22  C   UNL     1       1.147   8.834  20.460  0.00  0.00    +0.000 A 
ATOM     23  C   UNL     1       0.323   9.433  21.415  0.00  0.00    +0.000 A 
ATOM     24  C   UNL     1      -0.468  10.522  21.059  0.00  0.00    +0.000 A 
ATOM     25  C   UNL     1      -0.426  11.015  19.752  0.00  0.00    +0.000 A 
ATOM     26  C   UNL     1       0.397  10.416  18.790  0.00  0.00    +0.000 A 
ENDBRANCH  18  21
ENDBRANCH   4  17
TORSDOF 3
ENDMDL
MODEL 4
REMARK VINA RESULT:      -6.2      2.430      3.643
REMARK  Name = 
REMARK  6 active torsions:
REMARK  status: ('A' for Active; 'I' for Inactive)
REMARK    1  A    between atoms: C_1  and  C_2
REMARK    2  A    between atoms: C_4  and  N_5
REMARK    3  A    between atoms: C_6  and  C_8
REMARK    4  A    between atoms: C_14  and  C_15
REMARK    5  A    between atoms: N_20  and  C_21
REMARK    6  A    between atoms: C_24  and  C_25
REMARK                            x       y       z     vdW  Elec       q    Type
REMARK                         _______ _______ _______ _____ _____    ______ ____
ROOT
ATOM      1  C   UNL     1       2.059   7.416  19.974  0.00  0.00    +0.000 C 
ATOM      2  C   UNL     1       1.290   8.690  20.103  0.00  0.00    +0.000 A 
ATOM      3  S   UNL     1       0.370   8.974  21.495  0.00  0.00    +0.000 S 
ATOM      4  C   UNL     1      -0.238  10.445  20.913  0.00  0.00    +0.000 A 
ATOM      5  C   UNL     1       0.214  10.724  19.623  0.00  0.00    +0.000 A 
ATOM      6  C   UNL     1       1.220   9.743  19.206  0.00  0.00    +0.000 A 
ATOM      7  C   UNL     1       2.062   9.786  17.965  0.00  0.00    +0.000 C 
ENDROOT
BRANCH   5   8
ATOM      8  C   UNL     1      -0.260  11.911  18.887  0.00  0.00    +0.000 C 
ATOM      9  O   UNL     1      -1.193  11.814  18.086  0.00  0.00    +0.000 OA
ATOM     10  N   UNL     1       0.381  13.140  19.108  0.00  0.00    +0.000 N 
ATOM     11  C   UNL     1      -0.200  14.324  18.469  0.00  0.00    +0.000 C 
ATOM     12  C   UNL     1       0.237  15.643  19.144  0.00  0.00    +0.000 C 
ATOM     13  N   UNL     1       1.687  15.774  19.406  0.00  0.00    +0.000 NA
ATOM     14  C   UNL     1       2.442  16.029  18.180  0.00  0.00    +0.000 C 
ATOM     15  C   UNL     1       2.172  14.559  20.089  0.00  0.00    +0.000 C 
ATOM     16  C   UNL     1       1.824  13.250  19.355  0.00  0.00    +0.000 C 
ENDBRANCH   5   8
BRANCH   4  17
ATOM     17  N   UNL     1      -1.110  11.211  21.689  0.00  0.00    +0.000 N 
ATOM     18  C   UNL     1      -0.777  12.339  22.431  0.00  0.00    +0.000 C 
ATOM     19  O   UNL     1       0.328  12.862  22.528  0.00  0.00    +0.000 OA
ATOM     20  H   UNL     1      -2.069  10.878  21.699  0.00  0.00    +0.000 HD
BRANCH  18  21
ATOM     21  C   UNL     1      -1.875  12.955  23.237  0.00  0.00    +0.000 A 
ATOM     22  C   UNL     1      -3.011  12.167  23.490  0.00  0.00    +0.000 A 
ATOM     23  C   UNL     1      -4.078  12.669  24.238  0.00  0.00    +0.000 A 
ATOM     24  C   UNL     1      -4.015  13.962  24.750  0.00  0.00    +0.000 A 
ATOM     25  C   UNL     1      -2.881  14.746  24.521  0.00  0.00    +0.000 A 
ATOM     26  C   UNL     1      -1.809  14.247  23.770  0.00  0.00    +0.000 A 
ENDBRANCH  18  21
ENDBRANCH   4  17
TORSDOF 3
ENDMDL
MODEL 5
REMARK VINA RESULT:      -6.0      3.450      6.672
REMARK  Name = 
REMARK  6 active torsions:
REMARK  status: ('A' for Active; 'I' for Inactive)
REMARK    1  A    between atoms: C_1  and  C_2
REMARK    2  A    between atoms: C_4  and  N_5
REMARK    3  A    between atoms: C_6  and  C_8
REMARK    4  A    between atoms: C_14  and  C_15
REMARK    5  A    between atoms: N_20  and  C_21
REMARK    6  A    between atoms: C_24  and  C_25
REMARK                            x       y       z     vdW  Elec       q    Type
REMARK                         _______ _______ _______ _____ _____    ______ ____
ROOT
ATOM      1  C   UNL     1      -3.495  18.097  22.606  0.00  0.00    +0.000 C 
ATOM      2  C   UNL     1      -3.472  16.604  22.629  0.00  0.00    +0.000 A 
ATOM      3  S   UNL     1      -1.988  15.791  22.568  0.00  0.00    +0.000 S 
ATOM      4  C   UNL     1      -2.716  14.261  22.534  0.00  0.00    +0.000 A 
ATOM      5  C   UNL     1      -4.109  14.345  22.520  0.00  0.00    +0.000 A 
ATOM      6  C   UNL     1      -4.544  15.732  22.709  0.00  0.00    +0.000 A 
ATOM      7  C   UNL     1      -5.948  16.216  22.916  0.00  0.00    +0.000 C 
ENDROOT
BRANCH   5   8
ATOM      8  C   UNL     1      -4.946  13.136  22.402  0.00  0.00    +0.000 C 
ATOM      9  O   UNL     1      -4.958  12.299  23.308  0.00  0.00    +0.000 OA
ATOM     10  N   UNL     1      -5.710  12.955  21.238  0.00  0.00    +0.000 N 
ATOM     11  C   UNL     1      -6.634  11.818  21.211  0.00  0.00    +0.000 C 
ATOM     12  C   UNL     1      -7.752  11.982  20.158  0.00  0.00    +0.000 C 
ATOM     13  N   UNL     1      -7.303  12.400  18.812  0.00  0.00    +0.000 NA
ATOM     14  C   UNL     1      -6.640  11.312  18.094  0.00  0.00    +0.000 C 
ATOM     15  C   UNL     1      -6.417  13.575  18.936  0.00  0.00    +0.000 C 
ATOM     16  C   UNL     1      -5.240  13.368  19.909  0.00  0.00    +0.000 C 
ENDBRANCH   5   8
BRANCH   4  17
ATOM     17  N   UNL     1      -1.937  13.103  22.494  0.00  0.00    +0.000 N 
ATOM     18  C   UNL     1      -1.514  12.435  21.350  0.00  0.00    +0.000 C 
ATOM     19  O   UNL     1      -1.741  12.745  20.185  0.00  0.00    +0.000 OA
ATOM     20  H   UNL     1      -1.681  12.735  23.404  0.00  0.00    +0.000 HD
BRANCH  18  21
ATOM     21  C   UNL     1      -0.740  11.174  21.561  0.00  0.00    +0.000 A 
ATOM     22  C   UNL     1      -0.724  10.637  22.860  0.00  0.00    +0.000 A 
ATOM     23  C   UNL     1      -0.025   9.460  23.138  0.00  0.00    +0.000 A 
ATOM     24  C   UNL     1       0.655   8.802  22.117  0.00  0.00    +0.000 A 
ATOM     25  C   UNL     1       0.628   9.318  20.819  0.00  0.00    +0.000 A 
ATOM     26  C   UNL     1      -0.069  10.499  20.535  0.00  0.00    +0.000 A 
ENDBRANCH  18  21
ENDBRANCH   4  17
TORSDOF 3
ENDMDL
MODEL 6
REMARK VINA RESULT:      -6.0      3.695      5.682
REMARK  Name = 
REMARK  6 active torsions:
REMARK  status: ('A' for Active; 'I' for Inactive)
REMARK    1  A    between atoms: C_1  and  C_2
REMARK    2  A    between atoms: C_4  and  N_5
REMARK    3  A    between atoms: C_6  and  C_8
REMARK    4  A    between atoms: C_14  and  C_15
REMARK    5  A    between atoms: N_20  and  C_21
REMARK    6  A    between atoms: C_24  and  C_25
REMARK                            x       y       z     vdW  Elec       q    Type
REMARK                         _______ _______ _______ _____ _____    ______ ____
ROOT
ATOM      1  C   UNL     1       0.971   8.682  21.006  0.00  0.00    +0.000 C 
ATOM      2  C   UNL     1       0.534  10.109  20.958  0.00  0.00    +0.000 A 
ATOM      3  S   UNL     1       0.905  11.051  19.600  0.00  0.00    +0.000 S 
ATOM      4  C   UNL     1       0.230  12.456  20.268  0.00  0.00    +0.000 A 
ATOM      5  C   UNL     1      -0.248  12.242  21.561  0.00  0.00    +0.000 A 
ATOM      6  C   UNL     1      -0.181  10.819  21.908  0.00  0.00    +0.000 A 
ATOM      7  C   UNL     1      -0.746  10.162  23.131  0.00  0.00    +0.000 C 
ENDROOT
BRANCH   5   8
ATOM      8  C   UNL     1      -0.798  13.350  22.365  0.00  0.00    +0.000 C 
ATOM      9  O   UNL     1      -0.069  13.977  23.138  0.00  0.00    +0.000 OA
ATOM     10  N   UNL     1      -2.161  13.662  22.241  0.00  0.00    +0.000 N 
ATOM     11  C   UNL     1      -2.644  14.852  22.945  0.00  0.00    +0.000 C 
ATOM     12  C   UNL     1      -3.973  15.389  22.369  0.00  0.00    +0.000 C 
ATOM     13  N   UNL     1      -5.027  14.375  22.146  0.00  0.00    +0.000 NA
ATOM     14  C   UNL     1      -5.630  13.929  23.402  0.00  0.00    +0.000 C 
ATOM     15  C   UNL     1      -4.460  13.239  21.393  0.00  0.00    +0.000 C 
ATOM     16  C   UNL     1      -3.193  12.638  22.031  0.00  0.00    +0.000 C 
ENDBRANCH   5   8
BRANCH   4  17
ATOM     17  N   UNL     1       0.224  13.653  19.549  0.00  0.00    +0.000 N 
ATOM     18  C   UNL     1       1.227  14.616  19.548  0.00  0.00    +0.000 C 
ATOM     19  O   UNL     1       2.287  14.583  20.164  0.00  0.00    +0.000 OA
ATOM     20  H   UNL     1      -0.611  13.807  18.994  0.00  0.00    +0.000 HD
BRANCH  18  21
ATOM     21  C   UNL     1       0.965  15.851  18.747  0.00  0.00    +0.000 A 
ATOM     22  C   UNL     1      -0.375  16.251  18.597  0.00  0.00    +0.000 A 
ATOM     23  C   UNL     1      -0.702  17.394  17.866  0.00  0.00    +0.000 A 
ATOM     24  C   UNL     1       0.308  18.156  17.285  0.00  0.00    +0.000 A 
ATOM     25  C   UNL     1       1.644  17.777  17.445  0.00  0.00    +0.000 A 
ATOM     26  C   UNL     1       1.977  16.630  18.176  0.00  0.00    +0.000 A 
ENDBRANCH  18  21
ENDBRANCH   4  17
TORSDOF 3
ENDMDL
MODEL 7
REMARK VINA RESULT:      -6.0      3.023      6.306
REMARK  Name = 
REMARK  6 active torsions:
REMARK  status: ('A' for Active; 'I' for Inactive)
REMARK    1  A    between atoms: C_1  and  C_2
REMARK    2  A    between atoms: C_4  and  N_5
REMARK    3  A    between atoms: C_6  and  C_8
REMARK    4  A    between atoms: C_14  and  C_15
REMARK    5  A    between atoms: N_20  and  C_21
REMARK    6  A    between atoms: C_24  and  C_25
REMARK                            x       y       z     vdW  Elec       q    Type
REMARK                         _______ _______ _______ _____ _____    ______ ____
ROOT
ATOM      1  C   UNL     1       3.763  14.615  20.350  0.00  0.00    +0.000 C 
ATOM      2  C   UNL     1       2.308  14.353  20.145  0.00  0.00    +0.000 A 
ATOM      3  S   UNL     1       1.808  13.375  18.856  0.00  0.00    +0.000 S 
ATOM      4  C   UNL     1       0.162  13.608  19.189  0.00  0.00    +0.000 A 
ATOM      5  C   UNL     1      -0.037  14.476  20.262  0.00  0.00    +0.000 A 
ATOM      6  C   UNL     1       1.240  14.806  20.902  0.00  0.00    +0.000 A 
ATOM      7  C   UNL     1       1.439  15.570  22.177  0.00  0.00    +0.000 C 
ENDROOT
BRANCH   5   8
ATOM      8  C   UNL     1      -1.393  14.890  20.670  0.00  0.00    +0.000 C 
ATOM      9  O   UNL     1      -1.841  15.982  20.314  0.00  0.00    +0.000 OA
ATOM     10  N   UNL     1      -2.147  14.024  21.477  0.00  0.00    +0.000 N 
ATOM     11  C   UNL     1      -3.537  14.400  21.748  0.00  0.00    +0.000 C 
ATOM     12  C   UNL     1      -4.405  13.201  22.191  0.00  0.00    +0.000 C 
ATOM     13  N   UNL     1      -3.818  12.343  23.242  0.00  0.00    +0.000 NA
ATOM     14  C   UNL     1      -3.851  12.987  24.555  0.00  0.00    +0.000 C 
ATOM     15  C   UNL     1      -2.438  11.979  22.861  0.00  0.00    +0.000 C 
ATOM     16  C   UNL     1      -1.545  13.188  22.523  0.00  0.00    +0.000 C 
ENDBRANCH   5   8
BRANCH   4  17
ATOM     17  N   UNL     1      -0.816  12.989  18.408  0.00  0.00    +0.000 N 
ATOM     18  C   UNL     1      -1.392  11.745  18.643  0.00  0.00    +0.000 C 
ATOM     19  O   UNL     1      -1.153  10.983  19.574  0.00  0.00    +0.000 OA
ATOM     20  H   UNL     1      -1.103  13.520  17.592  0.00  0.00    +0.000 HD
BRANCH  18  21
ATOM     21  C   UNL     1      -2.375  11.262  17.626  0.00  0.00    +0.000 A 
ATOM     22  C   UNL     1      -1.934  10.286  16.716  0.00  0.00    +0.000 A 
ATOM     23  C   UNL     1      -2.793   9.782  15.737  0.00  0.00    +0.000 A 
ATOM     24  C   UNL     1      -4.106  10.241  15.666  0.00  0.00    +0.000 A 
ATOM     25  C   UNL     1      -4.558  11.196  16.580  0.00  0.00    +0.000 A 
ATOM     26  C   UNL     1      -3.701  11.706  17.562  0.00  0.00    +0.000 A 
ENDBRANCH  18  21
ENDBRANCH   4  17
TORSDOF 3
ENDMDL
MODEL 8
REMARK VINA RESULT:      -5.9      3.897      5.682
REMARK  Name = 
REMARK  6 active torsions:
REMARK  status: ('A' for Active; 'I' for Inactive)
REMARK    1  A    between atoms: C_1  and  C_2
REMARK    2  A    between atoms: C_4  and  N_5
REMARK    3  A    between atoms: C_6  and  C_8
REMARK    4  A    between atoms: C_14  and  C_15
REMARK    5  A    between atoms: N_20  and  C_21
REMARK    6  A    between atoms: C_24  and  C_25
REMARK                            x       y       z     vdW  Elec       q    Type
REMARK                         _______ _______ _______ _____ _____    ______ ____
ROOT
ATOM      1  C   UNL     1       1.023   8.989  21.220  0.00  0.00    +0.000 C 
ATOM      2  C   UNL     1       0.531  10.392  21.084  0.00  0.00    +0.000 A 
ATOM      3  S   UNL     1       0.952  11.297  19.716  0.00  0.00    +0.000 S 
ATOM      4  C   UNL     1       0.175  12.694  20.280  0.00  0.00    +0.000 A 
ATOM      5  C   UNL     1      -0.380  12.509  21.547  0.00  0.00    +0.000 A 
ATOM      6  C   UNL     1      -0.276  11.105  21.955  0.00  0.00    +0.000 A 
ATOM      7  C   UNL     1      -0.894  10.470  23.165  0.00  0.00    +0.000 C 
ENDROOT
BRANCH   5   8
ATOM      8  C   UNL     1      -1.028  13.621  22.267  0.00  0.00    +0.000 C 
ATOM      9  O   UNL     1      -0.418  14.228  23.151  0.00  0.00    +0.000 OA
ATOM     10  N   UNL     1      -2.349  13.960  21.935  0.00  0.00    +0.000 N 
ATOM     11  C   UNL     1      -2.915  15.154  22.568  0.00  0.00    +0.000 C 
ATOM     12  C   UNL     1      -4.128  15.721  21.797  0.00  0.00    +0.000 C 
ATOM     13  N   UNL     1      -5.152  14.729  21.402  0.00  0.00    +0.000 NA
ATOM     14  C   UNL     1      -5.951  14.285  22.544  0.00  0.00    +0.000 C 
ATOM     15  C   UNL     1      -4.495  13.588  20.735  0.00  0.00    +0.000 C 
ATOM     16  C   UNL     1      -3.354  12.958  21.556  0.00  0.00    +0.000 C 
ENDBRANCH   5   8
BRANCH   4  17
ATOM     17  N   UNL     1       0.167  13.861  19.514  0.00  0.00    +0.000 N 
ATOM     18  C   UNL     1       1.067  14.917  19.614  0.00  0.00    +0.000 C 
ATOM     19  O   UNL     1       2.021  15.007  20.379  0.00  0.00    +0.000 OA
ATOM     20  H   UNL     1      -0.586  13.916  18.836  0.00  0.00    +0.000 HD
BRANCH  18  21
ATOM     21  C   UNL     1       0.815  16.094  18.727  0.00  0.00    +0.000 A 
ATOM     22  C   UNL     1       1.932  16.698  18.124  0.00  0.00    +0.000 A 
ATOM     23  C   UNL     1       1.780  17.801  17.281  0.00  0.00    +0.000 A 
ATOM     24  C   UNL     1       0.508  18.303  17.022  0.00  0.00    +0.000 A 
ATOM     25  C   UNL     1      -0.610  17.696  17.601  0.00  0.00    +0.000 A 
ATOM     26  C   UNL     1      -0.463  16.592  18.450  0.00  0.00    +0.000 A 
ENDBRANCH  18  21
ENDBRANCH   4  17
TORSDOF 3
ENDMDL
MODEL 9
REMARK VINA RESULT:      -5.9      3.380      7.512
REMARK  Name = 
REMARK  6 active torsions:
REMARK  status: ('A' for Active; 'I' for Inactive)
REMARK    1  A    between atoms: C_1  and  C_2
REMARK    2  A    between atoms: C_4  and  N_5
REMARK    3  A    between atoms: C_6  and  C_8
REMARK    4  A    between atoms: C_14  and  C_15
REMARK    5  A    between atoms: N_20  and  C_21
REMARK    6  A    between atoms: C_24  and  C_25
REMARK                            x       y       z     vdW  Elec       q    Type
REMARK                         _______ _______ _______ _____ _____    ______ ____
ROOT
ATOM      1  C   UNL     1      -3.135  12.497  19.616  0.00  0.00    +0.000 C 
ATOM      2  C   UNL     1      -1.756  12.072  19.231  0.00  0.00    +0.000 A 
ATOM      3  S   UNL     1      -1.417  10.427  19.020  0.00  0.00    +0.000 S 
ATOM      4  C   UNL     1       0.228  10.703  18.719  0.00  0.00    +0.000 A 
ATOM      5  C   UNL     1       0.559  12.054  18.824  0.00  0.00    +0.000 A 
ATOM      6  C   UNL     1      -0.648  12.869  18.997  0.00  0.00    +0.000 A 
ATOM      7  C   UNL     1      -0.735  14.366  18.983  0.00  0.00    +0.000 C 
ENDROOT
BRANCH   5   8
ATOM      8  C   UNL     1       1.955  12.512  18.687  0.00  0.00    +0.000 C 
ATOM      9  O   UNL     1       2.670  12.062  17.789  0.00  0.00    +0.000 OA
ATOM     10  N   UNL     1       2.449  13.451  19.606  0.00  0.00    +0.000 N 
ATOM     11  C   UNL     1       3.790  13.988  19.362  0.00  0.00    +0.000 C 
ATOM     12  C   UNL     1       4.040  15.327  20.090  0.00  0.00    +0.000 C 
ATOM     13  N   UNL     1       3.650  15.359  21.516  0.00  0.00    +0.000 NA
ATOM     14  C   UNL     1       4.584  14.608  22.355  0.00  0.00    +0.000 C 
ATOM     15  C   UNL     1       2.273  14.845  21.658  0.00  0.00    +0.000 C 
ATOM     16  C   UNL     1       2.057  13.458  21.022  0.00  0.00    +0.000 C 
ENDBRANCH   5   8
BRANCH   4  17
ATOM     17  N   UNL     1       1.088   9.639  18.440  0.00  0.00    +0.000 N 
ATOM     18  C   UNL     1       1.537   8.684  19.346  0.00  0.00    +0.000 C 
ATOM     19  O   UNL     1       1.253   8.601  20.536  0.00  0.00    +0.000 OA
ATOM     20  H   UNL     1       1.406   9.595  17.477  0.00  0.00    +0.000 HD
BRANCH  18  21
ATOM     21  C   UNL     1       2.509   7.675  18.824  0.00  0.00    +0.000 A 
ATOM     22  C   UNL     1       2.647   6.477  19.547  0.00  0.00    +0.000 A 
ATOM     23  C   UNL     1       3.533   5.485  19.124  0.00  0.00    +0.000 A 
ATOM     24  C   UNL     1       4.283   5.675  17.966  0.00  0.00    +0.000 A 
ATOM     25  C   UNL     1       4.138   6.854  17.230  0.00  0.00    +0.000 A 
ATOM     26  C   UNL     1       3.252   7.854  17.652  0.00  0.00    +0.000 A 
ENDBRANCH  18  21
ENDBRANCH   4  17
TORSDOF 3
ENDMDL
