MODEL 1
REMARK VINA RESULT:      -8.7      0.000      0.000
REMARK  Name = 
REMARK  10 active torsions:
REMARK  status: ('A' for Active; 'I' for Inactive)
REMARK    1  A    between atoms: C_1  and  C_2
REMARK    2  A    between atoms: C_2  and  C_3
REMARK    3  A    between atoms: C_8  and  C_9
REMARK    4  A    between atoms: C_9  and  O_11
REMARK    5  A    between atoms: O_11  and  C_12
REMARK    6  A    between atoms: C_17  and  O_18
REMARK    7  A    between atoms: O_18  and  C_19
REMARK    8  A    between atoms: C_19  and  C_20
REMARK    9  A    between atoms: C_20  and  O_21
REMARK   10  A    between atoms: O_21  and  C_22
REMARK                            x       y       z     vdW  Elec       q    Type
REMARK                         _______ _______ _______ _____ _____    ______ ____
ROOT
ATOM      1  C   UNL     1       6.021   5.066  16.050  0.00  0.00    +0.000 A 
ATOM      2  C   UNL     1       4.872   4.304  16.358  0.00  0.00    +0.000 A 
ATOM      3  C   UNL     1       4.139   4.503  17.530  0.00  0.00    +0.000 A 
ATOM      4  C   UNL     1       2.921   3.691  17.787  0.00  0.00    +0.000 A 
ATOM      5  O   UNL     1       2.527   2.911  16.924  0.00  0.00    +0.000 OA
ATOM      6  C   UNL     1       2.211   3.901  19.076  0.00  0.00    +0.000 A 
ATOM      7  C   UNL     1       2.685   4.865  19.888  0.00  0.00    +0.000 A 
ATOM      8  N   UNL     1       3.781   5.649  19.625  0.00  0.00    +0.000 N 
ATOM      9  C   UNL     1       4.530   5.463  18.460  0.00  0.00    +0.000 A 
ATOM     10  C   UNL     1       5.659   6.235  18.165  0.00  0.00    +0.000 A 
ATOM     11  C   UNL     1       6.394   6.073  16.963  0.00  0.00    +0.000 A 
ATOM     12  H   UNL     1       4.093   6.320  20.319  0.00  0.00    +0.000 HD
ENDROOT
BRANCH   1  14
ATOM     13  C   UNL     1       5.843   3.902  13.765  0.00  0.00    +0.000 C 
ATOM     14  C   UNL     1       6.698   4.683  14.750  0.00  0.00    +0.000 C 
ENDBRANCH   1  14
BRANCH   6  15
ATOM     15  C   UNL     1       1.023   3.130  19.503  0.00  0.00    +0.000 C 
ATOM     16  O   UNL     1       0.333   2.462  18.740  0.00  0.00    +0.000 OA
BRANCH  15  17
ATOM     17  O   UNL     1       0.783   3.303  20.823  0.00  0.00    +0.000 OA
ATOM     18  C   UNL     1       1.536   2.465  21.698  0.00  0.00    +0.000 C 
ENDBRANCH  15  17
ENDBRANCH   6  15
BRANCH  11  19
ATOM     19  O   UNL     1       7.434   6.958  16.911  0.00  0.00    +0.000 OA
BRANCH  19  20
ATOM     20  C   UNL     1       7.266   8.320  17.282  0.00  0.00    +0.000 C 
BRANCH  20  21
ATOM     21  C   UNL     1       8.448   8.828  18.096  0.00  0.00    +0.000 C 
BRANCH  21  22
ATOM     22  O   UNL     1       8.392  10.251  18.185  0.00  0.00    +0.000 OA
BRANCH  22  23
ATOM     23  C   UNL     1       9.490  10.835  18.754  0.00  0.00    +0.000 A 
ATOM     24  C   UNL     1      10.505  11.188  17.866  0.00  0.00    +0.000 A 
ATOM     25  C   UNL     1      11.662  11.814  18.332  0.00  0.00    +0.000 A 
ATOM     26  C   UNL     1      11.799  12.102  19.688  0.00  0.00    +0.000 A 
ATOM     27  C   UNL     1      10.780  11.766  20.578  0.00  0.00    +0.000 A 
ATOM     28  C   UNL     1       9.626  11.134  20.112  0.00  0.00    +0.000 A 
ENDBRANCH  22  23
ENDBRANCH  21  22
ENDBRANCH  20  21
ENDBRANCH  19  20
ENDBRANCH  11  19
TORSDOF 8
ENDMDL
MODEL 2
REMARK VINA RESULT:      -8.5      4.544      8.289
REMARK  Name = 
REMARK  10 active torsions:
REMARK  status: ('A' for Active; 'I' for Inactive)
REMARK    1  A    between atoms: C_1  and  C_2
REMARK    2  A    between atoms: C_2  and  C_3
REMARK    3  A    between atoms: C_8  and  C_9
REMARK    4  A    between atoms: C_9  and  O_11
REMARK    5  A    between atoms: O_11  and  C_12
REMARK    6  A    between atoms: C_17  and  O_18
REMARK    7  A    between atoms: O_18  and  C_19
REMARK    8  A    between atoms: C_19  and  C_20
REMARK    9  A    between atoms: C_20  and  O_21
REMARK   10  A    between atoms: O_21  and  C_22
REMARK                            x       y       z     vdW  Elec       q    Type
REMARK                         _______ _______ _______ _____ _____    ______ ____
ROOT
ATOM      1  C   UNL     1       3.148   6.901  18.669  0.00  0.00    +0.000 A 
ATOM      2  C   UNL     1       3.800   6.878  17.415  0.00  0.00    +0.000 A 
ATOM      3  C   UNL     1       4.772   5.926  17.100  0.00  0.00    +0.000 A 
ATOM      4  C   UNL     1       5.403   5.931  15.755  0.00  0.00    +0.000 A 
ATOM      5  O   UNL     1       5.003   6.725  14.907  0.00  0.00    +0.000 OA
ATOM      6  C   UNL     1       6.473   4.933  15.490  0.00  0.00    +0.000 A 
ATOM      7  C   UNL     1       6.743   4.048  16.469  0.00  0.00    +0.000 A 
ATOM      8  N   UNL     1       6.121   4.012  17.693  0.00  0.00    +0.000 N 
ATOM      9  C   UNL     1       5.149   4.960  18.029  0.00  0.00    +0.000 A 
ATOM     10  C   UNL     1       4.505   4.961  19.271  0.00  0.00    +0.000 A 
ATOM     11  C   UNL     1       3.490   5.897  19.596  0.00  0.00    +0.000 A 
ATOM     12  H   UNL     1       6.424   3.337  18.387  0.00  0.00    +0.000 HD
ENDROOT
BRANCH   1  14
ATOM     13  C   UNL     1       2.054   9.003  17.672  0.00  0.00    +0.000 C 
ATOM     14  C   UNL     1       2.149   8.028  18.834  0.00  0.00    +0.000 C 
ENDBRANCH   1  14
BRANCH   6  15
ATOM     15  C   UNL     1       7.237   4.853  14.226  0.00  0.00    +0.000 C 
ATOM     16  O   UNL     1       8.097   5.662  13.896  0.00  0.00    +0.000 OA
BRANCH  15  17
ATOM     17  O   UNL     1       6.822   3.805  13.477  0.00  0.00    +0.000 OA
ATOM     18  C   UNL     1       6.913   3.987  12.066  0.00  0.00    +0.000 C 
ENDBRANCH  15  17
ENDBRANCH   6  15
BRANCH  11  19
ATOM     19  O   UNL     1       3.012   5.671  20.856  0.00  0.00    +0.000 OA
BRANCH  19  20
ATOM     20  C   UNL     1       1.759   5.035  21.069  0.00  0.00    +0.000 C 
BRANCH  20  21
ATOM     21  C   UNL     1       1.934   3.619  21.602  0.00  0.00    +0.000 C 
BRANCH  21  22
ATOM     22  O   UNL     1       1.296   2.695  20.722  0.00  0.00    +0.000 OA
BRANCH  22  23
ATOM     23  C   UNL     1       1.794   2.675  19.449  0.00  0.00    +0.000 A 
ATOM     24  C   UNL     1       2.843   1.783  19.233  0.00  0.00    +0.000 A 
ATOM     25  C   UNL     1       3.413   1.660  17.965  0.00  0.00    +0.000 A 
ATOM     26  C   UNL     1       2.922   2.419  16.905  0.00  0.00    +0.000 A 
ATOM     27  C   UNL     1       1.863   3.301  17.112  0.00  0.00    +0.000 A 
ATOM     28  C   UNL     1       1.298   3.428  18.382  0.00  0.00    +0.000 A 
ENDBRANCH  22  23
ENDBRANCH  21  22
ENDBRANCH  20  21
ENDBRANCH  19  20
ENDBRANCH  11  19
TORSDOF 8
ENDMDL
MODEL 3
REMARK VINA RESULT:      -8.3      0.950      1.163
REMARK  Name = 
REMARK  10 active torsions:
REMARK  status: ('A' for Active; 'I' for Inactive)
REMARK    1  A    between atoms: C_1  and  C_2
REMARK    2  A    between atoms: C_2  and  C_3
REMARK    3  A    between atoms: C_8  and  C_9
REMARK    4  A    between atoms: C_9  and  O_11
REMARK    5  A    between atoms: O_11  and  C_12
REMARK    6  A    between atoms: C_17  and  O_18
REMARK    7  A    between atoms: O_18  and  C_19
REMARK    8  A    between atoms: C_19  and  C_20
REMARK    9  A    between atoms: C_20  and  O_21
REMARK   10  A    between atoms: O_21  and  C_22
REMARK                            x       y       z     vdW  Elec       q    Type
REMARK                         _______ _______ _______ _____ _____    ______ ____
ROOT
ATOM      1  C   UNL     1       6.216   5.240  15.982  0.00  0.00    +0.000 A 
ATOM      2  C   UNL     1       5.123   4.410  16.319  0.00  0.00    +0.000 A 
ATOM      3  C   UNL     1       4.434   4.541  17.526  0.00  0.00    +0.000 A 
ATOM      4  C   UNL     1       3.273   3.659  17.815  0.00  0.00    +0.000 A 
ATOM      5  O   UNL     1       2.883   2.879  16.950  0.00  0.00    +0.000 OA
ATOM      6  C   UNL     1       2.611   3.800  19.138  0.00  0.00    +0.000 A 
ATOM      7  C   UNL     1       3.069   4.769  19.954  0.00  0.00    +0.000 A 
ATOM      8  N   UNL     1       4.109   5.617  19.664  0.00  0.00    +0.000 N 
ATOM      9  C   UNL     1       4.815   5.499  18.463  0.00  0.00    +0.000 A 
ATOM     10  C   UNL     1       5.887   6.337  18.140  0.00  0.00    +0.000 A 
ATOM     11  C   UNL     1       6.575   6.243  16.903  0.00  0.00    +0.000 A 
ATOM     12  H   UNL     1       4.416   6.287  20.361  0.00  0.00    +0.000 HD
ENDROOT
BRANCH   1  14
ATOM     13  C   UNL     1       6.089   3.952  13.761  0.00  0.00    +0.000 C 
ATOM     14  C   UNL     1       6.853   4.925  14.645  0.00  0.00    +0.000 C 
ENDBRANCH   1  14
BRANCH   6  15
ATOM     15  C   UNL     1       1.486   2.956  19.596  0.00  0.00    +0.000 C 
ATOM     16  O   UNL     1       0.356   3.010  19.122  0.00  0.00    +0.000 OA
BRANCH  15  17
ATOM     17  O   UNL     1       1.862   2.165  20.626  0.00  0.00    +0.000 OA
ATOM     18  C   UNL     1       1.391   2.566  21.911  0.00  0.00    +0.000 C 
ENDBRANCH  15  17
ENDBRANCH   6  15
BRANCH  11  19
ATOM     19  O   UNL     1       7.564   7.185  16.830  0.00  0.00    +0.000 OA
BRANCH  19  20
ATOM     20  C   UNL     1       7.932   7.961  17.962  0.00  0.00    +0.000 C 
BRANCH  20  21
ATOM     21  C   UNL     1       8.125   9.427  17.596  0.00  0.00    +0.000 C 
BRANCH  21  22
ATOM     22  O   UNL     1       8.832  10.092  18.641  0.00  0.00    +0.000 OA
BRANCH  22  23
ATOM     23  C   UNL     1       9.388  11.290  18.287  0.00  0.00    +0.000 A 
ATOM     24  C   UNL     1      10.739  11.244  17.946  0.00  0.00    +0.000 A 
ATOM     25  C   UNL     1      11.404  12.403  17.544  0.00  0.00    +0.000 A 
ATOM     26  C   UNL     1      10.713  13.610  17.468  0.00  0.00    +0.000 A 
ATOM     27  C   UNL     1       9.358  13.660  17.793  0.00  0.00    +0.000 A 
ATOM     28  C   UNL     1       8.695  12.500  18.201  0.00  0.00    +0.000 A 
ENDBRANCH  22  23
ENDBRANCH  21  22
ENDBRANCH  20  21
ENDBRANCH  19  20
ENDBRANCH  11  19
TORSDOF 8
ENDMDL
MODEL 4
REMARK VINA RESULT:      -8.2      0.580      1.073
REMARK  Name = 
REMARK  10 active torsions:
REMARK  status: ('A' for Active; 'I' for Inactive)
REMARK    1  A    between atoms: C_1  and  C_2
REMARK    2  A    between atoms: C_2  and  C_3
REMARK    3  A    between atoms: C_8  and  C_9
REMARK    4  A    between atoms: C_9  and  O_11
REMARK    5  A    between atoms: O_11  and  C_12
REMARK    6  A    between atoms: C_17  and  O_18
REMARK    7  A    between atoms: O_18  and  C_19
REMARK    8  A    between atoms: C_19  and  C_20
REMARK    9  A    between atoms: C_20  and  O_21
REMARK   10  A    between atoms: O_21  and  C_22
REMARK                            x       y       z     vdW  Elec       q    Type
REMARK                         _______ _______ _______ _____ _____    ______ ____
ROOT
ATOM      1  C   UNL     1       5.947   5.141  16.182  0.00  0.00    +0.000 A 
ATOM      2  C   UNL     1       4.924   4.255  16.588  0.00  0.00    +0.000 A 
ATOM      3  C   UNL     1       4.005   4.588  17.585  0.00  0.00    +0.000 A 
ATOM      4  C   UNL     1       2.931   3.628  17.952  0.00  0.00    +0.000 A 
ATOM      5  O   UNL     1       2.817   2.584  17.314  0.00  0.00    +0.000 OA
ATOM      6  C   UNL     1       2.014   4.007  19.059  0.00  0.00    +0.000 A 
ATOM      7  C   UNL     1       2.180   5.227  19.603  0.00  0.00    +0.000 A 
ATOM      8  N   UNL     1       3.141   6.134  19.227  0.00  0.00    +0.000 N 
ATOM      9  C   UNL     1       4.073   5.818  18.235  0.00  0.00    +0.000 A 
ATOM     10  C   UNL     1       5.072   6.711  17.836  0.00  0.00    +0.000 A 
ATOM     11  C   UNL     1       5.993   6.405  16.801  0.00  0.00    +0.000 A 
ATOM     12  H   UNL     1       3.220   7.013  19.727  0.00  0.00    +0.000 HD
ENDROOT
BRANCH   1  14
ATOM     13  C   UNL     1       6.179   3.884  13.951  0.00  0.00    +0.000 C 
ATOM     14  C   UNL     1       6.865   4.589  15.111  0.00  0.00    +0.000 C 
ENDBRANCH   1  14
BRANCH   6  15
ATOM     15  C   UNL     1       0.938   3.135  19.578  0.00  0.00    +0.000 C 
ATOM     16  O   UNL     1       0.232   2.427  18.869  0.00  0.00    +0.000 OA
BRANCH  15  17
ATOM     17  O   UNL     1       0.814   3.267  20.919  0.00  0.00    +0.000 OA
ATOM     18  C   UNL     1       1.719   2.486  21.698  0.00  0.00    +0.000 C 
ENDBRANCH  15  17
ENDBRANCH   6  15
BRANCH  11  19
ATOM     19  O   UNL     1       6.849   7.450  16.593  0.00  0.00    +0.000 OA
BRANCH  19  20
ATOM     20  C   UNL     1       7.007   8.481  17.559  0.00  0.00    +0.000 C 
BRANCH  20  21
ATOM     21  C   UNL     1       8.473   8.691  17.918  0.00  0.00    +0.000 C 
BRANCH  21  22
ATOM     22  O   UNL     1       8.567   9.367  19.171  0.00  0.00    +0.000 OA
BRANCH  22  23
ATOM     23  C   UNL     1       9.390  10.459  19.174  0.00  0.00    +0.000 A 
ATOM     24  C   UNL     1       9.783  10.905  20.435  0.00  0.00    +0.000 A 
ATOM     25  C   UNL     1      10.644  11.997  20.558  0.00  0.00    +0.000 A 
ATOM     26  C   UNL     1      11.124  12.636  19.418  0.00  0.00    +0.000 A 
ATOM     27  C   UNL     1      10.746  12.185  18.154  0.00  0.00    +0.000 A 
ATOM     28  C   UNL     1       9.881  11.096  18.032  0.00  0.00    +0.000 A 
ENDBRANCH  22  23
ENDBRANCH  21  22
ENDBRANCH  20  21
ENDBRANCH  19  20
ENDBRANCH  11  19
TORSDOF 8
ENDMDL
MODEL 5
REMARK VINA RESULT:      -8.2      4.969      7.570
REMARK  Name = 
REMARK  10 active torsions:
REMARK  status: ('A' for Active; 'I' for Inactive)
REMARK    1  A    between atoms: C_1  and  C_2
REMARK    2  A    between atoms: C_2  and  C_3
REMARK    3  A    between atoms: C_8  and  C_9
REMARK    4  A    between atoms: C_9  and  O_11
REMARK    5  A    between atoms: O_11  and  C_12
REMARK    6  A    between atoms: C_17  and  O_18
REMARK    7  A    between atoms: O_18  and  C_19
REMARK    8  A    between atoms: C_19  and  C_20
REMARK    9  A    between atoms: C_20  and  O_21
REMARK   10  A    between atoms: O_21  and  C_22
REMARK                            x       y       z     vdW  Elec       q    Type
REMARK                         _______ _______ _______ _____ _____    ______ ____
ROOT
ATOM      1  C   UNL     1       2.301   8.343  18.416  0.00  0.00    +0.000 A 
ATOM      2  C   UNL     1       3.266   7.847  17.510  0.00  0.00    +0.000 A 
ATOM      3  C   UNL     1       3.920   6.629  17.712  0.00  0.00    +0.000 A 
ATOM      4  C   UNL     1       4.904   6.143  16.711  0.00  0.00    +0.000 A 
ATOM      5  O   UNL     1       5.070   6.781  15.674  0.00  0.00    +0.000 OA
ATOM      6  C   UNL     1       5.615   4.871  17.003  0.00  0.00    +0.000 A 
ATOM      7  C   UNL     1       5.262   4.213  18.123  0.00  0.00    +0.000 A 
ATOM      8  N   UNL     1       4.314   4.639  19.022  0.00  0.00    +0.000 N 
ATOM      9  C   UNL     1       3.652   5.856  18.839  0.00  0.00    +0.000 A 
ATOM     10  C   UNL     1       2.691   6.327  19.740  0.00  0.00    +0.000 A 
ATOM     11  C   UNL     1       1.990   7.543  19.532  0.00  0.00    +0.000 A 
ATOM     12  H   UNL     1       4.147   4.100  19.865  0.00  0.00    +0.000 HD
ENDROOT
BRANCH   1  14
ATOM     13  C   UNL     1       0.212   9.755  17.916  0.00  0.00    +0.000 C 
ATOM     14  C   UNL     1       1.726   9.693  18.041  0.00  0.00    +0.000 C 
ENDBRANCH   1  14
BRANCH   6  15
ATOM     15  C   UNL     1       6.663   4.290  16.136  0.00  0.00    +0.000 C 
ATOM     16  O   UNL     1       7.851   4.583  16.213  0.00  0.00    +0.000 OA
BRANCH  15  17
ATOM     17  O   UNL     1       6.127   3.440  15.231  0.00  0.00    +0.000 OA
ATOM     18  C   UNL     1       6.174   3.880  13.875  0.00  0.00    +0.000 C 
ENDBRANCH  15  17
ENDBRANCH   6  15
BRANCH  11  19
ATOM     19  O   UNL     1       1.096   7.762  20.544  0.00  0.00    +0.000 OA
BRANCH  19  20
ATOM     20  C   UNL     1       1.483   8.424  21.741  0.00  0.00    +0.000 C 
BRANCH  20  21
ATOM     21  C   UNL     1       0.494   9.520  22.118  0.00  0.00    +0.000 C 
BRANCH  21  22
ATOM     22  O   UNL     1       1.090  10.797  21.901  0.00  0.00    +0.000 OA
BRANCH  22  23
ATOM     23  C   UNL     1       0.398  11.618  21.054  0.00  0.00    +0.000 A 
ATOM     24  C   UNL     1       1.169  12.554  20.368  0.00  0.00    +0.000 A 
ATOM     25  C   UNL     1       0.572  13.428  19.457  0.00  0.00    +0.000 A 
ATOM     26  C   UNL     1      -0.799  13.356  19.222  0.00  0.00    +0.000 A 
ATOM     27  C   UNL     1      -1.573  12.411  19.894  0.00  0.00    +0.000 A 
ATOM     28  C   UNL     1      -0.975  11.541  20.808  0.00  0.00    +0.000 A 
ENDBRANCH  22  23
ENDBRANCH  21  22
ENDBRANCH  20  21
ENDBRANCH  19  20
ENDBRANCH  11  19
TORSDOF 8
ENDMDL
MODEL 6
REMARK VINA RESULT:      -8.1      3.682      6.271
REMARK  Name = 
REMARK  10 active torsions:
REMARK  status: ('A' for Active; 'I' for Inactive)
REMARK    1  A    between atoms: C_1  and  C_2
REMARK    2  A    between atoms: C_2  and  C_3
REMARK    3  A    between atoms: C_8  and  C_9
REMARK    4  A    between atoms: C_9  and  O_11
REMARK    5  A    between atoms: O_11  and  C_12
REMARK    6  A    between atoms: C_17  and  O_18
REMARK    7  A    between atoms: O_18  and  C_19
REMARK    8  A    between atoms: C_19  and  C_20
REMARK    9  A    between atoms: C_20  and  O_21
REMARK   10  A    between atoms: O_21  and  C_22
REMARK                            x       y       z     vdW  Elec       q    Type
REMARK                         _______ _______ _______ _____ _____    ______ ____
ROOT
ATOM      1  C   UNL     1       2.902   4.593  19.769  0.00  0.00    +0.000 A 
ATOM      2  C   UNL     1       2.246   5.697  20.358  0.00  0.00    +0.000 A 
ATOM      3  C   UNL     1       2.123   6.924  19.703  0.00  0.00    +0.000 A 
ATOM      4  C   UNL     1       1.396   8.043  20.359  0.00  0.00    +0.000 A 
ATOM      5  O   UNL     1       0.841   7.847  21.437  0.00  0.00    +0.000 OA
ATOM      6  C   UNL     1       1.343   9.345  19.645  0.00  0.00    +0.000 A 
ATOM      7  C   UNL     1       1.899   9.396  18.420  0.00  0.00    +0.000 A 
ATOM      8  N   UNL     1       2.526   8.347  17.793  0.00  0.00    +0.000 N 
ATOM      9  C   UNL     1       2.663   7.112  18.434  0.00  0.00    +0.000 A 
ATOM     10  C   UNL     1       3.306   6.025  17.831  0.00  0.00    +0.000 A 
ATOM     11  C   UNL     1       3.409   4.760  18.466  0.00  0.00    +0.000 A 
ATOM     12  H   UNL     1       2.958   8.492  16.887  0.00  0.00    +0.000 HD
ENDROOT
BRANCH   1  14
ATOM     13  C   UNL     1       1.689   3.028  21.408  0.00  0.00    +0.000 C 
ATOM     14  C   UNL     1       2.962   3.359  20.646  0.00  0.00    +0.000 C 
ENDBRANCH   1  14
BRANCH   6  15
ATOM     15  C   UNL     1       0.712  10.566  20.193  0.00  0.00    +0.000 C 
ATOM     16  O   UNL     1       1.116  11.153  21.190  0.00  0.00    +0.000 OA
BRANCH  15  17
ATOM     17  O   UNL     1      -0.384  10.906  19.477  0.00  0.00    +0.000 OA
ATOM     18  C   UNL     1      -0.437  12.265  19.047  0.00  0.00    +0.000 C 
ENDBRANCH  15  17
ENDBRANCH   6  15
BRANCH  11  19
ATOM     19  O   UNL     1       4.062   3.869  17.660  0.00  0.00    +0.000 OA
BRANCH  19  20
ATOM     20  C   UNL     1       4.463   4.219  16.342  0.00  0.00    +0.000 C 
BRANCH  20  21
ATOM     21  C   UNL     1       5.731   3.484  15.929  0.00  0.00    +0.000 C 
BRANCH  21  22
ATOM     22  O   UNL     1       6.740   4.430  15.580  0.00  0.00    +0.000 OA
BRANCH  22  23
ATOM     23  C   UNL     1       7.112   5.274  16.590  0.00  0.00    +0.000 A 
ATOM     24  C   UNL     1       7.560   4.651  17.754  0.00  0.00    +0.000 A 
ATOM     25  C   UNL     1       7.989   5.414  18.840  0.00  0.00    +0.000 A 
ATOM     26  C   UNL     1       7.984   6.805  18.759  0.00  0.00    +0.000 A 
ATOM     27  C   UNL     1       7.551   7.433  17.593  0.00  0.00    +0.000 A 
ATOM     28  C   UNL     1       7.117   6.669  16.508  0.00  0.00    +0.000 A 
ENDBRANCH  22  23
ENDBRANCH  21  22
ENDBRANCH  20  21
ENDBRANCH  19  20
ENDBRANCH  11  19
TORSDOF 8
ENDMDL
MODEL 7
REMARK VINA RESULT:      -8.1      4.382      7.988
REMARK  Name = 
REMARK  10 active torsions:
REMARK  status: ('A' for Active; 'I' for Inactive)
REMARK    1  A    between atoms: C_1  and  C_2
REMARK    2  A    between atoms: C_2  and  C_3
REMARK    3  A    between atoms: C_8  and  C_9
REMARK    4  A    between atoms: C_9  and  O_11
REMARK    5  A    between atoms: O_11  and  C_12
REMARK    6  A    between atoms: C_17  and  O_18
REMARK    7  A    between atoms: O_18  and  C_19
REMARK    8  A    between atoms: C_19  and  C_20
REMARK    9  A    between atoms: C_20  and  O_21
REMARK   10  A    between atoms: O_21  and  C_22
REMARK                            x       y       z     vdW  Elec       q    Type
REMARK                         _______ _______ _______ _____ _____    ______ ____
ROOT
ATOM      1  C   UNL     1       1.837   4.773  19.972  0.00  0.00    +0.000 A 
ATOM      2  C   UNL     1       2.677   4.207  18.986  0.00  0.00    +0.000 A 
ATOM      3  C   UNL     1       3.465   4.993  18.141  0.00  0.00    +0.000 A 
ATOM      4  C   UNL     1       4.352   4.343  17.142  0.00  0.00    +0.000 A 
ATOM      5  O   UNL     1       4.443   3.117  17.127  0.00  0.00    +0.000 OA
ATOM      6  C   UNL     1       5.125   5.224  16.228  0.00  0.00    +0.000 A 
ATOM      7  C   UNL     1       5.019   6.552  16.421  0.00  0.00    +0.000 A 
ATOM      8  N   UNL     1       4.238   7.150  17.380  0.00  0.00    +0.000 N 
ATOM      9  C   UNL     1       3.439   6.382  18.232  0.00  0.00    +0.000 A 
ATOM     10  C   UNL     1       2.622   6.957  19.210  0.00  0.00    +0.000 A 
ATOM     11  C   UNL     1       1.843   6.175  20.102  0.00  0.00    +0.000 A 
ATOM     12  H   UNL     1       4.184   8.162  17.420  0.00  0.00    +0.000 HD
ENDROOT
BRANCH   1  14
ATOM     13  C   UNL     1       1.848   2.822  21.647  0.00  0.00    +0.000 C 
ATOM     14  C   UNL     1       1.038   3.762  20.768  0.00  0.00    +0.000 C 
ENDBRANCH   1  14
BRANCH   6  15
ATOM     15  C   UNL     1       6.001   4.729  15.144  0.00  0.00    +0.000 C 
ATOM     16  O   UNL     1       5.584   4.253  14.094  0.00  0.00    +0.000 OA
BRANCH  15  17
ATOM     17  O   UNL     1       7.305   4.829  15.492  0.00  0.00    +0.000 OA
ATOM     18  C   UNL     1       7.596   4.558  16.862  0.00  0.00    +0.000 C 
ENDBRANCH  15  17
ENDBRANCH   6  15
BRANCH  11  19
ATOM     19  O   UNL     1       1.154   6.976  20.969  0.00  0.00    +0.000 OA
BRANCH  19  20
ATOM     20  C   UNL     1       1.448   8.361  21.089  0.00  0.00    +0.000 C 
BRANCH  20  21
ATOM     21  C   UNL     1       0.199   9.215  20.916  0.00  0.00    +0.000 C 
BRANCH  21  22
ATOM     22  O   UNL     1       0.444  10.230  19.944  0.00  0.00    +0.000 OA
BRANCH  22  23
ATOM     23  C   UNL     1      -0.634  10.556  19.168  0.00  0.00    +0.000 A 
ATOM     24  C   UNL     1      -0.760   9.827  17.987  0.00  0.00    +0.000 A 
ATOM     25  C   UNL     1      -1.836  10.057  17.129  0.00  0.00    +0.000 A 
ATOM     26  C   UNL     1      -2.799  11.008  17.460  0.00  0.00    +0.000 A 
ATOM     27  C   UNL     1      -2.686  11.729  18.648  0.00  0.00    +0.000 A 
ATOM     28  C   UNL     1      -1.606  11.502  19.503  0.00  0.00    +0.000 A 
ENDBRANCH  22  23
ENDBRANCH  21  22
ENDBRANCH  20  21
ENDBRANCH  19  20
ENDBRANCH  11  19
TORSDOF 8
ENDMDL
MODEL 8
REMARK VINA RESULT:      -8.0      5.244      8.538
REMARK  Name = 
REMARK  10 active torsions:
REMARK  status: ('A' for Active; 'I' for Inactive)
REMARK    1  A    between atoms: C_1  and  C_2
REMARK    2  A    between atoms: C_2  and  C_3
REMARK    3  A    between atoms: C_8  and  C_9
REMARK    4  A    between atoms: C_9  and  O_11
REMARK    5  A    between atoms: O_11  and  C_12
REMARK    6  A    between atoms: C_17  and  O_18
REMARK    7  A    between atoms: O_18  and  C_19
REMARK    8  A    between atoms: C_19  and  C_20
REMARK    9  A    between atoms: C_20  and  O_21
REMARK   10  A    between atoms: O_21  and  C_22
REMARK                            x       y       z     vdW  Elec       q    Type
REMARK                         _______ _______ _______ _____ _____    ______ ____
ROOT
ATOM      1  C   UNL     1       1.852   7.048  20.196  0.00  0.00    +0.000 A 
ATOM      2  C   UNL     1       1.203   7.805  21.197  0.00  0.00    +0.000 A 
ATOM      3  C   UNL     1       0.757   9.109  20.972  0.00  0.00    +0.000 A 
ATOM      4  C   UNL     1       0.053   9.846  22.054  0.00  0.00    +0.000 A 
ATOM      5  O   UNL     1      -0.199   9.269  23.108  0.00  0.00    +0.000 OA
ATOM      6  C   UNL     1      -0.350  11.251  21.782  0.00  0.00    +0.000 A 
ATOM      7  C   UNL     1      -0.110  11.731  20.547  0.00  0.00    +0.000 A 
ATOM      8  N   UNL     1       0.493  11.029  19.532  0.00  0.00    +0.000 N 
ATOM      9  C   UNL     1       0.952   9.725  19.739  0.00  0.00    +0.000 A 
ATOM     10  C   UNL     1       1.582   8.986  18.733  0.00  0.00    +0.000 A 
ATOM     11  C   UNL     1       2.009   7.648  18.931  0.00  0.00    +0.000 A 
ATOM     12  H   UNL     1       0.675  11.489  18.646  0.00  0.00    +0.000 HD
ENDROOT
BRANCH   1  14
ATOM     13  C   UNL     1       1.242   4.573  20.527  0.00  0.00    +0.000 C 
ATOM     14  C   UNL     1       2.291   5.668  20.639  0.00  0.00    +0.000 C 
ENDBRANCH   1  14
BRANCH   6  15
ATOM     15  C   UNL     1      -1.001  12.133  22.775  0.00  0.00    +0.000 C 
ATOM     16  O   UNL     1      -0.458  13.111  23.278  0.00  0.00    +0.000 OA
BRANCH  15  17
ATOM     17  O   UNL     1      -2.240  11.686  23.080  0.00  0.00    +0.000 OA
ATOM     18  C   UNL     1      -3.315  12.520  22.652  0.00  0.00    +0.000 C 
ENDBRANCH  15  17
ENDBRANCH   6  15
BRANCH  11  19
ATOM     19  O   UNL     1       2.575   7.149  17.791  0.00  0.00    +0.000 OA
BRANCH  19  20
ATOM     20  C   UNL     1       3.932   7.410  17.462  0.00  0.00    +0.000 C 
BRANCH  20  21
ATOM     21  C   UNL     1       4.837   6.251  17.861  0.00  0.00    +0.000 C 
BRANCH  21  22
ATOM     22  O   UNL     1       4.547   5.116  17.047  0.00  0.00    +0.000 OA
BRANCH  22  23
ATOM     23  C   UNL     1       4.056   4.034  17.724  0.00  0.00    +0.000 A 
ATOM     24  C   UNL     1       2.914   3.455  17.174  0.00  0.00    +0.000 A 
ATOM     25  C   UNL     1       2.340   2.329  17.766  0.00  0.00    +0.000 A 
ATOM     26  C   UNL     1       2.918   1.771  18.904  0.00  0.00    +0.000 A 
ATOM     27  C   UNL     1       4.068   2.337  19.450  0.00  0.00    +0.000 A 
ATOM     28  C   UNL     1       4.639   3.466  18.860  0.00  0.00    +0.000 A 
ENDBRANCH  22  23
ENDBRANCH  21  22
ENDBRANCH  20  21
ENDBRANCH  19  20
ENDBRANCH  11  19
TORSDOF 8
ENDMDL
MODEL 9
REMARK VINA RESULT:      -8.0      5.056      7.492
REMARK  Name = 
REMARK  10 active torsions:
REMARK  status: ('A' for Active; 'I' for Inactive)
REMARK    1  A    between atoms: C_1  and  C_2
REMARK    2  A    between atoms: C_2  and  C_3
REMARK    3  A    between atoms: C_8  and  C_9
REMARK    4  A    between atoms: C_9  and  O_11
REMARK    5  A    between atoms: O_11  and  C_12
REMARK    6  A    between atoms: C_17  and  O_18
REMARK    7  A    between atoms: O_18  and  C_19
REMARK    8  A    between atoms: C_19  and  C_20
REMARK    9  A    between atoms: C_20  and  O_21
REMARK   10  A    between atoms: O_21  and  C_22
REMARK                            x       y       z     vdW  Elec       q    Type
REMARK                         _______ _______ _______ _____ _____    ______ ____
ROOT
ATOM      1  C   UNL     1       2.100   8.192  18.551  0.00  0.00    +0.000 A 
ATOM      2  C   UNL     1       3.058   7.699  17.636  0.00  0.00    +0.000 A 
ATOM      3  C   UNL     1       3.822   6.560  17.901  0.00  0.00    +0.000 A 
ATOM      4  C   UNL     1       4.795   6.071  16.890  0.00  0.00    +0.000 A 
ATOM      5  O   UNL     1       4.856   6.629  15.797  0.00  0.00    +0.000 OA
ATOM      6  C   UNL     1       5.624   4.889  17.244  0.00  0.00    +0.000 A 
ATOM      7  C   UNL     1       5.381   4.303  18.432  0.00  0.00    +0.000 A 
ATOM      8  N   UNL     1       4.445   4.726  19.344  0.00  0.00    +0.000 N 
ATOM      9  C   UNL     1       3.674   5.867  19.100  0.00  0.00    +0.000 A 
ATOM     10  C   UNL     1       2.721   6.334  20.010  0.00  0.00    +0.000 A 
ATOM     11  C   UNL     1       1.911   7.468  19.744  0.00  0.00    +0.000 A 
ATOM     12  H   UNL     1       4.365   4.249  20.235  0.00  0.00    +0.000 HD
ENDROOT
BRANCH   1  14
ATOM     13  C   UNL     1       2.284  10.672  17.901  0.00  0.00    +0.000 C 
ATOM     14  C   UNL     1       1.396   9.455  18.100  0.00  0.00    +0.000 C 
ENDBRANCH   1  14
BRANCH   6  15
ATOM     15  C   UNL     1       6.675   4.322  16.371  0.00  0.00    +0.000 C 
ATOM     16  O   UNL     1       7.871   4.552  16.507  0.00  0.00    +0.000 OA
BRANCH  15  17
ATOM     17  O   UNL     1       6.132   3.567  15.389  0.00  0.00    +0.000 OA
ATOM     18  C   UNL     1       6.363   4.032  14.061  0.00  0.00    +0.000 C 
ENDBRANCH  15  17
ENDBRANCH   6  15
BRANCH  11  19
ATOM     19  O   UNL     1       1.052   7.700  20.781  0.00  0.00    +0.000 OA
BRANCH  19  20
ATOM     20  C   UNL     1       1.345   8.666  21.782  0.00  0.00    +0.000 C 
BRANCH  20  21
ATOM     21  C   UNL     1       0.375   9.840  21.728  0.00  0.00    +0.000 C 
BRANCH  21  22
ATOM     22  O   UNL     1       1.106  11.063  21.674  0.00  0.00    +0.000 OA
BRANCH  22  23
ATOM     23  C   UNL     1       0.637  11.974  20.767  0.00  0.00    +0.000 A 
ATOM     24  C   UNL     1      -0.571  11.641  20.158  0.00  0.00    +0.000 A 
ATOM     25  C   UNL     1      -1.157  12.509  19.235  0.00  0.00    +0.000 A 
ATOM     26  C   UNL     1      -0.539  13.720  18.930  0.00  0.00    +0.000 A 
ATOM     27  C   UNL     1       0.662  14.065  19.548  0.00  0.00    +0.000 A 
ATOM     28  C   UNL     1       1.250  13.193  20.467  0.00  0.00    +0.000 A 
ENDBRANCH  22  23
ENDBRANCH  21  22
ENDBRANCH  20  21
ENDBRANCH  19  20
ENDBRANCH  11  19
TORSDOF 8
ENDMDL
