MODEL 1
REMARK VINA RESULT:      -8.5      0.000      0.000
REMARK  Name = 
REMARK  3 active torsions:
REMARK  status: ('A' for Active; 'I' for Inactive)
REMARK    1  A    between atoms: C_2  and  C_10
REMARK    2  A    between atoms: N_13  and  C_14
REMARK    3  A    between atoms: C_14  and  C_15
REMARK                            x       y       z     vdW  Elec       q    Type
REMARK                         _______ _______ _______ _____ _____    ______ ____
ROOT
ATOM      1  C   UNL     1       7.335   6.144  17.688  0.00  0.00    +0.000 C 
ATOM      2  C   UNL     1       6.849   5.538  19.004  0.00  0.00    +0.000 C 
ATOM      3  C   UNL     1       5.343   5.312  18.995  0.00  0.00    +0.000 C 
ATOM      4  N   UNL     1       4.646   6.599  18.842  0.00  0.00    +0.000 NA
ATOM      5  C   UNL     1       5.014   7.237  17.565  0.00  0.00    +0.000 C 
ATOM      6  C   UNL     1       6.523   7.408  17.362  0.00  0.00    +0.000 C 
ENDROOT
BRANCH   1   8
ATOM      7  O   UNL     1       7.386   3.914  16.719  0.00  0.00    +0.000 OA
ATOM      8  C   UNL     1       7.287   5.122  16.550  0.00  0.00    +0.000 C 
ATOM      9  N   UNL     1       7.140   5.715  15.308  0.00  0.00    +0.000 N 
ATOM     10  C   UNL     1       7.034   4.990  14.118  0.00  0.00    +0.000 A 
ATOM     11  C   UNL     1       6.269   3.838  14.020  0.00  0.00    +0.000 A 
ATOM     12  C   UNL     1       6.182   3.192  12.784  0.00  0.00    +0.000 A 
ATOM     13  C   UNL     1       6.902   3.705  11.710  0.00  0.00    +0.000 A 
ATOM     14  C   UNL     1       7.644   4.851  11.908  0.00  0.00    +0.000 A 
ATOM     15  N   UNL     1       7.686   5.535  13.074  0.00  0.00    +0.000 NA
ATOM     16  H   UNL     1       7.559   6.628  15.172  0.00  0.00    +0.000 HD
ENDBRANCH   1   8
BRANCH   4  17
ATOM     17  C   UNL     1       3.177   6.382  18.873  0.00  0.00    +0.000 C 
BRANCH  17  18
ATOM     18  C   UNL     1       2.739   4.951  18.622  0.00  0.00    +0.000 A 
ATOM     19  C   UNL     1       2.795   4.418  17.322  0.00  0.00    +0.000 A 
ATOM     20  C   UNL     1       2.430   3.093  17.076  0.00  0.00    +0.000 A 
ATOM     21  C   UNL     1       2.017   2.276  18.126  0.00  0.00    +0.000 A 
ATOM     22  C   UNL     1       1.954   2.786  19.421  0.00  0.00    +0.000 A 
ATOM     23  C   UNL     1       2.320   4.117  19.673  0.00  0.00    +0.000 A 
ATOM     24  O   UNL     1       2.273   4.654  20.937  0.00  0.00    +0.000 OA
ATOM     25  C   UNL     1       2.321   3.635  21.935  0.00  0.00    +0.000 C 
ATOM     26  C   UNL     1       1.298   2.551  21.646  0.00  0.00    +0.000 C 
ATOM     27  O   UNL     1       1.555   1.907  20.395  0.00  0.00    +0.000 OA
ENDBRANCH  17  18
ENDBRANCH   4  17
TORSDOF 3
ENDMDL
MODEL 2
REMARK VINA RESULT:      -8.1      5.169      8.064
REMARK  Name = 
REMARK  3 active torsions:
REMARK  status: ('A' for Active; 'I' for Inactive)
REMARK    1  A    between atoms: C_2  and  C_10
REMARK    2  A    between atoms: N_13  and  C_14
REMARK    3  A    between atoms: C_14  and  C_15
REMARK                            x       y       z     vdW  Elec       q    Type
REMARK                         _______ _______ _______ _____ _____    ______ ____
ROOT
ATOM      1  C   UNL     1       1.000  10.604  19.478  0.00  0.00    +0.000 C 
ATOM      2  C   UNL     1       1.788  10.422  18.181  0.00  0.00    +0.000 C 
ATOM      3  C   UNL     1       1.726   8.983  17.686  0.00  0.00    +0.000 C 
ATOM      4  N   UNL     1       2.339   8.087  18.679  0.00  0.00    +0.000 NA
ATOM      5  C   UNL     1       1.605   8.155  19.957  0.00  0.00    +0.000 C 
ATOM      6  C   UNL     1       1.460   9.573  20.520  0.00  0.00    +0.000 C 
ENDROOT
BRANCH   1   8
ATOM      7  O   UNL     1      -1.300  10.008  19.999  0.00  0.00    +0.000 OA
ATOM      8  C   UNL     1      -0.509  10.536  19.230  0.00  0.00    +0.000 C 
ATOM      9  N   UNL     1      -0.877  11.120  18.029  0.00  0.00    +0.000 N 
ATOM     10  C   UNL     1      -2.203  11.215  17.595  0.00  0.00    +0.000 A 
ATOM     11  C   UNL     1      -3.238  11.554  18.453  0.00  0.00    +0.000 A 
ATOM     12  C   UNL     1      -4.530  11.668  17.934  0.00  0.00    +0.000 A 
ATOM     13  C   UNL     1      -4.735  11.392  16.586  0.00  0.00    +0.000 A 
ATOM     14  C   UNL     1      -3.643  11.052  15.814  0.00  0.00    +0.000 A 
ATOM     15  N   UNL     1      -2.373  11.006  16.276  0.00  0.00    +0.000 NA
ATOM     16  H   UNL     1      -0.219  11.066  17.260  0.00  0.00    +0.000 HD
ENDBRANCH   1   8
BRANCH   4  17
ATOM     17  C   UNL     1       2.314   6.689  18.178  0.00  0.00    +0.000 C 
BRANCH  17  18
ATOM     18  C   UNL     1       3.650   5.970  18.233  0.00  0.00    +0.000 A 
ATOM     19  C   UNL     1       4.783   6.548  17.636  0.00  0.00    +0.000 A 
ATOM     20  C   UNL     1       6.028   5.919  17.707  0.00  0.00    +0.000 A 
ATOM     21  C   UNL     1       6.162   4.711  18.386  0.00  0.00    +0.000 A 
ATOM     22  C   UNL     1       5.050   4.122  18.985  0.00  0.00    +0.000 A 
ATOM     23  C   UNL     1       3.797   4.750  18.917  0.00  0.00    +0.000 A 
ATOM     24  O   UNL     1       2.680   4.201  19.496  0.00  0.00    +0.000 OA
ATOM     25  C   UNL     1       3.031   3.282  20.531  0.00  0.00    +0.000 C 
ATOM     26  C   UNL     1       4.067   2.289  20.039  0.00  0.00    +0.000 C 
ATOM     27  O   UNL     1       5.278   2.944  19.649  0.00  0.00    +0.000 OA
ENDBRANCH  17  18
ENDBRANCH   4  17
TORSDOF 3
ENDMDL
MODEL 3
REMARK VINA RESULT:      -7.7      5.155      8.409
REMARK  Name = 
REMARK  3 active torsions:
REMARK  status: ('A' for Active; 'I' for Inactive)
REMARK    1  A    between atoms: C_2  and  C_10
REMARK    2  A    between atoms: N_13  and  C_14
REMARK    3  A    between atoms: C_14  and  C_15
REMARK                            x       y       z     vdW  Elec       q    Type
REMARK                         _______ _______ _______ _____ _____    ______ ____
ROOT
ATOM      1  C   UNL     1      -0.090  10.257  19.860  0.00  0.00    +0.000 C 
ATOM      2  C   UNL     1       0.339   9.001  20.619  0.00  0.00    +0.000 C 
ATOM      3  C   UNL     1       1.717   8.525  20.180  0.00  0.00    +0.000 C 
ATOM      4  N   UNL     1       1.690   8.166  18.753  0.00  0.00    +0.000 NA
ATOM      5  C   UNL     1       1.337   9.339  17.933  0.00  0.00    +0.000 C 
ATOM      6  C   UNL     1       0.029  10.022  18.347  0.00  0.00    +0.000 C 
ENDROOT
BRANCH   1   8
ATOM      7  O   UNL     1       1.147  11.623  21.448  0.00  0.00    +0.000 OA
ATOM      8  C   UNL     1       0.707  11.483  20.315  0.00  0.00    +0.000 C 
ATOM      9  N   UNL     1       0.855  12.423  19.309  0.00  0.00    +0.000 N 
ATOM     10  C   UNL     1       1.575  13.611  19.469  0.00  0.00    +0.000 A 
ATOM     11  C   UNL     1       2.788  13.656  20.138  0.00  0.00    +0.000 A 
ATOM     12  C   UNL     1       3.465  14.876  20.220  0.00  0.00    +0.000 A 
ATOM     13  C   UNL     1       2.874  16.006  19.665  0.00  0.00    +0.000 A 
ATOM     14  C   UNL     1       1.659  15.863  19.028  0.00  0.00    +0.000 A 
ATOM     15  N   UNL     1       1.019  14.683  18.872  0.00  0.00    +0.000 NA
ATOM     16  H   UNL     1       0.105  12.510  18.634  0.00  0.00    +0.000 HD
ENDBRANCH   1   8
BRANCH   4  17
ATOM     17  C   UNL     1       3.024   7.663  18.336  0.00  0.00    +0.000 C 
BRANCH  17  18
ATOM     18  C   UNL     1       3.060   6.195  17.954  0.00  0.00    +0.000 A 
ATOM     19  C   UNL     1       1.912   5.400  18.113  0.00  0.00    +0.000 A 
ATOM     20  C   UNL     1       1.913   4.056  17.734  0.00  0.00    +0.000 A 
ATOM     21  C   UNL     1       3.058   3.489  17.178  0.00  0.00    +0.000 A 
ATOM     22  C   UNL     1       4.206   4.261  17.012  0.00  0.00    +0.000 A 
ATOM     23  C   UNL     1       4.209   5.612  17.391  0.00  0.00    +0.000 A 
ATOM     24  O   UNL     1       5.321   6.404  17.240  0.00  0.00    +0.000 OA
ATOM     25  C   UNL     1       6.204   5.875  16.252  0.00  0.00    +0.000 C 
ATOM     26  C   UNL     1       6.478   4.404  16.508  0.00  0.00    +0.000 C 
ATOM     27  O   UNL     1       5.280   3.627  16.439  0.00  0.00    +0.000 OA
ENDBRANCH  17  18
ENDBRANCH   4  17
TORSDOF 3
ENDMDL
MODEL 4
REMARK VINA RESULT:      -7.6      5.002      8.195
REMARK  Name = 
REMARK  3 active torsions:
REMARK  status: ('A' for Active; 'I' for Inactive)
REMARK    1  A    between atoms: C_2  and  C_10
REMARK    2  A    between atoms: N_13  and  C_14
REMARK    3  A    between atoms: C_14  and  C_15
REMARK                            x       y       z     vdW  Elec       q    Type
REMARK                         _______ _______ _______ _____ _____    ______ ____
ROOT
ATOM      1  C   UNL     1       1.138  10.301  19.532  0.00  0.00    +0.000 C 
ATOM      2  C   UNL     1       1.916  10.215  18.219  0.00  0.00    +0.000 C 
ATOM      3  C   UNL     1       1.796   8.834  17.588  0.00  0.00    +0.000 C 
ATOM      4  N   UNL     1       2.375   7.822  18.486  0.00  0.00    +0.000 NA
ATOM      5  C   UNL     1       1.647   7.795  19.769  0.00  0.00    +0.000 C 
ATOM      6  C   UNL     1       1.559   9.157  20.467  0.00  0.00    +0.000 C 
ENDROOT
BRANCH   1   8
ATOM      7  O   UNL     1      -1.192   9.865  20.075  0.00  0.00    +0.000 OA
ATOM      8  C   UNL     1      -0.372  10.317  19.287  0.00  0.00    +0.000 C 
ATOM      9  N   UNL     1      -0.707  10.879  18.067  0.00  0.00    +0.000 N 
ATOM     10  C   UNL     1      -2.026  11.040  17.631  0.00  0.00    +0.000 A 
ATOM     11  C   UNL     1      -3.036  11.472  18.477  0.00  0.00    +0.000 A 
ATOM     12  C   UNL     1      -4.320  11.646  17.954  0.00  0.00    +0.000 A 
ATOM     13  C   UNL     1      -4.545  11.336  16.617  0.00  0.00    +0.000 A 
ATOM     14  C   UNL     1      -3.478  10.903  15.858  0.00  0.00    +0.000 A 
ATOM     15  N   UNL     1      -2.213  10.796  16.320  0.00  0.00    +0.000 NA
ATOM     16  H   UNL     1      -0.056  10.759  17.300  0.00  0.00    +0.000 HD
ENDBRANCH   1   8
BRANCH   4  17
ATOM     17  C   UNL     1       2.294   6.481  17.853  0.00  0.00    +0.000 C 
BRANCH  17  18
ATOM     18  C   UNL     1       3.207   5.433  18.462  0.00  0.00    +0.000 A 
ATOM     19  C   UNL     1       2.656   4.339  19.152  0.00  0.00    +0.000 A 
ATOM     20  C   UNL     1       3.477   3.345  19.690  0.00  0.00    +0.000 A 
ATOM     21  C   UNL     1       4.859   3.423  19.534  0.00  0.00    +0.000 A 
ATOM     22  C   UNL     1       5.424   4.499  18.853  0.00  0.00    +0.000 A 
ATOM     23  C   UNL     1       4.603   5.500  18.312  0.00  0.00    +0.000 A 
ATOM     24  O   UNL     1       5.123   6.575  17.633  0.00  0.00    +0.000 OA
ATOM     25  C   UNL     1       6.429   6.288  17.133  0.00  0.00    +0.000 C 
ATOM     26  C   UNL     1       7.311   5.717  18.228  0.00  0.00    +0.000 C 
ATOM     27  O   UNL     1       6.790   4.484  18.731  0.00  0.00    +0.000 OA
ENDBRANCH  17  18
ENDBRANCH   4  17
TORSDOF 3
ENDMDL
MODEL 5
REMARK VINA RESULT:      -7.6      2.842      5.443
REMARK  Name = 
REMARK  3 active torsions:
REMARK  status: ('A' for Active; 'I' for Inactive)
REMARK    1  A    between atoms: C_2  and  C_10
REMARK    2  A    between atoms: N_13  and  C_14
REMARK    3  A    between atoms: C_14  and  C_15
REMARK                            x       y       z     vdW  Elec       q    Type
REMARK                         _______ _______ _______ _____ _____    ______ ____
ROOT
ATOM      1  C   UNL     1       2.200   2.239  19.693  0.00  0.00    +0.000 C 
ATOM      2  C   UNL     1       0.946   3.035  19.336  0.00  0.00    +0.000 C 
ATOM      3  C   UNL     1       1.163   4.532  19.514  0.00  0.00    +0.000 C 
ATOM      4  N   UNL     1       1.462   4.829  20.924  0.00  0.00    +0.000 NA
ATOM      5  C   UNL     1       2.697   4.142  21.345  0.00  0.00    +0.000 C 
ATOM      6  C   UNL     1       2.687   2.629  21.097  0.00  0.00    +0.000 C 
ENDROOT
BRANCH   1   8
ATOM      7  O   UNL     1       3.441   1.666  17.681  0.00  0.00    +0.000 OA
ATOM      8  C   UNL     1       3.294   2.416  18.637  0.00  0.00    +0.000 C 
ATOM      9  N   UNL     1       4.110   3.505  18.893  0.00  0.00    +0.000 N 
ATOM     10  C   UNL     1       5.157   3.895  18.053  0.00  0.00    +0.000 A 
ATOM     11  C   UNL     1       5.034   3.898  16.672  0.00  0.00    +0.000 A 
ATOM     12  C   UNL     1       6.114   4.340  15.903  0.00  0.00    +0.000 A 
ATOM     13  C   UNL     1       7.286   4.717  16.551  0.00  0.00    +0.000 A 
ATOM     14  C   UNL     1       7.315   4.669  17.929  0.00  0.00    +0.000 A 
ATOM     15  N   UNL     1       6.261   4.316  18.698  0.00  0.00    +0.000 NA
ATOM     16  H   UNL     1       4.277   3.747  19.862  0.00  0.00    +0.000 HD
ENDBRANCH   1   8
BRANCH   4  17
ATOM     17  C   UNL     1       1.634   6.293  21.104  0.00  0.00    +0.000 C 
BRANCH  17  18
ATOM     18  C   UNL     1       2.084   7.039  19.862  0.00  0.00    +0.000 A 
ATOM     19  C   UNL     1       2.976   6.430  18.963  0.00  0.00    +0.000 A 
ATOM     20  C   UNL     1       3.375   7.086  17.796  0.00  0.00    +0.000 A 
ATOM     21  C   UNL     1       2.878   8.354  17.503  0.00  0.00    +0.000 A 
ATOM     22  C   UNL     1       1.992   8.974  18.382  0.00  0.00    +0.000 A 
ATOM     23  C   UNL     1       1.589   8.319  19.556  0.00  0.00    +0.000 A 
ATOM     24  O   UNL     1       0.716   8.898  20.445  0.00  0.00    +0.000 OA
ATOM     25  C   UNL     1      -0.065   9.914  19.816  0.00  0.00    +0.000 C 
ATOM     26  C   UNL     1       0.822  10.877  19.049  0.00  0.00    +0.000 C 
ATOM     27  O   UNL     1       1.539  10.212  18.005  0.00  0.00    +0.000 OA
ENDBRANCH  17  18
ENDBRANCH   4  17
TORSDOF 3
ENDMDL
MODEL 6
REMARK VINA RESULT:      -7.6      5.259      8.128
REMARK  Name = 
REMARK  3 active torsions:
REMARK  status: ('A' for Active; 'I' for Inactive)
REMARK    1  A    between atoms: C_2  and  C_10
REMARK    2  A    between atoms: N_13  and  C_14
REMARK    3  A    between atoms: C_14  and  C_15
REMARK                            x       y       z     vdW  Elec       q    Type
REMARK                         _______ _______ _______ _____ _____    ______ ____
ROOT
ATOM      1  C   UNL     1       0.942  10.769  19.381  0.00  0.00    +0.000 C 
ATOM      2  C   UNL     1       1.706  10.144  18.214  0.00  0.00    +0.000 C 
ATOM      3  C   UNL     1       1.586   8.626  18.214  0.00  0.00    +0.000 C 
ATOM      4  N   UNL     1       2.179   8.079  19.445  0.00  0.00    +0.000 NA
ATOM      5  C   UNL     1       1.465   8.587  20.631  0.00  0.00    +0.000 C 
ATOM      6  C   UNL     1       1.378  10.116  20.702  0.00  0.00    +0.000 C 
ENDROOT
BRANCH   1   8
ATOM      7  O   UNL     1      -1.342  10.187  19.980  0.00  0.00    +0.000 OA
ATOM      8  C   UNL     1      -0.571  10.681  19.169  0.00  0.00    +0.000 C 
ATOM      9  N   UNL     1      -0.968  11.205  17.949  0.00  0.00    +0.000 N 
ATOM     10  C   UNL     1      -2.303  11.273  17.541  0.00  0.00    +0.000 A 
ATOM     11  C   UNL     1      -3.322  11.648  18.403  0.00  0.00    +0.000 A 
ATOM     12  C   UNL     1      -4.625  11.730  17.907  0.00  0.00    +0.000 A 
ATOM     13  C   UNL     1      -4.857  11.388  16.579  0.00  0.00    +0.000 A 
ATOM     14  C   UNL     1      -3.780  11.017  15.801  0.00  0.00    +0.000 A 
ATOM     15  N   UNL     1      -2.501  11.000  16.237  0.00  0.00    +0.000 NA
ATOM     16  H   UNL     1      -0.326  11.117  17.170  0.00  0.00    +0.000 HD
ENDBRANCH   1   8
BRANCH   4  17
ATOM     17  C   UNL     1       2.097   6.596  19.427  0.00  0.00    +0.000 C 
BRANCH  17  18
ATOM     18  C   UNL     1       3.042   5.919  18.451  0.00  0.00    +0.000 A 
ATOM     19  C   UNL     1       3.891   6.695  17.643  0.00  0.00    +0.000 A 
ATOM     20  C   UNL     1       4.792   6.090  16.764  0.00  0.00    +0.000 A 
ATOM     21  C   UNL     1       4.868   4.701  16.689  0.00  0.00    +0.000 A 
ATOM     22  C   UNL     1       4.035   3.915  17.482  0.00  0.00    +0.000 A 
ATOM     23  C   UNL     1       3.128   4.518  18.366  0.00  0.00    +0.000 A 
ATOM     24  O   UNL     1       2.292   3.776  19.165  0.00  0.00    +0.000 OA
ATOM     25  C   UNL     1       2.796   2.453  19.353  0.00  0.00    +0.000 C 
ATOM     26  C   UNL     1       3.161   1.822  18.022  0.00  0.00    +0.000 C 
ATOM     27  O   UNL     1       4.191   2.558  17.357  0.00  0.00    +0.000 OA
ENDBRANCH  17  18
ENDBRANCH   4  17
TORSDOF 3
ENDMDL
MODEL 7
REMARK VINA RESULT:      -7.5      0.949      2.041
REMARK  Name = 
REMARK  3 active torsions:
REMARK  status: ('A' for Active; 'I' for Inactive)
REMARK    1  A    between atoms: C_2  and  C_10
REMARK    2  A    between atoms: N_13  and  C_14
REMARK    3  A    between atoms: C_14  and  C_15
REMARK                            x       y       z     vdW  Elec       q    Type
REMARK                         _______ _______ _______ _____ _____    ______ ____
ROOT
ATOM      1  C   UNL     1       7.174   6.246  17.737  0.00  0.00    +0.000 C 
ATOM      2  C   UNL     1       6.787   5.659  19.094  0.00  0.00    +0.000 C 
ATOM      3  C   UNL     1       5.291   5.389  19.181  0.00  0.00    +0.000 C 
ATOM      4  N   UNL     1       4.547   6.650  19.042  0.00  0.00    +0.000 NA
ATOM      5  C   UNL     1       4.818   7.267  17.730  0.00  0.00    +0.000 C 
ATOM      6  C   UNL     1       6.307   7.477  17.432  0.00  0.00    +0.000 C 
ENDROOT
BRANCH   1   8
ATOM      7  O   UNL     1       7.060   3.990  16.838  0.00  0.00    +0.000 OA
ATOM      8  C   UNL     1       7.090   5.195  16.628  0.00  0.00    +0.000 C 
ATOM      9  N   UNL     1       7.071   5.757  15.363  0.00  0.00    +0.000 N 
ATOM     10  C   UNL     1       6.961   5.005  14.190  0.00  0.00    +0.000 A 
ATOM     11  C   UNL     1       6.093   3.929  14.081  0.00  0.00    +0.000 A 
ATOM     12  C   UNL     1       6.012   3.253  12.861  0.00  0.00    +0.000 A 
ATOM     13  C   UNL     1       6.838   3.657  11.817  0.00  0.00    +0.000 A 
ATOM     14  C   UNL     1       7.676   4.732  12.025  0.00  0.00    +0.000 A 
ATOM     15  N   UNL     1       7.721   5.448  13.171  0.00  0.00    +0.000 NA
ATOM     16  H   UNL     1       7.584   6.619  15.226  0.00  0.00    +0.000 HD
ENDBRANCH   1   8
BRANCH   4  17
ATOM     17  C   UNL     1       3.090   6.392  19.167  0.00  0.00    +0.000 C 
BRANCH  17  18
ATOM     18  C   UNL     1       2.731   5.049  19.775  0.00  0.00    +0.000 A 
ATOM     19  C   UNL     1       2.321   4.973  21.118  0.00  0.00    +0.000 A 
ATOM     20  C   UNL     1       1.953   3.752  21.686  0.00  0.00    +0.000 A 
ATOM     21  C   UNL     1       1.976   2.590  20.918  0.00  0.00    +0.000 A 
ATOM     22  C   UNL     1       2.378   2.645  19.585  0.00  0.00    +0.000 A 
ATOM     23  C   UNL     1       2.750   3.869  19.010  0.00  0.00    +0.000 A 
ATOM     24  O   UNL     1       3.150   3.962  17.700  0.00  0.00    +0.000 OA
ATOM     25  C   UNL     1       2.669   2.859  16.932  0.00  0.00    +0.000 C 
ATOM     26  C   UNL     1       2.987   1.545  17.621  0.00  0.00    +0.000 C 
ATOM     27  O   UNL     1       2.352   1.457  18.900  0.00  0.00    +0.000 OA
ENDBRANCH  17  18
ENDBRANCH   4  17
TORSDOF 3
ENDMDL
MODEL 8
REMARK VINA RESULT:      -7.5      5.171      8.183
REMARK  Name = 
REMARK  3 active torsions:
REMARK  status: ('A' for Active; 'I' for Inactive)
REMARK    1  A    between atoms: C_2  and  C_10
REMARK    2  A    between atoms: N_13  and  C_14
REMARK    3  A    between atoms: C_14  and  C_15
REMARK                            x       y       z     vdW  Elec       q    Type
REMARK                         _______ _______ _______ _____ _____    ______ ____
ROOT
ATOM      1  C   UNL     1       0.439  10.637  18.813  0.00  0.00    +0.000 C 
ATOM      2  C   UNL     1       0.129  10.033  20.183  0.00  0.00    +0.000 C 
ATOM      3  C   UNL     1       1.248   9.116  20.656  0.00  0.00    +0.000 C 
ATOM      4  N   UNL     1       1.398   7.988  19.723  0.00  0.00    +0.000 NA
ATOM      5  C   UNL     1       1.754   8.475  18.378  0.00  0.00    +0.000 C 
ATOM      6  C   UNL     1       0.787   9.523  17.815  0.00  0.00    +0.000 C 
ENDROOT
BRANCH   1   8
ATOM      7  O   UNL     1       2.480  11.764  18.119  0.00  0.00    +0.000 OA
ATOM      8  C   UNL     1       1.545  11.692  18.905  0.00  0.00    +0.000 C 
ATOM      9  N   UNL     1       1.383  12.540  19.988  0.00  0.00    +0.000 N 
ATOM     10  C   UNL     1       2.243  13.607  20.264  0.00  0.00    +0.000 A 
ATOM     11  C   UNL     1       2.731  14.439  19.268  0.00  0.00    +0.000 A 
ATOM     12  C   UNL     1       3.554  15.508  19.631  0.00  0.00    +0.000 A 
ATOM     13  C   UNL     1       3.889  15.669  20.971  0.00  0.00    +0.000 A 
ATOM     14  C   UNL     1       3.363  14.782  21.888  0.00  0.00    +0.000 A 
ATOM     15  N   UNL     1       2.506  13.785  21.572  0.00  0.00    +0.000 NA
ATOM     16  H   UNL     1       0.956  12.157  20.823  0.00  0.00    +0.000 HD
ENDBRANCH   1   8
BRANCH   4  17
ATOM     17  C   UNL     1       2.462   7.072  20.207  0.00  0.00    +0.000 C 
BRANCH  17  18
ATOM     18  C   UNL     1       2.241   5.607  19.876  0.00  0.00    +0.000 A 
ATOM     19  C   UNL     1       1.234   4.883  20.537  0.00  0.00    +0.000 A 
ATOM     20  C   UNL     1       0.990   3.544  20.222  0.00  0.00    +0.000 A 
ATOM     21  C   UNL     1       1.740   2.914  19.232  0.00  0.00    +0.000 A 
ATOM     22  C   UNL     1       2.742   3.615  18.565  0.00  0.00    +0.000 A 
ATOM     23  C   UNL     1       2.991   4.960  18.879  0.00  0.00    +0.000 A 
ATOM     24  O   UNL     1       3.969   5.684  18.241  0.00  0.00    +0.000 OA
ATOM     25  C   UNL     1       4.296   5.110  16.976  0.00  0.00    +0.000 C 
ATOM     26  C   UNL     1       4.568   3.623  17.115  0.00  0.00    +0.000 C 
ATOM     27  O   UNL     1       3.417   2.921  17.593  0.00  0.00    +0.000 OA
ENDBRANCH  17  18
ENDBRANCH   4  17
TORSDOF 3
ENDMDL
MODEL 9
REMARK VINA RESULT:      -7.4      5.014      8.206
REMARK  Name = 
REMARK  3 active torsions:
REMARK  status: ('A' for Active; 'I' for Inactive)
REMARK    1  A    between atoms: C_2  and  C_10
REMARK    2  A    between atoms: N_13  and  C_14
REMARK    3  A    between atoms: C_14  and  C_15
REMARK                            x       y       z     vdW  Elec       q    Type
REMARK                         _______ _______ _______ _____ _____    ______ ____
ROOT
ATOM      1  C   UNL     1       0.524  10.426  18.753  0.00  0.00    +0.000 C 
ATOM      2  C   UNL     1       0.381   9.685  20.082  0.00  0.00    +0.000 C 
ATOM      3  C   UNL     1       1.582   8.790  20.356  0.00  0.00    +0.000 C 
ATOM      4  N   UNL     1       1.686   7.760  19.309  0.00  0.00    +0.000 NA
ATOM      5  C   UNL     1       1.882   8.386  17.988  0.00  0.00    +0.000 C 
ATOM      6  C   UNL     1       0.818   9.427  17.624  0.00  0.00    +0.000 C 
ENDROOT
BRANCH   1   8
ATOM      7  O   UNL     1       2.510  11.638  18.044  0.00  0.00    +0.000 OA
ATOM      8  C   UNL     1       1.586  11.526  18.838  0.00  0.00    +0.000 C 
ATOM      9  N   UNL     1       1.397  12.365  19.923  0.00  0.00    +0.000 N 
ATOM     10  C   UNL     1       2.214  13.467  20.193  0.00  0.00    +0.000 A 
ATOM     11  C   UNL     1       2.659  14.320  19.195  0.00  0.00    +0.000 A 
ATOM     12  C   UNL     1       3.439  15.422  19.552  0.00  0.00    +0.000 A 
ATOM     13  C   UNL     1       3.778  15.595  20.891  0.00  0.00    +0.000 A 
ATOM     14  C   UNL     1       3.296  14.686  21.810  0.00  0.00    +0.000 A 
ATOM     15  N   UNL     1       2.480  13.655  21.500  0.00  0.00    +0.000 NA
ATOM     16  H   UNL     1       0.993  11.964  20.761  0.00  0.00    +0.000 HD
ENDBRANCH   1   8
BRANCH   4  17
ATOM     17  C   UNL     1       2.833   6.863  19.598  0.00  0.00    +0.000 C 
BRANCH  17  18
ATOM     18  C   UNL     1       2.875   5.594  18.766  0.00  0.00    +0.000 A 
ATOM     19  C   UNL     1       1.788   4.704  18.790  0.00  0.00    +0.000 A 
ATOM     20  C   UNL     1       1.791   3.549  18.004  0.00  0.00    +0.000 A 
ATOM     21  C   UNL     1       2.874   3.274  17.173  0.00  0.00    +0.000 A 
ATOM     22  C   UNL     1       3.961   4.145  17.135  0.00  0.00    +0.000 A 
ATOM     23  C   UNL     1       3.962   5.306  17.923  0.00  0.00    +0.000 A 
ATOM     24  O   UNL     1       5.015   6.189  17.910  0.00  0.00    +0.000 OA
ATOM     25  C   UNL     1       5.781   6.064  16.713  0.00  0.00    +0.000 C 
ATOM     26  C   UNL     1       6.142   4.613  16.454  0.00  0.00    +0.000 C 
ATOM     27  O   UNL     1       4.974   3.806  16.275  0.00  0.00    +0.000 OA
ENDBRANCH  17  18
ENDBRANCH   4  17
TORSDOF 3
ENDMDL
