MODEL 1
REMARK VINA RESULT:      -6.0      0.000      0.000
REMARK  Name = 
REMARK  3 active torsions:
REMARK  status: ('A' for Active; 'I' for Inactive)
REMARK    1  A    between atoms: C_1  and  C_2
REMARK    2  A    between atoms: C_2  and  C_3
REMARK    3  A    between atoms: C_3  and  N_4
REMARK                            x       y       z     vdW  Elec       q    Type
REMARK                         _______ _______ _______ _____ _____    ______ ____
ROOT
ATOM      1  N   UNL     1       2.322   5.856  18.983  0.00  0.00    +0.000 N 
ATOM      2  C   UNL     1       3.424   5.031  19.118  0.00  0.00    +0.000 C 
ATOM      3  O   UNL     1       4.521   5.488  19.432  0.00  0.00    +0.000 OA
ATOM      4  N   UNL     1       3.199   3.703  18.792  0.00  0.00    +0.000 N 
ATOM      5  C   UNL     1       4.033   2.669  19.159  0.00  0.00    +0.000 C 
ATOM      6  O   UNL     1       4.968   2.675  19.948  0.00  0.00    +0.000 OA
ATOM      7  C   UNL     1       3.561   1.402  18.464  0.00  0.00    +0.000 C 
ATOM      8  N   UNL     1       2.433   1.885  17.731  0.00  0.00    +0.000 N 
ATOM      9  C   UNL     1       2.224   3.228  17.950  0.00  0.00    +0.000 C 
ATOM     10  O   UNL     1       1.288   3.843  17.461  0.00  0.00    +0.000 OA
ATOM     11  H   UNL     1       1.573   5.517  18.382  0.00  0.00    +0.000 HD
ATOM     12  H   UNL     1       1.816   1.338  17.142  0.00  0.00    +0.000 HD
ENDROOT
BRANCH   1  13
ATOM     13  C   UNL     1       2.437   7.284  19.187  0.00  0.00    +0.000 C 
BRANCH  13  15
ATOM     14  C   UNL     1       1.814   9.366  17.881  0.00  0.00    +0.000 C 
ATOM     15  C   UNL     1       2.573   8.047  17.874  0.00  0.00    +0.000 C 
ENDBRANCH  13  15
ENDBRANCH   1  13
TORSDOF 2
ENDMDL
MODEL 2
REMARK VINA RESULT:      -6.0      5.163      6.219
REMARK  Name = 
REMARK  3 active torsions:
REMARK  status: ('A' for Active; 'I' for Inactive)
REMARK    1  A    between atoms: C_1  and  C_2
REMARK    2  A    between atoms: C_2  and  C_3
REMARK    3  A    between atoms: C_3  and  N_4
REMARK                            x       y       z     vdW  Elec       q    Type
REMARK                         _______ _______ _______ _____ _____    ______ ____
ROOT
ATOM      1  N   UNL     1       6.068   4.150  13.942  0.00  0.00    +0.000 N 
ATOM      2  C   UNL     1       6.917   4.929  14.706  0.00  0.00    +0.000 C 
ATOM      3  O   UNL     1       7.972   5.358  14.242  0.00  0.00    +0.000 OA
ATOM      4  N   UNL     1       6.522   5.100  16.023  0.00  0.00    +0.000 N 
ATOM      5  C   UNL     1       7.018   6.080  16.855  0.00  0.00    +0.000 C 
ATOM      6  O   UNL     1       7.713   7.049  16.576  0.00  0.00    +0.000 OA
ATOM      7  C   UNL     1       6.491   5.832  18.259  0.00  0.00    +0.000 C 
ATOM      8  N   UNL     1       5.697   4.661  18.059  0.00  0.00    +0.000 N 
ATOM      9  C   UNL     1       5.710   4.258  16.742  0.00  0.00    +0.000 C 
ATOM     10  O   UNL     1       5.064   3.305  16.332  0.00  0.00    +0.000 OA
ATOM     11  H   UNL     1       5.438   3.533  14.451  0.00  0.00    +0.000 HD
ATOM     12  H   UNL     1       5.148   4.176  18.760  0.00  0.00    +0.000 HD
ENDROOT
BRANCH   1  13
ATOM     13  C   UNL     1       6.410   3.801  12.580  0.00  0.00    +0.000 C 
BRANCH  13  15
ATOM     14  C   UNL     1       4.242   3.292  11.366  0.00  0.00    +0.000 C 
ATOM     15  C   UNL     1       5.496   2.721  12.013  0.00  0.00    +0.000 C 
ENDBRANCH  13  15
ENDBRANCH   1  13
TORSDOF 2
ENDMDL
MODEL 3
REMARK VINA RESULT:      -5.9      2.633      3.820
REMARK  Name = 
REMARK  3 active torsions:
REMARK  status: ('A' for Active; 'I' for Inactive)
REMARK    1  A    between atoms: C_1  and  C_2
REMARK    2  A    between atoms: C_2  and  C_3
REMARK    3  A    between atoms: C_3  and  N_4
REMARK                            x       y       z     vdW  Elec       q    Type
REMARK                         _______ _______ _______ _____ _____    ______ ____
ROOT
ATOM      1  N   UNL     1       5.717   3.888  17.786  0.00  0.00    +0.000 N 
ATOM      2  C   UNL     1       4.397   4.283  17.679  0.00  0.00    +0.000 C 
ATOM      3  O   UNL     1       4.086   5.280  17.030  0.00  0.00    +0.000 OA
ATOM      4  N   UNL     1       3.501   3.525  18.417  0.00  0.00    +0.000 N 
ATOM      5  C   UNL     1       2.139   3.523  18.208  0.00  0.00    +0.000 C 
ATOM      6  O   UNL     1       1.501   4.001  17.279  0.00  0.00    +0.000 OA
ATOM      7  C   UNL     1       1.483   2.725  19.322  0.00  0.00    +0.000 C 
ATOM      8  N   UNL     1       2.620   2.331  20.094  0.00  0.00    +0.000 N 
ATOM      9  C   UNL     1       3.794   2.791  19.540  0.00  0.00    +0.000 C 
ATOM     10  O   UNL     1       4.894   2.535  20.006  0.00  0.00    +0.000 OA
ATOM     11  H   UNL     1       5.957   3.322  18.598  0.00  0.00    +0.000 HD
ATOM     12  H   UNL     1       2.613   1.757  20.930  0.00  0.00    +0.000 HD
ENDROOT
BRANCH   1  13
ATOM     13  C   UNL     1       6.772   4.652  17.155  0.00  0.00    +0.000 C 
BRANCH  13  15
ATOM     14  C   UNL     1       7.509   7.028  17.649  0.00  0.00    +0.000 C 
ATOM     15  C   UNL     1       7.476   5.586  18.134  0.00  0.00    +0.000 C 
ENDBRANCH  13  15
ENDBRANCH   1  13
TORSDOF 2
ENDMDL
MODEL 4
REMARK VINA RESULT:      -5.9      2.700      4.226
REMARK  Name = 
REMARK  3 active torsions:
REMARK  status: ('A' for Active; 'I' for Inactive)
REMARK    1  A    between atoms: C_1  and  C_2
REMARK    2  A    between atoms: C_2  and  C_3
REMARK    3  A    between atoms: C_3  and  N_4
REMARK                            x       y       z     vdW  Elec       q    Type
REMARK                         _______ _______ _______ _____ _____    ______ ____
ROOT
ATOM      1  N   UNL     1       3.209   5.082  20.158  0.00  0.00    +0.000 N 
ATOM      2  C   UNL     1       3.633   5.734  19.016  0.00  0.00    +0.000 C 
ATOM      3  O   UNL     1       2.883   6.493  18.405  0.00  0.00    +0.000 OA
ATOM      4  N   UNL     1       4.908   5.395  18.592  0.00  0.00    +0.000 N 
ATOM      5  C   UNL     1       5.647   6.140  17.699  0.00  0.00    +0.000 C 
ATOM      6  O   UNL     1       5.431   7.267  17.272  0.00  0.00    +0.000 OA
ATOM      7  C   UNL     1       6.900   5.358  17.341  0.00  0.00    +0.000 C 
ATOM      8  N   UNL     1       6.728   4.175  18.123  0.00  0.00    +0.000 N 
ATOM      9  C   UNL     1       5.568   4.221  18.865  0.00  0.00    +0.000 C 
ATOM     10  O   UNL     1       5.241   3.338  19.642  0.00  0.00    +0.000 OA
ATOM     11  H   UNL     1       3.697   4.220  20.397  0.00  0.00    +0.000 HD
ATOM     12  H   UNL     1       7.369   3.393  18.184  0.00  0.00    +0.000 HD
ENDROOT
BRANCH   1  13
ATOM     13  C   UNL     1       1.861   5.259  20.654  0.00  0.00    +0.000 C 
BRANCH  13  15
ATOM     14  C   UNL     1       1.561   2.858  21.414  0.00  0.00    +0.000 C 
ATOM     15  C   UNL     1       1.030   3.985  20.540  0.00  0.00    +0.000 C 
ENDBRANCH  13  15
ENDBRANCH   1  13
TORSDOF 2
ENDMDL
MODEL 5
REMARK VINA RESULT:      -5.9      3.398      5.516
REMARK  Name = 
REMARK  3 active torsions:
REMARK  status: ('A' for Active; 'I' for Inactive)
REMARK    1  A    between atoms: C_1  and  C_2
REMARK    2  A    between atoms: C_2  and  C_3
REMARK    3  A    between atoms: C_3  and  N_4
REMARK                            x       y       z     vdW  Elec       q    Type
REMARK                         _______ _______ _______ _____ _____    ______ ____
ROOT
ATOM      1  N   UNL     1       5.267   3.904  19.351  0.00  0.00    +0.000 N 
ATOM      2  C   UNL     1       5.497   4.531  18.141  0.00  0.00    +0.000 C 
ATOM      3  O   UNL     1       5.007   4.096  17.100  0.00  0.00    +0.000 OA
ATOM      4  N   UNL     1       6.372   5.604  18.198  0.00  0.00    +0.000 N 
ATOM      5  C   UNL     1       6.487   6.558  17.210  0.00  0.00    +0.000 C 
ATOM      6  O   UNL     1       5.766   6.753  16.240  0.00  0.00    +0.000 OA
ATOM      7  C   UNL     1       7.668   7.455  17.543  0.00  0.00    +0.000 C 
ATOM      8  N   UNL     1       8.125   6.876  18.767  0.00  0.00    +0.000 N 
ATOM      9  C   UNL     1       7.344   5.808  19.147  0.00  0.00    +0.000 C 
ATOM     10  O   UNL     1       7.523   5.190  20.185  0.00  0.00    +0.000 OA
ATOM     11  H   UNL     1       5.961   4.058  20.081  0.00  0.00    +0.000 HD
ATOM     12  H   UNL     1       8.899   7.201  19.336  0.00  0.00    +0.000 HD
ENDROOT
BRANCH   1  13
ATOM     13  C   UNL     1       4.459   2.705  19.423  0.00  0.00    +0.000 C 
BRANCH  13  15
ATOM     14  C   UNL     1       2.039   2.314  18.775  0.00  0.00    +0.000 C 
ATOM     15  C   UNL     1       2.998   3.009  19.731  0.00  0.00    +0.000 C 
ENDBRANCH  13  15
ENDBRANCH   1  13
TORSDOF 2
ENDMDL
MODEL 6
REMARK VINA RESULT:      -5.8      2.933      4.212
REMARK  Name = 
REMARK  3 active torsions:
REMARK  status: ('A' for Active; 'I' for Inactive)
REMARK    1  A    between atoms: C_1  and  C_2
REMARK    2  A    between atoms: C_2  and  C_3
REMARK    3  A    between atoms: C_3  and  N_4
REMARK                            x       y       z     vdW  Elec       q    Type
REMARK                         _______ _______ _______ _____ _____    ______ ____
ROOT
ATOM      1  N   UNL     1       3.787   5.632  19.345  0.00  0.00    +0.000 N 
ATOM      2  C   UNL     1       3.989   5.007  18.128  0.00  0.00    +0.000 C 
ATOM      3  O   UNL     1       3.043   4.557  17.484  0.00  0.00    +0.000 OA
ATOM      4  N   UNL     1       5.317   4.863  17.761  0.00  0.00    +0.000 N 
ATOM      5  C   UNL     1       5.736   4.583  16.479  0.00  0.00    +0.000 C 
ATOM      6  O   UNL     1       5.091   4.589  15.438  0.00  0.00    +0.000 OA
ATOM      7  C   UNL     1       7.232   4.317  16.508  0.00  0.00    +0.000 C 
ATOM      8  N   UNL     1       7.522   4.490  17.897  0.00  0.00    +0.000 N 
ATOM      9  C   UNL     1       6.395   4.829  18.612  0.00  0.00    +0.000 C 
ATOM     10  O   UNL     1       6.415   5.071  19.809  0.00  0.00    +0.000 OA
ATOM     11  H   UNL     1       4.578   5.642  19.986  0.00  0.00    +0.000 HD
ATOM     12  H   UNL     1       8.432   4.418  18.338  0.00  0.00    +0.000 HD
ENDROOT
BRANCH   1  13
ATOM     13  C   UNL     1       2.458   5.754  19.903  0.00  0.00    +0.000 C 
BRANCH  13  15
ATOM     14  C   UNL     1       1.111   3.687  20.489  0.00  0.00    +0.000 C 
ATOM     15  C   UNL     1       2.167   4.682  20.947  0.00  0.00    +0.000 C 
ENDBRANCH  13  15
ENDBRANCH   1  13
TORSDOF 2
ENDMDL
MODEL 7
REMARK VINA RESULT:      -5.8      4.684      5.870
REMARK  Name = 
REMARK  3 active torsions:
REMARK  status: ('A' for Active; 'I' for Inactive)
REMARK    1  A    between atoms: C_1  and  C_2
REMARK    2  A    between atoms: C_2  and  C_3
REMARK    3  A    between atoms: C_3  and  N_4
REMARK                            x       y       z     vdW  Elec       q    Type
REMARK                         _______ _______ _______ _____ _____    ______ ____
ROOT
ATOM      1  N   UNL     1       6.906   4.646  14.804  0.00  0.00    +0.000 N 
ATOM      2  C   UNL     1       6.022   5.395  15.559  0.00  0.00    +0.000 C 
ATOM      3  O   UNL     1       5.315   6.254  15.037  0.00  0.00    +0.000 OA
ATOM      4  N   UNL     1       6.073   5.154  16.923  0.00  0.00    +0.000 N 
ATOM      5  C   UNL     1       5.085   5.527  17.808  0.00  0.00    +0.000 C 
ATOM      6  O   UNL     1       3.958   5.943  17.574  0.00  0.00    +0.000 OA
ATOM      7  C   UNL     1       5.580   5.263  19.220  0.00  0.00    +0.000 C 
ATOM      8  N   UNL     1       6.882   4.732  18.968  0.00  0.00    +0.000 N 
ATOM      9  C   UNL     1       7.147   4.656  17.619  0.00  0.00    +0.000 C 
ATOM     10  O   UNL     1       8.183   4.189  17.170  0.00  0.00    +0.000 OA
ATOM     11  H   UNL     1       7.700   4.245  15.301  0.00  0.00    +0.000 HD
ATOM     12  H   UNL     1       7.546   4.406  19.661  0.00  0.00    +0.000 HD
ENDROOT
BRANCH   1  13
ATOM     13  C   UNL     1       7.037   4.869  13.380  0.00  0.00    +0.000 C 
BRANCH  13  15
ATOM     14  C   UNL     1       5.200   3.534  12.250  0.00  0.00    +0.000 C 
ATOM     15  C   UNL     1       6.686   3.629  12.566  0.00  0.00    +0.000 C 
ENDBRANCH  13  15
ENDBRANCH   1  13
TORSDOF 2
ENDMDL
MODEL 8
REMARK VINA RESULT:      -5.8      3.133      4.756
REMARK  Name = 
REMARK  3 active torsions:
REMARK  status: ('A' for Active; 'I' for Inactive)
REMARK    1  A    between atoms: C_1  and  C_2
REMARK    2  A    between atoms: C_2  and  C_3
REMARK    3  A    between atoms: C_3  and  N_4
REMARK                            x       y       z     vdW  Elec       q    Type
REMARK                         _______ _______ _______ _____ _____    ______ ____
ROOT
ATOM      1  N   UNL     1       4.545   3.023  17.588  0.00  0.00    +0.000 N 
ATOM      2  C   UNL     1       5.079   3.893  18.520  0.00  0.00    +0.000 C 
ATOM      3  O   UNL     1       4.730   3.850  19.698  0.00  0.00    +0.000 OA
ATOM      4  N   UNL     1       5.946   4.841  18.000  0.00  0.00    +0.000 N 
ATOM      5  C   UNL     1       6.829   5.576  18.762  0.00  0.00    +0.000 C 
ATOM      6  O   UNL     1       7.146   5.425  19.935  0.00  0.00    +0.000 OA
ATOM      7  C   UNL     1       7.467   6.631  17.873  0.00  0.00    +0.000 C 
ATOM      8  N   UNL     1       6.838   6.363  16.619  0.00  0.00    +0.000 N 
ATOM      9  C   UNL     1       5.967   5.300  16.706  0.00  0.00    +0.000 C 
ATOM     10  O   UNL     1       5.352   4.864  15.744  0.00  0.00    +0.000 OA
ATOM     11  H   UNL     1       4.569   3.328  16.616  0.00  0.00    +0.000 HD
ATOM     12  H   UNL     1       7.007   6.843  15.743  0.00  0.00    +0.000 HD
ENDROOT
BRANCH   1  13
ATOM     13  C   UNL     1       3.544   2.051  17.971  0.00  0.00    +0.000 C 
BRANCH  13  15
ATOM     14  C   UNL     1       1.276   2.444  19.035  0.00  0.00    +0.000 C 
ATOM     15  C   UNL     1       2.125   2.575  17.779  0.00  0.00    +0.000 C 
ENDBRANCH  13  15
ENDBRANCH   1  13
TORSDOF 2
ENDMDL
MODEL 9
REMARK VINA RESULT:      -5.8      2.800      3.893
REMARK  Name = 
REMARK  3 active torsions:
REMARK  status: ('A' for Active; 'I' for Inactive)
REMARK    1  A    between atoms: C_1  and  C_2
REMARK    2  A    between atoms: C_2  and  C_3
REMARK    3  A    between atoms: C_3  and  N_4
REMARK                            x       y       z     vdW  Elec       q    Type
REMARK                         _______ _______ _______ _____ _____    ______ ____
ROOT
ATOM      1  N   UNL     1       3.075   4.187  17.722  0.00  0.00    +0.000 N 
ATOM      2  C   UNL     1       4.064   4.857  18.417  0.00  0.00    +0.000 C 
ATOM      3  O   UNL     1       3.782   5.642  19.320  0.00  0.00    +0.000 OA
ATOM      4  N   UNL     1       5.352   4.633  17.957  0.00  0.00    +0.000 N 
ATOM      5  C   UNL     1       6.490   4.920  18.680  0.00  0.00    +0.000 C 
ATOM      6  O   UNL     1       6.595   5.228  19.860  0.00  0.00    +0.000 OA
ATOM      7  C   UNL     1       7.697   4.715  17.780  0.00  0.00    +0.000 C 
ATOM      8  N   UNL     1       7.073   4.304  16.561  0.00  0.00    +0.000 N 
ATOM      9  C   UNL     1       5.704   4.242  16.688  0.00  0.00    +0.000 C 
ATOM     10  O   UNL     1       4.969   3.869  15.785  0.00  0.00    +0.000 OA
ATOM     11  H   UNL     1       3.317   3.864  16.786  0.00  0.00    +0.000 HD
ATOM     12  H   UNL     1       7.542   4.047  15.700  0.00  0.00    +0.000 HD
ENDROOT
BRANCH   1  13
ATOM     13  C   UNL     1       1.678   4.409  18.025  0.00  0.00    +0.000 C 
BRANCH  13  15
ATOM     14  C   UNL     1       0.994   3.648  20.345  0.00  0.00    +0.000 C 
ATOM     15  C   UNL     1       1.083   3.288  18.869  0.00  0.00    +0.000 C 
ENDBRANCH  13  15
ENDBRANCH   1  13
TORSDOF 2
ENDMDL
