MODEL 1
REMARK VINA RESULT:      -8.6      0.000      0.000
REMARK  Name = 
REMARK  3 active torsions:
REMARK  status: ('A' for Active; 'I' for Inactive)
REMARK    1  A    between atoms: C_2  and  C_10
REMARK    2  A    between atoms: N_3  and  C_4
REMARK    3  A    between atoms: C_13  and  N_14
REMARK                            x       y       z     vdW  Elec       q    Type
REMARK                         _______ _______ _______ _____ _____    ______ ____
ROOT
ATOM      1  C   UNL     1       1.369   9.358  19.479  0.00  0.00    +0.000 A 
ATOM      2  C   UNL     1       1.835   9.058  18.199  0.00  0.00    +0.000 A 
ATOM      3  C   UNL     1       2.331   7.782  17.913  0.00  0.00    +0.000 A 
ATOM      4  C   UNL     1       2.358   6.765  18.882  0.00  0.00    +0.000 A 
ATOM      5  C   UNL     1       1.867   7.080  20.158  0.00  0.00    +0.000 A 
ATOM      6  C   UNL     1       1.380   8.360  20.456  0.00  0.00    +0.000 A 
ENDROOT
BRANCH   4   7
ATOM      7  N   UNL     1       2.843   5.461  18.557  0.00  0.00    +0.000 N 
ATOM      8  C   UNL     1       4.066   4.973  18.982  0.00  0.00    +0.000 C 
ATOM      9  O   UNL     1       4.892   5.489  19.724  0.00  0.00    +0.000 OA
ATOM     10  C   UNL     1       4.270   3.599  18.425  0.00  0.00    +0.000 C 
ATOM     11  C   UNL     1       4.275   2.454  19.456  0.00  0.00    +0.000 C 
ATOM     12  C   UNL     1       3.062   2.537  20.359  0.00  0.00    +0.000 C 
ATOM     13  C   UNL     1       1.985   2.254  19.610  0.00  0.00    +0.000 C 
ATOM     14  C   UNL     1       2.475   2.004  18.204  0.00  0.00    +0.000 C 
ATOM     15  C   UNL     1       3.799   1.304  18.556  0.00  0.00    +0.000 C 
ATOM     16  C   UNL     1       3.007   3.318  17.595  0.00  0.00    +0.000 C 
ATOM     17  C   UNL     1       2.144   4.533  17.801  0.00  0.00    +0.000 C 
ATOM     18  O   UNL     1       1.031   4.621  17.302  0.00  0.00    +0.000 OA
ENDBRANCH   4   7
BRANCH   1  20
ATOM     19  O   UNL     1      -0.223  10.801  20.446  0.00  0.00    +0.000 OA
ATOM     20  C   UNL     1       0.829  10.702  19.825  0.00  0.00    +0.000 C 
ATOM     21  N   UNL     1       1.588  11.778  19.425  0.00  0.00    +0.000 N 
ATOM     22  H   UNL     1       2.472  11.621  18.962  0.00  0.00    +0.000 HD
BRANCH  21  23
ATOM     23  C   UNL     1       1.156  13.155  19.624  0.00  0.00    +0.000 C 
ATOM     24  C   UNL     1       1.689  13.693  20.957  0.00  0.00    +0.000 C 
ATOM     25  C   UNL     1       3.197  13.945  20.932  0.00  0.00    +0.000 C 
ATOM     26  C   UNL     1       3.593  14.853  19.773  0.00  0.00    +0.000 C 
ATOM     27  C   UNL     1       3.097  14.313  18.435  0.00  0.00    +0.000 C 
ATOM     28  C   UNL     1       1.592  14.046  18.451  0.00  0.00    +0.000 C 
ENDBRANCH  21  23
ENDBRANCH   1  20
TORSDOF 3
ENDMDL
MODEL 2
REMARK VINA RESULT:      -8.5      1.717      2.760
REMARK  Name = 
REMARK  3 active torsions:
REMARK  status: ('A' for Active; 'I' for Inactive)
REMARK    1  A    between atoms: C_2  and  C_10
REMARK    2  A    between atoms: N_3  and  C_4
REMARK    3  A    between atoms: C_13  and  N_14
REMARK                            x       y       z     vdW  Elec       q    Type
REMARK                         _______ _______ _______ _____ _____    ______ ____
ROOT
ATOM      1  C   UNL     1       1.573   9.556  19.130  0.00  0.00    +0.000 A 
ATOM      2  C   UNL     1       1.441   8.600  20.138  0.00  0.00    +0.000 A 
ATOM      3  C   UNL     1       1.847   7.281  19.910  0.00  0.00    +0.000 A 
ATOM      4  C   UNL     1       2.413   6.881  18.688  0.00  0.00    +0.000 A 
ATOM      5  C   UNL     1       2.555   7.861  17.695  0.00  0.00    +0.000 A 
ATOM      6  C   UNL     1       2.139   9.183  17.910  0.00  0.00    +0.000 A 
ENDROOT
BRANCH   4   7
ATOM      7  N   UNL     1       2.846   5.533  18.492  0.00  0.00    +0.000 N 
ATOM      8  C   UNL     1       4.043   5.038  18.978  0.00  0.00    +0.000 C 
ATOM      9  O   UNL     1       4.882   5.586  19.680  0.00  0.00    +0.000 OA
ATOM     10  C   UNL     1       4.195   3.611  18.553  0.00  0.00    +0.000 C 
ATOM     11  C   UNL     1       4.140   2.568  19.686  0.00  0.00    +0.000 C 
ATOM     12  C   UNL     1       2.923   2.784  20.561  0.00  0.00    +0.000 C 
ATOM     13  C   UNL     1       1.843   2.477  19.826  0.00  0.00    +0.000 C 
ATOM     14  C   UNL     1       2.337   2.076  18.455  0.00  0.00    +0.000 C 
ATOM     15  C   UNL     1       3.626   1.359  18.890  0.00  0.00    +0.000 C 
ATOM     16  C   UNL     1       2.929   3.305  17.735  0.00  0.00    +0.000 C 
ATOM     17  C   UNL     1       2.116   4.569  17.815  0.00  0.00    +0.000 C 
ATOM     18  O   UNL     1       1.013   4.655  17.294  0.00  0.00    +0.000 OA
ENDBRANCH   4   7
BRANCH   1  20
ATOM     19  O   UNL     1       1.540  11.841  18.556  0.00  0.00    +0.000 OA
ATOM     20  C   UNL     1       1.158  10.972  19.331  0.00  0.00    +0.000 C 
ATOM     21  N   UNL     1       0.325  11.211  20.401  0.00  0.00    +0.000 N 
ATOM     22  H   UNL     1       0.008  10.438  20.968  0.00  0.00    +0.000 HD
BRANCH  21  23
ATOM     23  C   UNL     1      -0.105  12.553  20.771  0.00  0.00    +0.000 C 
ATOM     24  C   UNL     1      -1.244  13.018  19.856  0.00  0.00    +0.000 C 
ATOM     25  C   UNL     1      -2.559  12.288  20.132  0.00  0.00    +0.000 C 
ATOM     26  C   UNL     1      -2.956  12.388  21.601  0.00  0.00    +0.000 C 
ATOM     27  C   UNL     1      -1.843  11.899  22.524  0.00  0.00    +0.000 C 
ATOM     28  C   UNL     1      -0.520  12.613  22.249  0.00  0.00    +0.000 C 
ENDBRANCH  21  23
ENDBRANCH   1  20
TORSDOF 3
ENDMDL
MODEL 3
REMARK VINA RESULT:      -8.3      2.177      9.148
REMARK  Name = 
REMARK  3 active torsions:
REMARK  status: ('A' for Active; 'I' for Inactive)
REMARK    1  A    between atoms: C_2  and  C_10
REMARK    2  A    between atoms: N_3  and  C_4
REMARK    3  A    between atoms: C_13  and  N_14
REMARK                            x       y       z     vdW  Elec       q    Type
REMARK                         _______ _______ _______ _____ _____    ______ ____
ROOT
ATOM      1  C   UNL     1       2.252   8.003  18.645  0.00  0.00    +0.000 A 
ATOM      2  C   UNL     1       2.110   9.104  17.800  0.00  0.00    +0.000 A 
ATOM      3  C   UNL     1       1.395  10.228  18.227  0.00  0.00    +0.000 A 
ATOM      4  C   UNL     1       0.822  10.298  19.508  0.00  0.00    +0.000 A 
ATOM      5  C   UNL     1       0.992   9.188  20.349  0.00  0.00    +0.000 A 
ATOM      6  C   UNL     1       1.696   8.053  19.924  0.00  0.00    +0.000 A 
ENDROOT
BRANCH   4   7
ATOM      7  N   UNL     1       0.121  11.470  19.930  0.00  0.00    +0.000 N 
ATOM      8  C   UNL     1      -1.198  11.730  19.603  0.00  0.00    +0.000 C 
ATOM      9  O   UNL     1      -1.998  11.034  18.991  0.00  0.00    +0.000 OA
ATOM     10  C   UNL     1      -1.594  13.057  20.171  0.00  0.00    +0.000 C 
ATOM     11  C   UNL     1      -2.643  13.014  21.299  0.00  0.00    +0.000 C 
ATOM     12  C   UNL     1      -2.240  12.023  22.371  0.00  0.00    +0.000 C 
ATOM     13  C   UNL     1      -1.160  12.522  22.992  0.00  0.00    +0.000 C 
ATOM     14  C   UNL     1      -0.828  13.834  22.321  0.00  0.00    +0.000 C 
ATOM     15  C   UNL     1      -2.265  14.304  22.041  0.00  0.00    +0.000 C 
ATOM     16  C   UNL     1      -0.334  13.574  20.883  0.00  0.00    +0.000 C 
ATOM     17  C   UNL     1       0.669  12.464  20.724  0.00  0.00    +0.000 C 
ATOM     18  O   UNL     1       1.788  12.536  21.216  0.00  0.00    +0.000 OA
ENDBRANCH   4   7
BRANCH   1  20
ATOM     19  O   UNL     1       3.975   6.889  17.487  0.00  0.00    +0.000 OA
ATOM     20  C   UNL     1       3.007   6.788  18.232  0.00  0.00    +0.000 C 
ATOM     21  N   UNL     1       2.562   5.594  18.754  0.00  0.00    +0.000 N 
ATOM     22  H   UNL     1       1.789   5.592  19.405  0.00  0.00    +0.000 HD
BRANCH  21  23
ATOM     23  C   UNL     1       3.150   4.313  18.386  0.00  0.00    +0.000 C 
ATOM     24  C   UNL     1       3.729   3.618  19.624  0.00  0.00    +0.000 C 
ATOM     25  C   UNL     1       2.646   3.092  20.567  0.00  0.00    +0.000 C 
ATOM     26  C   UNL     1       1.661   2.187  19.836  0.00  0.00    +0.000 C 
ATOM     27  C   UNL     1       1.052   2.877  18.619  0.00  0.00    +0.000 C 
ATOM     28  C   UNL     1       2.124   3.418  17.674  0.00  0.00    +0.000 C 
ENDBRANCH  21  23
ENDBRANCH   1  20
TORSDOF 3
ENDMDL
MODEL 4
REMARK VINA RESULT:      -8.3      2.514      8.747
REMARK  Name = 
REMARK  3 active torsions:
REMARK  status: ('A' for Active; 'I' for Inactive)
REMARK    1  A    between atoms: C_2  and  C_10
REMARK    2  A    between atoms: N_3  and  C_4
REMARK    3  A    between atoms: C_13  and  N_14
REMARK                            x       y       z     vdW  Elec       q    Type
REMARK                         _______ _______ _______ _____ _____    ______ ____
ROOT
ATOM      1  C   UNL     1       2.211   7.753  18.731  0.00  0.00    +0.000 A 
ATOM      2  C   UNL     1       1.722   7.901  20.029  0.00  0.00    +0.000 A 
ATOM      3  C   UNL     1       1.080   9.085  20.406  0.00  0.00    +0.000 A 
ATOM      4  C   UNL     1       0.887  10.143  19.502  0.00  0.00    +0.000 A 
ATOM      5  C   UNL     1       1.367   9.967  18.195  0.00  0.00    +0.000 A 
ATOM      6  C   UNL     1       2.023   8.788  17.813  0.00  0.00    +0.000 A 
ENDROOT
BRANCH   4   7
ATOM      7  N   UNL     1       0.202  11.330  19.904  0.00  0.00    +0.000 N 
ATOM      8  C   UNL     1      -1.117  11.598  19.581  0.00  0.00    +0.000 C 
ATOM      9  O   UNL     1      -1.929  10.898  18.990  0.00  0.00    +0.000 OA
ATOM     10  C   UNL     1      -1.496  12.939  20.125  0.00  0.00    +0.000 C 
ATOM     11  C   UNL     1      -2.536  12.930  21.261  0.00  0.00    +0.000 C 
ATOM     12  C   UNL     1      -2.136  11.957  22.351  0.00  0.00    +0.000 C 
ATOM     13  C   UNL     1      -1.047  12.458  22.954  0.00  0.00    +0.000 C 
ATOM     14  C   UNL     1      -0.707  13.753  22.254  0.00  0.00    +0.000 C 
ATOM     15  C   UNL     1      -2.141  14.232  21.974  0.00  0.00    +0.000 C 
ATOM     16  C   UNL     1      -0.225  13.458  20.818  0.00  0.00    +0.000 C 
ATOM     17  C   UNL     1       0.765  12.335  20.675  0.00  0.00    +0.000 C 
ATOM     18  O   UNL     1       1.888  12.405  21.157  0.00  0.00    +0.000 OA
ENDBRANCH   4   7
BRANCH   1  20
ATOM     19  O   UNL     1       2.307   5.435  18.321  0.00  0.00    +0.000 OA
ATOM     20  C   UNL     1       2.897   6.509  18.286  0.00  0.00    +0.000 C 
ATOM     21  N   UNL     1       4.187   6.661  17.829  0.00  0.00    +0.000 N 
ATOM     22  H   UNL     1       4.592   7.585  17.780  0.00  0.00    +0.000 HD
BRANCH  21  23
ATOM     23  C   UNL     1       5.013   5.529  17.431  0.00  0.00    +0.000 C 
ATOM     24  C   UNL     1       6.174   6.002  16.549  0.00  0.00    +0.000 C 
ATOM     25  C   UNL     1       7.235   6.774  17.333  0.00  0.00    +0.000 C 
ATOM     26  C   UNL     1       7.741   5.973  18.528  0.00  0.00    +0.000 C 
ATOM     27  C   UNL     1       6.598   5.522  19.433  0.00  0.00    +0.000 C 
ATOM     28  C   UNL     1       5.524   4.758  18.658  0.00  0.00    +0.000 C 
ENDBRANCH  21  23
ENDBRANCH   1  20
TORSDOF 3
ENDMDL
MODEL 5
REMARK VINA RESULT:      -8.2      2.372      8.762
REMARK  Name = 
REMARK  3 active torsions:
REMARK  status: ('A' for Active; 'I' for Inactive)
REMARK    1  A    between atoms: C_2  and  C_10
REMARK    2  A    between atoms: N_3  and  C_4
REMARK    3  A    between atoms: C_13  and  N_14
REMARK                            x       y       z     vdW  Elec       q    Type
REMARK                         _______ _______ _______ _____ _____    ______ ____
ROOT
ATOM      1  C   UNL     1       2.611   7.251  18.964  0.00  0.00    +0.000 A 
ATOM      2  C   UNL     1       2.565   8.105  17.862  0.00  0.00    +0.000 A 
ATOM      3  C   UNL     1       1.823   9.289  17.922  0.00  0.00    +0.000 A 
ATOM      4  C   UNL     1       1.125   9.667  19.081  0.00  0.00    +0.000 A 
ATOM      5  C   UNL     1       1.199   8.804  20.185  0.00  0.00    +0.000 A 
ATOM      6  C   UNL     1       1.930   7.610  20.129  0.00  0.00    +0.000 A 
ENDROOT
BRANCH   4   7
ATOM      7  N   UNL     1       0.398  10.896  19.126  0.00  0.00    +0.000 N 
ATOM      8  C   UNL     1      -0.963  10.987  18.892  0.00  0.00    +0.000 C 
ATOM      9  O   UNL     1      -1.776  10.096  18.683  0.00  0.00    +0.000 OA
ATOM     10  C   UNL     1      -1.384  12.420  18.977  0.00  0.00    +0.000 C 
ATOM     11  C   UNL     1      -2.301  12.778  20.163  0.00  0.00    +0.000 C 
ATOM     12  C   UNL     1      -1.721  12.267  21.466  0.00  0.00    +0.000 C 
ATOM     13  C   UNL     1      -0.617  12.986  21.721  0.00  0.00    +0.000 C 
ATOM     14  C   UNL     1      -0.446  13.960  20.580  0.00  0.00    +0.000 C 
ATOM     15  C   UNL     1      -1.933  14.260  20.326  0.00  0.00    +0.000 C 
ATOM     16  C   UNL     1      -0.092  13.193  19.289  0.00  0.00    +0.000 C 
ATOM     17  C   UNL     1       0.960  12.126  19.426  0.00  0.00    +0.000 C 
ATOM     18  O   UNL     1       2.117  12.400  19.715  0.00  0.00    +0.000 OA
ENDBRANCH   4   7
BRANCH   1  20
ATOM     19  O   UNL     1       3.396   5.249  19.925  0.00  0.00    +0.000 OA
ATOM     20  C   UNL     1       3.392   5.983  18.945  0.00  0.00    +0.000 C 
ATOM     21  N   UNL     1       4.062   5.705  17.774  0.00  0.00    +0.000 N 
ATOM     22  H   UNL     1       3.971   6.331  16.987  0.00  0.00    +0.000 HD
BRANCH  21  23
ATOM     23  C   UNL     1       4.927   4.542  17.628  0.00  0.00    +0.000 C 
ATOM     24  C   UNL     1       4.862   4.008  16.192  0.00  0.00    +0.000 C 
ATOM     25  C   UNL     1       5.565   4.925  15.189  0.00  0.00    +0.000 C 
ATOM     26  C   UNL     1       7.002   5.213  15.606  0.00  0.00    +0.000 C 
ATOM     27  C   UNL     1       7.080   5.775  17.023  0.00  0.00    +0.000 C 
ATOM     28  C   UNL     1       6.372   4.873  18.033  0.00  0.00    +0.000 C 
ENDBRANCH  21  23
ENDBRANCH   1  20
TORSDOF 3
ENDMDL
MODEL 6
REMARK VINA RESULT:      -8.1      2.096      3.261
REMARK  Name = 
REMARK  3 active torsions:
REMARK  status: ('A' for Active; 'I' for Inactive)
REMARK    1  A    between atoms: C_2  and  C_10
REMARK    2  A    between atoms: N_3  and  C_4
REMARK    3  A    between atoms: C_13  and  N_14
REMARK                            x       y       z     vdW  Elec       q    Type
REMARK                         _______ _______ _______ _____ _____    ______ ____
ROOT
ATOM      1  C   UNL     1       1.228   9.745  19.593  0.00  0.00    +0.000 A 
ATOM      2  C   UNL     1       1.703   9.135  18.432  0.00  0.00    +0.000 A 
ATOM      3  C   UNL     1       2.165   7.815  18.472  0.00  0.00    +0.000 A 
ATOM      4  C   UNL     1       2.147   7.060  19.657  0.00  0.00    +0.000 A 
ATOM      5  C   UNL     1       1.647   7.685  20.809  0.00  0.00    +0.000 A 
ATOM      6  C   UNL     1       1.194   9.011  20.781  0.00  0.00    +0.000 A 
ENDROOT
BRANCH   4   7
ATOM      7  N   UNL     1       2.597   5.704  19.663  0.00  0.00    +0.000 N 
ATOM      8  C   UNL     1       1.804   4.638  20.051  0.00  0.00    +0.000 C 
ATOM      9  O   UNL     1       0.624   4.627  20.376  0.00  0.00    +0.000 OA
ATOM     10  C   UNL     1       2.604   3.376  19.976  0.00  0.00    +0.000 C 
ATOM     11  C   UNL     1       2.165   2.369  18.895  0.00  0.00    +0.000 C 
ATOM     12  C   UNL     1       2.031   3.049  17.549  0.00  0.00    +0.000 C 
ATOM     13  C   UNL     1       3.266   3.389  17.148  0.00  0.00    +0.000 C 
ATOM     14  C   UNL     1       4.221   2.958  18.236  0.00  0.00    +0.000 C 
ATOM     15  C   UNL     1       3.506   1.662  18.652  0.00  0.00    +0.000 C 
ATOM     16  C   UNL     1       3.996   3.818  19.498  0.00  0.00    +0.000 C 
ATOM     17  C   UNL     1       3.862   5.298  19.268  0.00  0.00    +0.000 C 
ATOM     18  O   UNL     1       4.792   5.968  18.841  0.00  0.00    +0.000 OA
ENDBRANCH   4   7
BRANCH   1  20
ATOM     19  O   UNL     1       0.970  11.890  18.654  0.00  0.00    +0.000 OA
ATOM     20  C   UNL     1       0.723  11.146  19.596  0.00  0.00    +0.000 C 
ATOM     21  N   UNL     1      -0.032  11.514  20.687  0.00  0.00    +0.000 N 
ATOM     22  H   UNL     1      -0.239  10.832  21.402  0.00  0.00    +0.000 HD
BRANCH  21  23
ATOM     23  C   UNL     1      -0.532  12.870  20.869  0.00  0.00    +0.000 C 
ATOM     24  C   UNL     1      -1.868  13.047  20.139  0.00  0.00    +0.000 C 
ATOM     25  C   UNL     1      -3.017  12.303  20.821  0.00  0.00    +0.000 C 
ATOM     26  C   UNL     1      -3.136  12.688  22.291  0.00  0.00    +0.000 C 
ATOM     27  C   UNL     1      -1.821  12.487  23.039  0.00  0.00    +0.000 C 
ATOM     28  C   UNL     1      -0.662  13.216  22.360  0.00  0.00    +0.000 C 
ENDBRANCH  21  23
ENDBRANCH   1  20
TORSDOF 3
ENDMDL
MODEL 7
REMARK VINA RESULT:      -8.1      2.405      8.824
REMARK  Name = 
REMARK  3 active torsions:
REMARK  status: ('A' for Active; 'I' for Inactive)
REMARK    1  A    between atoms: C_2  and  C_10
REMARK    2  A    between atoms: N_3  and  C_4
REMARK    3  A    between atoms: C_13  and  N_14
REMARK                            x       y       z     vdW  Elec       q    Type
REMARK                         _______ _______ _______ _____ _____    ______ ____
ROOT
ATOM      1  C   UNL     1       2.265   7.368  19.563  0.00  0.00    +0.000 A 
ATOM      2  C   UNL     1       1.610   7.709  20.747  0.00  0.00    +0.000 A 
ATOM      3  C   UNL     1       0.959   8.943  20.859  0.00  0.00    +0.000 A 
ATOM      4  C   UNL     1       0.922   9.859  19.795  0.00  0.00    +0.000 A 
ATOM      5  C   UNL     1       1.570   9.489  18.606  0.00  0.00    +0.000 A 
ATOM      6  C   UNL     1       2.235   8.261  18.490  0.00  0.00    +0.000 A 
ENDROOT
BRANCH   4   7
ATOM      7  N   UNL     1       0.226  11.100  19.925  0.00  0.00    +0.000 N 
ATOM      8  C   UNL     1      -1.055  11.310  19.445  0.00  0.00    +0.000 C 
ATOM      9  O   UNL     1      -1.824  10.521  18.913  0.00  0.00    +0.000 OA
ATOM     10  C   UNL     1      -1.456  12.727  19.714  0.00  0.00    +0.000 C 
ATOM     11  C   UNL     1      -2.591  12.916  20.739  0.00  0.00    +0.000 C 
ATOM     12  C   UNL     1      -2.304  12.145  22.010  0.00  0.00    +0.000 C 
ATOM     13  C   UNL     1      -1.263  12.740  22.613  0.00  0.00    +0.000 C 
ATOM     14  C   UNL     1      -0.840  13.893  21.733  0.00  0.00    +0.000 C 
ATOM     15  C   UNL     1      -2.236  14.321  21.250  0.00  0.00    +0.000 C 
ATOM     16  C   UNL     1      -0.241  13.354  20.418  0.00  0.00    +0.000 C 
ATOM     17  C   UNL     1       0.738  12.221  20.558  0.00  0.00    +0.000 C 
ATOM     18  O   UNL     1       1.815  12.370  21.119  0.00  0.00    +0.000 OA
ENDBRANCH   4   7
BRANCH   1  20
ATOM     19  O   UNL     1       2.767   5.155  20.196  0.00  0.00    +0.000 OA
ATOM     20  C   UNL     1       2.966   6.065  19.400  0.00  0.00    +0.000 C 
ATOM     21  N   UNL     1       3.804   5.963  18.313  0.00  0.00    +0.000 N 
ATOM     22  H   UNL     1       3.881   6.737  17.668  0.00  0.00    +0.000 HD
BRANCH  21  23
ATOM     23  C   UNL     1       4.616   4.780  18.061  0.00  0.00    +0.000 C 
ATOM     24  C   UNL     1       4.674   4.484  16.557  0.00  0.00    +0.000 C 
ATOM     25  C   UNL     1       5.526   5.495  15.789  0.00  0.00    +0.000 C 
ATOM     26  C   UNL     1       6.926   5.612  16.383  0.00  0.00    +0.000 C 
ATOM     27  C   UNL     1       6.885   5.937  17.873  0.00  0.00    +0.000 C 
ATOM     28  C   UNL     1       6.025   4.940  18.651  0.00  0.00    +0.000 C 
ENDBRANCH  21  23
ENDBRANCH   1  20
TORSDOF 3
ENDMDL
MODEL 8
REMARK VINA RESULT:      -8.0      1.017      1.852
REMARK  Name = 
REMARK  3 active torsions:
REMARK  status: ('A' for Active; 'I' for Inactive)
REMARK    1  A    between atoms: C_2  and  C_10
REMARK    2  A    between atoms: N_3  and  C_4
REMARK    3  A    between atoms: C_13  and  N_14
REMARK                            x       y       z     vdW  Elec       q    Type
REMARK                         _______ _______ _______ _____ _____    ______ ____
ROOT
ATOM      1  C   UNL     1       1.218   9.612  19.346  0.00  0.00    +0.000 A 
ATOM      2  C   UNL     1       1.717   8.954  18.221  0.00  0.00    +0.000 A 
ATOM      3  C   UNL     1       2.198   7.645  18.330  0.00  0.00    +0.000 A 
ATOM      4  C   UNL     1       2.178   6.948  19.549  0.00  0.00    +0.000 A 
ATOM      5  C   UNL     1       1.655   7.620  20.664  0.00  0.00    +0.000 A 
ATOM      6  C   UNL     1       1.181   8.935  20.567  0.00  0.00    +0.000 A 
ENDROOT
BRANCH   4   7
ATOM      7  N   UNL     1       2.650   5.601  19.627  0.00  0.00    +0.000 N 
ATOM      8  C   UNL     1       1.869   4.543  20.058  0.00  0.00    +0.000 C 
ATOM      9  O   UNL     1       0.686   4.528  20.372  0.00  0.00    +0.000 OA
ATOM     10  C   UNL     1       2.689   3.292  20.053  0.00  0.00    +0.000 C 
ATOM     11  C   UNL     1       2.277   2.227  19.019  0.00  0.00    +0.000 C 
ATOM     12  C   UNL     1       2.147   2.837  17.639  0.00  0.00    +0.000 C 
ATOM     13  C   UNL     1       3.380   3.178  17.234  0.00  0.00    +0.000 C 
ATOM     14  C   UNL     1       4.330   2.816  18.351  0.00  0.00    +0.000 C 
ATOM     15  C   UNL     1       3.632   1.530  18.823  0.00  0.00    +0.000 C 
ATOM     16  C   UNL     1       4.080   3.732  19.567  0.00  0.00    +0.000 C 
ATOM     17  C   UNL     1       3.924   5.197  19.264  0.00  0.00    +0.000 C 
ATOM     18  O   UNL     1       4.849   5.861  18.813  0.00  0.00    +0.000 OA
ENDBRANCH   4   7
BRANCH   1  20
ATOM     19  O   UNL     1      -0.369  11.231  18.705  0.00  0.00    +0.000 OA
ATOM     20  C   UNL     1       0.692  11.003  19.275  0.00  0.00    +0.000 C 
ATOM     21  N   UNL     1       1.452  11.968  19.896  0.00  0.00    +0.000 N 
ATOM     22  H   UNL     1       2.290  11.700  20.392  0.00  0.00    +0.000 HD
BRANCH  21  23
ATOM     23  C   UNL     1       1.108  13.383  19.848  0.00  0.00    +0.000 C 
ATOM     24  C   UNL     1       1.603  14.094  21.114  0.00  0.00    +0.000 C 
ATOM     25  C   UNL     1       3.124  14.245  21.150  0.00  0.00    +0.000 C 
ATOM     26  C   UNL     1       3.647  14.930  19.892  0.00  0.00    +0.000 C 
ATOM     27  C   UNL     1       3.189  14.215  18.624  0.00  0.00    +0.000 C 
ATOM     28  C   UNL     1       1.671  14.047  18.582  0.00  0.00    +0.000 C 
ENDBRANCH  21  23
ENDBRANCH   1  20
TORSDOF 3
ENDMDL
MODEL 9
REMARK VINA RESULT:      -8.0      2.131      8.586
REMARK  Name = 
REMARK  3 active torsions:
REMARK  status: ('A' for Active; 'I' for Inactive)
REMARK    1  A    between atoms: C_2  and  C_10
REMARK    2  A    between atoms: N_3  and  C_4
REMARK    3  A    between atoms: C_13  and  N_14
REMARK                            x       y       z     vdW  Elec       q    Type
REMARK                         _______ _______ _______ _____ _____    ______ ____
ROOT
ATOM      1  C   UNL     1       2.701   6.558  19.304  0.00  0.00    +0.000 A 
ATOM      2  C   UNL     1       1.958   6.731  20.472  0.00  0.00    +0.000 A 
ATOM      3  C   UNL     1       1.203   7.894  20.658  0.00  0.00    +0.000 A 
ATOM      4  C   UNL     1       1.148   8.904  19.682  0.00  0.00    +0.000 A 
ATOM      5  C   UNL     1       1.886   8.702  18.506  0.00  0.00    +0.000 A 
ATOM      6  C   UNL     1       2.655   7.546  18.318  0.00  0.00    +0.000 A 
ENDROOT
BRANCH   4   7
ATOM      7  N   UNL     1       0.345  10.069  19.884  0.00  0.00    +0.000 N 
ATOM      8  C   UNL     1       0.451  10.885  20.996  0.00  0.00    +0.000 C 
ATOM      9  O   UNL     1       1.238  10.825  21.932  0.00  0.00    +0.000 OA
ATOM     10  C   UNL     1      -0.564  11.981  20.902  0.00  0.00    +0.000 C 
ATOM     11  C   UNL     1       0.003  13.401  20.707  0.00  0.00    +0.000 C 
ATOM     12  C   UNL     1       0.997  13.433  19.565  0.00  0.00    +0.000 C 
ATOM     13  C   UNL     1       0.308  13.234  18.430  0.00  0.00    +0.000 C 
ATOM     14  C   UNL     1      -1.140  13.046  18.816  0.00  0.00    +0.000 C 
ATOM     15  C   UNL     1      -1.186  14.048  19.982  0.00  0.00    +0.000 C 
ATOM     16  C   UNL     1      -1.308  11.718  19.583  0.00  0.00    +0.000 C 
ATOM     17  C   UNL     1      -0.610  10.525  18.990  0.00  0.00    +0.000 C 
ATOM     18  O   UNL     1      -0.933  10.068  17.902  0.00  0.00    +0.000 OA
ENDBRANCH   4   7
BRANCH   1  20
ATOM     19  O   UNL     1       3.235   4.288  19.635  0.00  0.00    +0.000 OA
ATOM     20  C   UNL     1       3.515   5.335  19.064  0.00  0.00    +0.000 C 
ATOM     21  N   UNL     1       4.552   5.466  18.167  0.00  0.00    +0.000 N 
ATOM     22  H   UNL     1       4.693   6.347  17.694  0.00  0.00    +0.000 HD
BRANCH  21  23
ATOM     23  C   UNL     1       5.482   4.381  17.885  0.00  0.00    +0.000 C 
ATOM     24  C   UNL     1       5.108   3.688  16.569  0.00  0.00    +0.000 C 
ATOM     25  C   UNL     1       5.407   4.551  15.342  0.00  0.00    +0.000 C 
ATOM     26  C   UNL     1       6.859   5.017  15.327  0.00  0.00    +0.000 C 
ATOM     27  C   UNL     1       7.237   5.736  16.618  0.00  0.00    +0.000 C 
ATOM     28  C   UNL     1       6.931   4.889  17.853  0.00  0.00    +0.000 C 
ENDBRANCH  21  23
ENDBRANCH   1  20
TORSDOF 3
ENDMDL
