MODEL 1
REMARK VINA RESULT:      -7.4      0.000      0.000
REMARK  Name = 
REMARK  6 active torsions:
REMARK  status: ('A' for Active; 'I' for Inactive)
REMARK    1  A    between atoms: C_1  and  N_2
REMARK    2  A    between atoms: C_6  and  C_7
REMARK    3  A    between atoms: C_7  and  N_8
REMARK    4  A    between atoms: N_8  and  C_9
REMARK    5  A    between atoms: C_13  and  S_14
REMARK    6  A    between atoms: S_14  and  N_17
REMARK                            x       y       z     vdW  Elec       q    Type
REMARK                         _______ _______ _______ _____ _____    ______ ____
ROOT
ATOM      1  C   UNL     1       1.896   7.476  20.038  0.00  0.00    +0.000 A 
ATOM      2  C   UNL     1       1.107   7.964  21.089  0.00  0.00    +0.000 A 
ATOM      3  C   UNL     1       0.459   9.198  21.006  0.00  0.00    +0.000 A 
ATOM      4  F   UNL     1      -0.308   9.559  22.039  0.00  0.00    +0.000 F 
ATOM      5  C   UNL     1       0.621   9.989  19.890  0.00  0.00    +0.000 A 
ATOM      6  C   UNL     1       1.411   9.549  18.823  0.00  0.00    +0.000 A 
ATOM      7  C   UNL     1       2.048   8.304  18.903  0.00  0.00    +0.000 A 
ATOM      8 CL   UNL     1       3.042   7.821  17.570  0.00  0.00    +0.000 Cl
ENDROOT
BRANCH   5   9
ATOM      9  S   UNL     1      -0.244  11.510  19.791  0.00  0.00    +0.000 S 
ATOM     10  O   UNL     1      -1.604  11.194  19.405  0.00  0.00    +0.000 OA
ATOM     11  O   UNL     1      -0.013  12.299  20.983  0.00  0.00    +0.000 OA
BRANCH   9  12
ATOM     12  N   UNL     1       0.423  12.249  18.432  0.00  0.00    +0.000 N 
ATOM     13  C   UNL     1       1.315  13.289  18.765  0.00  0.00    +0.000 A 
ATOM     14  N   UNL     1       2.593  13.036  18.901  0.00  0.00    +0.000 NA
ATOM     15  C   UNL     1       3.273  14.229  19.069  0.00  0.00    +0.000 A 
ATOM     16  C   UNL     1       2.489  15.366  19.079  0.00  0.00    +0.000 A 
ATOM     17  S   UNL     1       0.853  14.933  18.790  0.00  0.00    +0.000 S 
ATOM     18  H   UNL     1      -0.359  12.554  17.857  0.00  0.00    +0.000 HD
ENDBRANCH   9  12
ENDBRANCH   5   9
BRANCH   1  19
ATOM     19  N   UNL     1       2.573   6.242  20.144  0.00  0.00    +0.000 N 
ATOM     20  H   UNL     1       3.068   6.018  19.278  0.00  0.00    +0.000 HD
BRANCH  19  21
ATOM     21  C   UNL     1       1.871   5.117  20.769  0.00  0.00    +0.000 C 
BRANCH  21  27
ATOM     22  C   UNL     1       4.008   4.201  17.107  0.00  0.00    +0.000 C 
ATOM     23  N   UNL     1       3.012   4.039  18.167  0.00  0.00    +0.000 NA
ATOM     24  C   UNL     1       2.149   2.883  17.882  0.00  0.00    +0.000 C 
ATOM     25  C   UNL     1       1.087   2.681  18.965  0.00  0.00    +0.000 C 
ATOM     26  C   UNL     1       1.711   2.604  20.358  0.00  0.00    +0.000 C 
ATOM     27  C   UNL     1       2.637   3.796  20.627  0.00  0.00    +0.000 C 
ATOM     28  C   UNL     1       3.664   3.903  19.479  0.00  0.00    +0.000 C 
ENDBRANCH  21  27
ENDBRANCH  19  21
ENDBRANCH   1  19
TORSDOF 5
ENDMDL
MODEL 2
REMARK VINA RESULT:      -7.2      2.089      2.273
REMARK  Name = 
REMARK  6 active torsions:
REMARK  status: ('A' for Active; 'I' for Inactive)
REMARK    1  A    between atoms: C_1  and  N_2
REMARK    2  A    between atoms: C_6  and  C_7
REMARK    3  A    between atoms: C_7  and  N_8
REMARK    4  A    between atoms: N_8  and  C_9
REMARK    5  A    between atoms: C_13  and  S_14
REMARK    6  A    between atoms: S_14  and  N_17
REMARK                            x       y       z     vdW  Elec       q    Type
REMARK                         _______ _______ _______ _____ _____    ______ ____
ROOT
ATOM      1  C   UNL     1       1.849   7.515  20.149  0.00  0.00    +0.000 A 
ATOM      2  C   UNL     1       1.131   8.083  21.210  0.00  0.00    +0.000 A 
ATOM      3  C   UNL     1       0.552   9.350  21.107  0.00  0.00    +0.000 A 
ATOM      4  F   UNL     1      -0.153   9.790  22.154  0.00  0.00    +0.000 F 
ATOM      5  C   UNL     1       0.715  10.092  19.958  0.00  0.00    +0.000 A 
ATOM      6  C   UNL     1       1.437   9.571  18.879  0.00  0.00    +0.000 A 
ATOM      7  C   UNL     1       2.004   8.294  18.980  0.00  0.00    +0.000 A 
ATOM      8 CL   UNL     1       2.917   7.709  17.630  0.00  0.00    +0.000 Cl
ENDROOT
BRANCH   5   9
ATOM      9  S   UNL     1      -0.065  11.657  19.836  0.00  0.00    +0.000 S 
ATOM     10  O   UNL     1       0.335  12.226  18.565  0.00  0.00    +0.000 OA
ATOM     11  O   UNL     1      -1.475  11.542  20.146  0.00  0.00    +0.000 OA
BRANCH   9  12
ATOM     12  N   UNL     1       0.739  12.583  20.989  0.00  0.00    +0.000 N 
ATOM     13  C   UNL     1      -0.143  13.345  21.783  0.00  0.00    +0.000 A 
ATOM     14  N   UNL     1      -0.596  12.854  22.911  0.00  0.00    +0.000 NA
ATOM     15  C   UNL     1      -1.307  13.837  23.575  0.00  0.00    +0.000 A 
ATOM     16  C   UNL     1      -1.396  15.052  22.925  0.00  0.00    +0.000 A 
ATOM     17  S   UNL     1      -0.493  14.985  21.467  0.00  0.00    +0.000 S 
ATOM     18  H   UNL     1       1.419  13.148  20.483  0.00  0.00    +0.000 HD
ENDBRANCH   9  12
ENDBRANCH   5   9
BRANCH   1  19
ATOM     19  N   UNL     1       2.459   6.248  20.275  0.00  0.00    +0.000 N 
ATOM     20  H   UNL     1       3.045   6.040  19.463  0.00  0.00    +0.000 HD
BRANCH  19  21
ATOM     21  C   UNL     1       1.642   5.131  20.757  0.00  0.00    +0.000 C 
BRANCH  21  27
ATOM     22  C   UNL     1       4.007   4.010  17.296  0.00  0.00    +0.000 C 
ATOM     23  N   UNL     1       2.940   3.911  18.295  0.00  0.00    +0.000 NA
ATOM     24  C   UNL     1       2.085   2.749  18.012  0.00  0.00    +0.000 C 
ATOM     25  C   UNL     1       0.951   2.612  19.030  0.00  0.00    +0.000 C 
ATOM     26  C   UNL     1       1.480   2.601  20.464  0.00  0.00    +0.000 C 
ATOM     27  C   UNL     1       2.400   3.798  20.733  0.00  0.00    +0.000 C 
ATOM     28  C   UNL     1       3.503   3.837  19.653  0.00  0.00    +0.000 C 
ENDBRANCH  21  27
ENDBRANCH  19  21
ENDBRANCH   1  19
TORSDOF 5
ENDMDL
MODEL 3
REMARK VINA RESULT:      -7.1      6.140      9.736
REMARK  Name = 
REMARK  6 active torsions:
REMARK  status: ('A' for Active; 'I' for Inactive)
REMARK    1  A    between atoms: C_1  and  N_2
REMARK    2  A    between atoms: C_6  and  C_7
REMARK    3  A    between atoms: C_7  and  N_8
REMARK    4  A    between atoms: N_8  and  C_9
REMARK    5  A    between atoms: C_13  and  S_14
REMARK    6  A    between atoms: S_14  and  N_17
REMARK                            x       y       z     vdW  Elec       q    Type
REMARK                         _______ _______ _______ _____ _____    ______ ____
ROOT
ATOM      1  C   UNL     1       7.797   7.234  18.411  0.00  0.00    +0.000 A 
ATOM      2  C   UNL     1       6.999   7.543  17.301  0.00  0.00    +0.000 A 
ATOM      3  C   UNL     1       6.031   6.656  16.826  0.00  0.00    +0.000 A 
ATOM      4  F   UNL     1       5.287   7.057  15.790  0.00  0.00    +0.000 F 
ATOM      5  C   UNL     1       5.869   5.426  17.423  0.00  0.00    +0.000 A 
ATOM      6  C   UNL     1       6.654   5.068  18.524  0.00  0.00    +0.000 A 
ATOM      7  C   UNL     1       7.614   5.965  19.008  0.00  0.00    +0.000 A 
ATOM      8 CL   UNL     1       8.582   5.461  20.352  0.00  0.00    +0.000 Cl
ENDROOT
BRANCH   5   9
ATOM      9  S   UNL     1       4.612   4.353  16.838  0.00  0.00    +0.000 S 
ATOM     10  O   UNL     1       3.345   4.992  17.133  0.00  0.00    +0.000 OA
ATOM     11  O   UNL     1       4.894   3.941  15.479  0.00  0.00    +0.000 OA
BRANCH   9  12
ATOM     12  N   UNL     1       4.689   3.048  17.900  0.00  0.00    +0.000 N 
ATOM     13  C   UNL     1       3.482   2.851  18.602  0.00  0.00    +0.000 A 
ATOM     14  N   UNL     1       2.572   2.039  18.122  0.00  0.00    +0.000 NA
ATOM     15  C   UNL     1       1.563   1.893  19.056  0.00  0.00    +0.000 A 
ATOM     16  C   UNL     1       1.718   2.617  20.221  0.00  0.00    +0.000 A 
ATOM     17  S   UNL     1       3.219   3.450  20.179  0.00  0.00    +0.000 S 
ATOM     18  H   UNL     1       5.488   3.217  18.507  0.00  0.00    +0.000 HD
ENDBRANCH   9  12
ENDBRANCH   5   9
BRANCH   1  19
ATOM     19  N   UNL     1       8.796   8.122  18.864  0.00  0.00    +0.000 N 
ATOM     20  H   UNL     1       9.085   7.896  19.818  0.00  0.00    +0.000 HD
BRANCH  19  21
ATOM     21  C   UNL     1       8.628   9.552  18.587  0.00  0.00    +0.000 C 
BRANCH  21  27
ATOM     22  C   UNL     1       8.713  12.556  21.717  0.00  0.00    +0.000 C 
ATOM     23  N   UNL     1       8.792  12.016  20.358  0.00  0.00    +0.000 NA
ATOM     24  C   UNL     1       9.026  13.102  19.393  0.00  0.00    +0.000 C 
ATOM     25  C   UNL     1       9.109  12.581  17.956  0.00  0.00    +0.000 C 
ATOM     26  C   UNL     1      10.140  11.461  17.822  0.00  0.00    +0.000 C 
ATOM     27  C   UNL     1       9.907  10.355  18.859  0.00  0.00    +0.000 C 
ATOM     28  C   UNL     1       9.843  10.990  20.265  0.00  0.00    +0.000 C 
ENDBRANCH  21  27
ENDBRANCH  19  21
ENDBRANCH   1  19
TORSDOF 5
ENDMDL
MODEL 4
REMARK VINA RESULT:      -7.1      1.118      1.684
REMARK  Name = 
REMARK  6 active torsions:
REMARK  status: ('A' for Active; 'I' for Inactive)
REMARK    1  A    between atoms: C_1  and  N_2
REMARK    2  A    between atoms: C_6  and  C_7
REMARK    3  A    between atoms: C_7  and  N_8
REMARK    4  A    between atoms: N_8  and  C_9
REMARK    5  A    between atoms: C_13  and  S_14
REMARK    6  A    between atoms: S_14  and  N_17
REMARK                            x       y       z     vdW  Elec       q    Type
REMARK                         _______ _______ _______ _____ _____    ______ ____
ROOT
ATOM      1  C   UNL     1       2.218   7.142  19.846  0.00  0.00    +0.000 A 
ATOM      2  C   UNL     1       1.410   7.547  20.917  0.00  0.00    +0.000 A 
ATOM      3  C   UNL     1       0.691   8.743  20.881  0.00  0.00    +0.000 A 
ATOM      4  F   UNL     1      -0.089   9.024  21.930  0.00  0.00    +0.000 F 
ATOM      5  C   UNL     1       0.798   9.580  19.792  0.00  0.00    +0.000 A 
ATOM      6  C   UNL     1       1.604   9.224  18.706  0.00  0.00    +0.000 A 
ATOM      7  C   UNL     1       2.313   8.016  18.739  0.00  0.00    +0.000 A 
ATOM      8 CL   UNL     1       3.323   7.638  17.385  0.00  0.00    +0.000 Cl
ENDROOT
BRANCH   5   9
ATOM      9  S   UNL     1      -0.155  11.051  19.750  0.00  0.00    +0.000 S 
ATOM     10  O   UNL     1      -1.502  10.667  19.377  0.00  0.00    +0.000 OA
ATOM     11  O   UNL     1       0.050  11.819  20.960  0.00  0.00    +0.000 OA
BRANCH   9  12
ATOM     12  N   UNL     1       0.444  11.864  18.403  0.00  0.00    +0.000 N 
ATOM     13  C   UNL     1       1.220  12.989  18.750  0.00  0.00    +0.000 A 
ATOM     14  N   UNL     1       2.516  12.868  18.897  0.00  0.00    +0.000 NA
ATOM     15  C   UNL     1       3.067  14.124  19.079  0.00  0.00    +0.000 A 
ATOM     16  C   UNL     1       2.170  15.173  19.088  0.00  0.00    +0.000 A 
ATOM     17  S   UNL     1       0.591  14.575  18.781  0.00  0.00    +0.000 S 
ATOM     18  H   UNL     1      -0.361  12.091  17.821  0.00  0.00    +0.000 HD
ENDBRANCH   9  12
ENDBRANCH   5   9
BRANCH   1  19
ATOM     19  N   UNL     1       2.967   5.947  19.906  0.00  0.00    +0.000 N 
ATOM     20  H   UNL     1       3.968   6.135  19.820  0.00  0.00    +0.000 HD
BRANCH  19  21
ATOM     21  C   UNL     1       2.484   4.789  19.148  0.00  0.00    +0.000 C 
BRANCH  21  27
ATOM     22  C   UNL     1       6.735   5.642  18.993  0.00  0.00    +0.000 C 
ATOM     23  N   UNL     1       5.444   5.116  18.544  0.00  0.00    +0.000 NA
ATOM     24  C   UNL     1       5.583   4.487  17.222  0.00  0.00    +0.000 C 
ATOM     25  C   UNL     1       4.253   3.928  16.712  0.00  0.00    +0.000 C 
ATOM     26  C   UNL     1       3.609   2.989  17.731  0.00  0.00    +0.000 C 
ATOM     27  C   UNL     1       3.505   3.644  19.113  0.00  0.00    +0.000 C 
ATOM     28  C   UNL     1       4.897   4.167  19.528  0.00  0.00    +0.000 C 
ENDBRANCH  21  27
ENDBRANCH  19  21
ENDBRANCH   1  19
TORSDOF 5
ENDMDL
MODEL 5
REMARK VINA RESULT:      -7.1      5.744      7.125
REMARK  Name = 
REMARK  6 active torsions:
REMARK  status: ('A' for Active; 'I' for Inactive)
REMARK    1  A    between atoms: C_1  and  N_2
REMARK    2  A    between atoms: C_6  and  C_7
REMARK    3  A    between atoms: C_7  and  N_8
REMARK    4  A    between atoms: N_8  and  C_9
REMARK    5  A    between atoms: C_13  and  S_14
REMARK    6  A    between atoms: S_14  and  N_17
REMARK                            x       y       z     vdW  Elec       q    Type
REMARK                         _______ _______ _______ _____ _____    ______ ____
ROOT
ATOM      1  C   UNL     1       3.191   5.694  19.377  0.00  0.00    +0.000 A 
ATOM      2  C   UNL     1       4.342   5.010  19.789  0.00  0.00    +0.000 A 
ATOM      3  C   UNL     1       5.597   5.293  19.246  0.00  0.00    +0.000 A 
ATOM      4  F   UNL     1       6.644   4.620  19.735  0.00  0.00    +0.000 F 
ATOM      5  C   UNL     1       5.720   6.235  18.249  0.00  0.00    +0.000 A 
ATOM      6  C   UNL     1       4.596   6.932  17.795  0.00  0.00    +0.000 A 
ATOM      7  C   UNL     1       3.341   6.656  18.352  0.00  0.00    +0.000 A 
ATOM      8 CL   UNL     1       1.977   7.522  17.732  0.00  0.00    +0.000 Cl
ENDROOT
BRANCH   5   9
ATOM      9  S   UNL     1       7.314   6.606  17.621  0.00  0.00    +0.000 S 
ATOM     10  O   UNL     1       7.123   7.500  16.496  0.00  0.00    +0.000 OA
ATOM     11  O   UNL     1       8.200   7.003  18.695  0.00  0.00    +0.000 OA
BRANCH   9  12
ATOM     12  N   UNL     1       7.808   5.152  16.929  0.00  0.00    +0.000 N 
ATOM     13  C   UNL     1       7.143   4.876  15.717  0.00  0.00    +0.000 A 
ATOM     14  N   UNL     1       7.666   5.264  14.580  0.00  0.00    +0.000 NA
ATOM     15  C   UNL     1       6.918   4.744  13.540  0.00  0.00    +0.000 A 
ATOM     16  C   UNL     1       5.825   3.987  13.911  0.00  0.00    +0.000 A 
ATOM     17  S   UNL     1       5.777   3.857  15.622  0.00  0.00    +0.000 S 
ATOM     18  H   UNL     1       7.673   4.435  17.638  0.00  0.00    +0.000 HD
ENDBRANCH   9  12
ENDBRANCH   5   9
BRANCH   1  19
ATOM     19  N   UNL     1       1.922   5.378  19.908  0.00  0.00    +0.000 N 
ATOM     20  H   UNL     1       1.408   6.224  20.163  0.00  0.00    +0.000 HD
BRANCH  19  21
ATOM     21  C   UNL     1       1.830   4.279  20.873  0.00  0.00    +0.000 C 
BRANCH  21  27
ATOM     22  C   UNL     1       3.979   1.112  18.829  0.00  0.00    +0.000 C 
ATOM     23  N   UNL     1       3.022   2.207  18.996  0.00  0.00    +0.000 NA
ATOM     24  C   UNL     1       2.331   2.477  17.725  0.00  0.00    +0.000 C 
ATOM     25  C   UNL     1       1.324   3.622  17.854  0.00  0.00    +0.000 C 
ATOM     26  C   UNL     1       0.343   3.383  19.002  0.00  0.00    +0.000 C 
ATOM     27  C   UNL     1       1.076   3.066  20.310  0.00  0.00    +0.000 C 
ATOM     28  C   UNL     1       2.060   1.901  20.067  0.00  0.00    +0.000 C 
ENDBRANCH  21  27
ENDBRANCH  19  21
ENDBRANCH   1  19
TORSDOF 5
ENDMDL
MODEL 6
REMARK VINA RESULT:      -7.1      3.221      3.851
REMARK  Name = 
REMARK  6 active torsions:
REMARK  status: ('A' for Active; 'I' for Inactive)
REMARK    1  A    between atoms: C_1  and  N_2
REMARK    2  A    between atoms: C_6  and  C_7
REMARK    3  A    between atoms: C_7  and  N_8
REMARK    4  A    between atoms: N_8  and  C_9
REMARK    5  A    between atoms: C_13  and  S_14
REMARK    6  A    between atoms: S_14  and  N_17
REMARK                            x       y       z     vdW  Elec       q    Type
REMARK                         _______ _______ _______ _____ _____    ______ ____
ROOT
ATOM      1  C   UNL     1       1.388   8.381  20.668  0.00  0.00    +0.000 A 
ATOM      2  C   UNL     1       0.990   8.703  21.972  0.00  0.00    +0.000 A 
ATOM      3  C   UNL     1       0.283   9.874  22.254  0.00  0.00    +0.000 A 
ATOM      4  F   UNL     1      -0.094  10.074  23.521  0.00  0.00    +0.000 F 
ATOM      5  C   UNL     1      -0.004  10.767  21.245  0.00  0.00    +0.000 A 
ATOM      6  C   UNL     1       0.387  10.494  19.931  0.00  0.00    +0.000 A 
ATOM      7  C   UNL     1       1.084   9.312  19.648  0.00  0.00    +0.000 A 
ATOM      8 CL   UNL     1       1.574   9.038  18.011  0.00  0.00    +0.000 Cl
ENDROOT
BRANCH   5   9
ATOM      9  S   UNL     1      -0.936  12.203  21.619  0.00  0.00    +0.000 S 
ATOM     10  O   UNL     1      -0.047  13.111  22.315  0.00  0.00    +0.000 OA
ATOM     11  O   UNL     1      -1.639  12.668  20.441  0.00  0.00    +0.000 OA
BRANCH   9  12
ATOM     12  N   UNL     1      -2.012  11.673  22.801  0.00  0.00    +0.000 N 
ATOM     13  C   UNL     1      -3.103  12.549  22.973  0.00  0.00    +0.000 A 
ATOM     14  N   UNL     1      -4.206  12.361  22.291  0.00  0.00    +0.000 NA
ATOM     15  C   UNL     1      -5.171  13.243  22.744  0.00  0.00    +0.000 A 
ATOM     16  C   UNL     1      -4.771  14.099  23.750  0.00  0.00    +0.000 A 
ATOM     17  S   UNL     1      -3.154  13.737  24.198  0.00  0.00    +0.000 S 
ATOM     18  H   UNL     1      -1.465  11.535  23.648  0.00  0.00    +0.000 HD
ENDBRANCH   9  12
ENDBRANCH   5   9
BRANCH   1  19
ATOM     19  N   UNL     1       2.131   7.212  20.397  0.00  0.00    +0.000 N 
ATOM     20  H   UNL     1       2.565   7.257  19.473  0.00  0.00    +0.000 HD
BRANCH  19  21
ATOM     21  C   UNL     1       1.536   5.918  20.743  0.00  0.00    +0.000 C 
BRANCH  21  27
ATOM     22  C   UNL     1       4.250   5.903  17.358  0.00  0.00    +0.000 C 
ATOM     23  N   UNL     1       3.161   5.440  18.219  0.00  0.00    +0.000 NA
ATOM     24  C   UNL     1       2.532   4.241  17.644  0.00  0.00    +0.000 C 
ATOM     25  C   UNL     1       1.381   3.727  18.511  0.00  0.00    +0.000 C 
ATOM     26  C   UNL     1       1.821   3.506  19.958  0.00  0.00    +0.000 C 
ATOM     27  C   UNL     1       2.509   4.750  20.532  0.00  0.00    +0.000 C 
ATOM     28  C   UNL     1       3.649   5.179  19.583  0.00  0.00    +0.000 C 
ENDBRANCH  21  27
ENDBRANCH  19  21
ENDBRANCH   1  19
TORSDOF 5
ENDMDL
MODEL 7
REMARK VINA RESULT:      -7.1      2.500      3.097
REMARK  Name = 
REMARK  6 active torsions:
REMARK  status: ('A' for Active; 'I' for Inactive)
REMARK    1  A    between atoms: C_1  and  N_2
REMARK    2  A    between atoms: C_6  and  C_7
REMARK    3  A    between atoms: C_7  and  N_8
REMARK    4  A    between atoms: N_8  and  C_9
REMARK    5  A    between atoms: C_13  and  S_14
REMARK    6  A    between atoms: S_14  and  N_17
REMARK                            x       y       z     vdW  Elec       q    Type
REMARK                         _______ _______ _______ _____ _____    ______ ____
ROOT
ATOM      1  C   UNL     1       1.693   8.003  20.319  0.00  0.00    +0.000 A 
ATOM      2  C   UNL     1       1.189   8.533  21.514  0.00  0.00    +0.000 A 
ATOM      3  C   UNL     1       0.654   9.822  21.575  0.00  0.00    +0.000 A 
ATOM      4  F   UNL     1       0.155  10.225  22.748  0.00  0.00    +0.000 F 
ATOM      5  C   UNL     1       0.652  10.622  20.454  0.00  0.00    +0.000 A 
ATOM      6  C   UNL     1       1.159  10.140  19.243  0.00  0.00    +0.000 A 
ATOM      7  C   UNL     1       1.682   8.842  19.181  0.00  0.00    +0.000 A 
ATOM      8 CL   UNL     1       2.327   8.305  17.668  0.00  0.00    +0.000 Cl
ENDROOT
BRANCH   5   9
ATOM      9  S   UNL     1      -0.071  12.216  20.546  0.00  0.00    +0.000 S 
ATOM     10  O   UNL     1       0.298  12.769  21.834  0.00  0.00    +0.000 OA
ATOM     11  O   UNL     1       0.218  12.971  19.345  0.00  0.00    +0.000 OA
BRANCH   9  12
ATOM     12  N   UNL     1      -1.718  11.889  20.680  0.00  0.00    +0.000 N 
ATOM     13  C   UNL     1      -2.355  12.703  21.639  0.00  0.00    +0.000 A 
ATOM     14  N   UNL     1      -2.901  13.837  21.275  0.00  0.00    +0.000 NA
ATOM     15  C   UNL     1      -3.592  14.369  22.349  0.00  0.00    +0.000 A 
ATOM     16  C   UNL     1      -3.536  13.635  23.516  0.00  0.00    +0.000 A 
ATOM     17  S   UNL     1      -2.654  12.189  23.239  0.00  0.00    +0.000 S 
ATOM     18  H   UNL     1      -1.800  10.893  20.875  0.00  0.00    +0.000 HD
ENDBRANCH   9  12
ENDBRANCH   5   9
BRANCH   1  19
ATOM     19  N   UNL     1       2.262   6.712  20.274  0.00  0.00    +0.000 N 
ATOM     20  H   UNL     1       2.740   6.550  19.385  0.00  0.00    +0.000 HD
BRANCH  19  21
ATOM     21  C   UNL     1       1.462   5.585  20.765  0.00  0.00    +0.000 C 
BRANCH  21  27
ATOM     22  C   UNL     1       3.670   4.095  17.340  0.00  0.00    +0.000 C 
ATOM     23  N   UNL     1       2.669   4.093  18.409  0.00  0.00    +0.000 NA
ATOM     24  C   UNL     1       1.851   2.872  18.338  0.00  0.00    +0.000 C 
ATOM     25  C   UNL     1       0.786   2.832  19.436  0.00  0.00    +0.000 C 
ATOM     26  C   UNL     1       1.398   3.035  20.822  0.00  0.00    +0.000 C 
ATOM     27  C   UNL     1       2.277   4.290  20.870  0.00  0.00    +0.000 C 
ATOM     28  C   UNL     1       3.312   4.224  19.726  0.00  0.00    +0.000 C 
ENDBRANCH  21  27
ENDBRANCH  19  21
ENDBRANCH   1  19
TORSDOF 5
ENDMDL
MODEL 8
REMARK VINA RESULT:      -7.0      1.979      2.922
REMARK  Name = 
REMARK  6 active torsions:
REMARK  status: ('A' for Active; 'I' for Inactive)
REMARK    1  A    between atoms: C_1  and  N_2
REMARK    2  A    between atoms: C_6  and  C_7
REMARK    3  A    between atoms: C_7  and  N_8
REMARK    4  A    between atoms: N_8  and  C_9
REMARK    5  A    between atoms: C_13  and  S_14
REMARK    6  A    between atoms: S_14  and  N_17
REMARK                            x       y       z     vdW  Elec       q    Type
REMARK                         _______ _______ _______ _____ _____    ______ ____
ROOT
ATOM      1  C   UNL     1       1.808   7.740  20.304  0.00  0.00    +0.000 A 
ATOM      2  C   UNL     1       1.227   8.255  21.471  0.00  0.00    +0.000 A 
ATOM      3  C   UNL     1       0.597   9.501  21.487  0.00  0.00    +0.000 A 
ATOM      4  F   UNL     1       0.032   9.888  22.635  0.00  0.00    +0.000 F 
ATOM      5  C   UNL     1       0.571  10.276  20.349  0.00  0.00    +0.000 A 
ATOM      6  C   UNL     1       1.151   9.810  19.165  0.00  0.00    +0.000 A 
ATOM      7  C   UNL     1       1.770   8.553  19.148  0.00  0.00    +0.000 A 
ATOM      8 CL   UNL     1       2.502   8.036  17.667  0.00  0.00    +0.000 Cl
ENDROOT
BRANCH   5   9
ATOM      9  S   UNL     1      -0.270  11.813  20.384  0.00  0.00    +0.000 S 
ATOM     10  O   UNL     1      -1.520  11.591  21.084  0.00  0.00    +0.000 OA
ATOM     11  O   UNL     1       0.616  12.863  20.840  0.00  0.00    +0.000 OA
BRANCH   9  12
ATOM     12  N   UNL     1      -0.719  12.048  18.778  0.00  0.00    +0.000 N 
ATOM     13  C   UNL     1      -1.997  11.526  18.491  0.00  0.00    +0.000 A 
ATOM     14  N   UNL     1      -3.055  12.291  18.599  0.00  0.00    +0.000 NA
ATOM     15  C   UNL     1      -4.156  11.607  18.118  0.00  0.00    +0.000 A 
ATOM     16  C   UNL     1      -3.913  10.323  17.673  0.00  0.00    +0.000 A 
ATOM     17  S   UNL     1      -2.234   9.988  17.789  0.00  0.00    +0.000 S 
ATOM     18  H   UNL     1       0.022  11.642  18.209  0.00  0.00    +0.000 HD
ENDBRANCH   9  12
ENDBRANCH   5   9
BRANCH   1  19
ATOM     19  N   UNL     1       2.472   6.495  20.305  0.00  0.00    +0.000 N 
ATOM     20  H   UNL     1       3.058   6.389  19.474  0.00  0.00    +0.000 HD
BRANCH  19  21
ATOM     21  C   UNL     1       1.706   5.302  20.682  0.00  0.00    +0.000 C 
BRANCH  21  27
ATOM     22  C   UNL     1       4.134   4.606  17.154  0.00  0.00    +0.000 C 
ATOM     23  N   UNL     1       3.069   4.369  18.131  0.00  0.00    +0.000 NA
ATOM     24  C   UNL     1       2.270   3.199  17.738  0.00  0.00    +0.000 C 
ATOM     25  C   UNL     1       1.139   2.919  18.731  0.00  0.00    +0.000 C 
ATOM     26  C   UNL     1       1.663   2.804  20.163  0.00  0.00    +0.000 C 
ATOM     27  C   UNL     1       2.526   4.013  20.545  0.00  0.00    +0.000 C 
ATOM     28  C   UNL     1       3.629   4.200  19.481  0.00  0.00    +0.000 C 
ENDBRANCH  21  27
ENDBRANCH  19  21
ENDBRANCH   1  19
TORSDOF 5
ENDMDL
MODEL 9
REMARK VINA RESULT:      -7.0      1.018      1.681
REMARK  Name = 
REMARK  6 active torsions:
REMARK  status: ('A' for Active; 'I' for Inactive)
REMARK    1  A    between atoms: C_1  and  N_2
REMARK    2  A    between atoms: C_6  and  C_7
REMARK    3  A    between atoms: C_7  and  N_8
REMARK    4  A    between atoms: N_8  and  C_9
REMARK    5  A    between atoms: C_13  and  S_14
REMARK    6  A    between atoms: S_14  and  N_17
REMARK                            x       y       z     vdW  Elec       q    Type
REMARK                         _______ _______ _______ _____ _____    ______ ____
ROOT
ATOM      1  C   UNL     1       2.155   7.414  19.812  0.00  0.00    +0.000 A 
ATOM      2  C   UNL     1       1.296   7.788  20.854  0.00  0.00    +0.000 A 
ATOM      3  C   UNL     1       0.510   8.939  20.777  0.00  0.00    +0.000 A 
ATOM      4  F   UNL     1      -0.313   9.189  21.800  0.00  0.00    +0.000 F 
ATOM      5  C   UNL     1       0.597   9.762  19.677  0.00  0.00    +0.000 A 
ATOM      6  C   UNL     1       1.452   9.437  18.619  0.00  0.00    +0.000 A 
ATOM      7  C   UNL     1       2.230   8.274  18.692  0.00  0.00    +0.000 A 
ATOM      8 CL   UNL     1       3.297   7.934  17.372  0.00  0.00    +0.000 Cl
ENDROOT
BRANCH   5   9
ATOM      9  S   UNL     1      -0.439  11.173  19.584  0.00  0.00    +0.000 S 
ATOM     10  O   UNL     1      -1.716  10.722  19.068  0.00  0.00    +0.000 OA
ATOM     11  O   UNL     1      -0.401  11.909  20.831  0.00  0.00    +0.000 OA
BRANCH   9  12
ATOM     12  N   UNL     1       0.235  12.069  18.327  0.00  0.00    +0.000 N 
ATOM     13  C   UNL     1       1.011  13.151  18.789  0.00  0.00    +0.000 A 
ATOM     14  N   UNL     1       2.297  12.997  18.986  0.00  0.00    +0.000 NA
ATOM     15  C   UNL     1       2.858  14.226  19.283  0.00  0.00    +0.000 A 
ATOM     16  C   UNL     1       1.978  15.288  19.326  0.00  0.00    +0.000 A 
ATOM     17  S   UNL     1       0.405  14.743  18.904  0.00  0.00    +0.000 S 
ATOM     18  H   UNL     1      -0.538  12.351  17.727  0.00  0.00    +0.000 HD
ENDBRANCH   9  12
ENDBRANCH   5   9
BRANCH   1  19
ATOM     19  N   UNL     1       2.971   6.267  19.912  0.00  0.00    +0.000 N 
ATOM     20  H   UNL     1       3.840   6.474  20.409  0.00  0.00    +0.000 HD
BRANCH  19  21
ATOM     21  C   UNL     1       3.120   5.417  18.726  0.00  0.00    +0.000 C 
BRANCH  21  27
ATOM     22  C   UNL     1       1.538   2.574  21.597  0.00  0.00    +0.000 C 
ATOM     23  N   UNL     1       2.108   3.044  20.332  0.00  0.00    +0.000 NA
ATOM     24  C   UNL     1       2.327   1.911  19.421  0.00  0.00    +0.000 C 
ATOM     25  C   UNL     1       2.929   2.358  18.087  0.00  0.00    +0.000 C 
ATOM     26  C   UNL     1       2.099   3.465  17.438  0.00  0.00    +0.000 C 
ATOM     27  C   UNL     1       1.847   4.622  18.411  0.00  0.00    +0.000 C 
ATOM     28  C   UNL     1       1.240   4.060  19.715  0.00  0.00    +0.000 C 
ENDBRANCH  21  27
ENDBRANCH  19  21
ENDBRANCH   1  19
TORSDOF 5
ENDMDL
