MODEL 1
REMARK VINA RESULT:      -7.0      0.000      0.000
REMARK  Name = 
REMARK  14 active torsions:
REMARK  status: ('A' for Active; 'I' for Inactive)
REMARK    1  A    between atoms: C_1  and  C_2
REMARK    2  A    between atoms: C_2  and  N_3
REMARK    3  A    between atoms: N_3  and  C_4
REMARK    4  A    between atoms: N_3  and  C_6
REMARK    5  A    between atoms: C_4  and  C_5
REMARK    6  A    between atoms: C_6  and  C_7
REMARK    7  A    between atoms: C_7  and  C_8
REMARK    8  A    between atoms: C_8  and  N_9
REMARK    9  A    between atoms: N_9  and  C_10
REMARK   10  A    between atoms: C_10  and  C_11
REMARK   11  A    between atoms: N_22  and  C_23
REMARK   12  A    between atoms: C_23  and  C_24
REMARK   13  A    between atoms: C_24  and  C_25
REMARK   14  A    between atoms: C_25  and  C_26
REMARK                            x       y       z     vdW  Elec       q    Type
REMARK                         _______ _______ _______ _____ _____    ______ ____
ROOT
ATOM      1  C   UNL     1       5.067   5.289  18.996  0.00  0.00    +0.000 A 
ATOM      2  N   UNL     1       6.165   5.645  19.739  0.00  0.00    +0.000 NA
ATOM      3  C   UNL     1       7.391   5.714  19.203  0.00  0.00    +0.000 A 
ATOM      4  C   UNL     1       7.652   5.452  17.881  0.00  0.00    +0.000 A 
ATOM      5  C   UNL     1       6.569   5.055  17.080  0.00  0.00    +0.000 A 
ATOM      6  C   UNL     1       6.507   4.733  15.697  0.00  0.00    +0.000 A 
ATOM      7  C   UNL     1       7.469   4.727  14.664  0.00  0.00    +0.000 A 
ATOM      8  C   UNL     1       7.103   4.335  13.375  0.00  0.00    +0.000 A 
ATOM      9  C   UNL     1       5.801   3.928  13.116  0.00  0.00    +0.000 A 
ATOM     10  C   UNL     1       4.832   3.918  14.126  0.00  0.00    +0.000 A 
ATOM     11  C   UNL     1       5.200   4.347  15.416  0.00  0.00    +0.000 A 
ATOM     12  N   UNL     1       4.473   4.463  16.598  0.00  0.00    +0.000 N 
ATOM     13  C   UNL     1       5.281   4.936  17.634  0.00  0.00    +0.000 A 
ENDROOT
BRANCH   1  14
ATOM     14  C   UNL     1       3.767   5.433  19.758  0.00  0.00    +0.000 C 
BRANCH  14  15
ATOM     15  N   UNL     1       3.111   6.748  19.768  0.00  0.00    +0.000 NA
ATOM     16  H   UNL     1       2.388   6.722  20.485  0.00  0.00    +0.000 HD
BRANCH  15  17
ATOM     17  C   UNL     1       2.509   7.133  18.489  0.00  0.00    +0.000 C 
BRANCH  17  18
ATOM     18  C   UNL     1       2.273   8.627  18.201  0.00  0.00    +0.000 C 
BRANCH  18  19
ATOM     19  C   UNL     1       1.016   9.195  18.883  0.00  0.00    +0.000 C 
BRANCH  19  20
ATOM     20  N   UNL     1       1.160   9.494  20.328  0.00  0.00    +0.000 NA
BRANCH  20  22
ATOM     21  C   UNL     1      -0.020  11.577  19.479  0.00  0.00    +0.000 C 
ATOM     22  C   UNL     1       0.817  10.910  20.572  0.00  0.00    +0.000 C 
ENDBRANCH  20  22
BRANCH  20  23
ATOM     23  C   UNL     1       0.428   8.563  21.203  0.00  0.00    +0.000 C 
ATOM     24  C   UNL     1      -0.250   9.185  22.422  0.00  0.00    +0.000 C 
ENDBRANCH  20  23
ENDBRANCH  19  20
ENDBRANCH  18  19
ENDBRANCH  17  18
ENDBRANCH  15  17
ENDBRANCH  14  15
ENDBRANCH   1  14
BRANCH  12  25
ATOM     25  C   UNL     1       3.119   3.928  16.708  0.00  0.00    +0.000 C 
BRANCH  25  26
ATOM     26  C   UNL     1       2.984   2.407  16.804  0.00  0.00    +0.000 C 
BRANCH  26  27
ATOM     27  C   UNL     1       3.515   1.718  18.074  0.00  0.00    +0.000 C 
BRANCH  27  28
ATOM     28  C   UNL     1       2.727   2.150  19.304  0.00  0.00    +0.000 A 
ATOM     29  C   UNL     1       1.380   2.532  19.181  0.00  0.00    +0.000 A 
ATOM     30  C   UNL     1       0.666   3.023  20.273  0.00  0.00    +0.000 A 
ATOM     31  C   UNL     1       1.271   3.103  21.523  0.00  0.00    +0.000 A 
ATOM     32  C   UNL     1       2.586   2.668  21.679  0.00  0.00    +0.000 A 
ATOM     33  C   UNL     1       3.310   2.193  20.579  0.00  0.00    +0.000 A 
ENDBRANCH  27  28
ENDBRANCH  26  27
ENDBRANCH  25  26
ENDBRANCH  12  25
TORSDOF 12
ENDMDL
MODEL 2
REMARK VINA RESULT:      -6.9      2.316      5.851
REMARK  Name = 
REMARK  14 active torsions:
REMARK  status: ('A' for Active; 'I' for Inactive)
REMARK    1  A    between atoms: C_1  and  C_2
REMARK    2  A    between atoms: C_2  and  N_3
REMARK    3  A    between atoms: N_3  and  C_4
REMARK    4  A    between atoms: N_3  and  C_6
REMARK    5  A    between atoms: C_4  and  C_5
REMARK    6  A    between atoms: C_6  and  C_7
REMARK    7  A    between atoms: C_7  and  C_8
REMARK    8  A    between atoms: C_8  and  N_9
REMARK    9  A    between atoms: N_9  and  C_10
REMARK   10  A    between atoms: C_10  and  C_11
REMARK   11  A    between atoms: N_22  and  C_23
REMARK   12  A    between atoms: C_23  and  C_24
REMARK   13  A    between atoms: C_24  and  C_25
REMARK   14  A    between atoms: C_25  and  C_26
REMARK                            x       y       z     vdW  Elec       q    Type
REMARK                         _______ _______ _______ _____ _____    ______ ____
ROOT
ATOM      1  C   UNL     1       1.774   6.682  20.360  0.00  0.00    +0.000 A 
ATOM      2  N   UNL     1       1.309   5.581  21.034  0.00  0.00    +0.000 NA
ATOM      3  C   UNL     1       1.624   4.334  20.658  0.00  0.00    +0.000 A 
ATOM      4  C   UNL     1       2.437   4.052  19.588  0.00  0.00    +0.000 A 
ATOM      5  C   UNL     1       2.919   5.142  18.844  0.00  0.00    +0.000 A 
ATOM      6  C   UNL     1       3.778   5.185  17.713  0.00  0.00    +0.000 A 
ATOM      7  C   UNL     1       4.454   4.188  16.976  0.00  0.00    +0.000 A 
ATOM      8  C   UNL     1       5.231   4.546  15.873  0.00  0.00    +0.000 A 
ATOM      9  C   UNL     1       5.317   5.877  15.485  0.00  0.00    +0.000 A 
ATOM     10  C   UNL     1       4.648   6.881  16.194  0.00  0.00    +0.000 A 
ATOM     11  C   UNL     1       3.894   6.517  17.328  0.00  0.00    +0.000 A 
ATOM     12  N   UNL     1       3.148   7.274  18.227  0.00  0.00    +0.000 N 
ATOM     13  C   UNL     1       2.566   6.456  19.199  0.00  0.00    +0.000 A 
ENDROOT
BRANCH   1  14
ATOM     14  C   UNL     1       1.430   7.985  21.050  0.00  0.00    +0.000 C 
BRANCH  14  15
ATOM     15  N   UNL     1       0.019   8.388  21.108  0.00  0.00    +0.000 NA
ATOM     16  H   UNL     1      -0.069   9.262  20.592  0.00  0.00    +0.000 HD
BRANCH  15  17
ATOM     17  C   UNL     1      -0.504   8.573  22.464  0.00  0.00    +0.000 C 
BRANCH  17  18
ATOM     18  C   UNL     1      -0.336   9.945  23.143  0.00  0.00    +0.000 C 
BRANCH  18  19
ATOM     19  C   UNL     1      -0.304  11.122  22.152  0.00  0.00    +0.000 C 
BRANCH  19  20
ATOM     20  N   UNL     1      -0.969  12.362  22.621  0.00  0.00    +0.000 NA
BRANCH  20  22
ATOM     21  C   UNL     1       0.923  13.215  21.157  0.00  0.00    +0.000 C 
ATOM     22  C   UNL     1      -0.268  13.536  22.061  0.00  0.00    +0.000 C 
ENDBRANCH  20  22
BRANCH  20  23
ATOM     23  C   UNL     1      -2.421  12.387  22.376  0.00  0.00    +0.000 C 
ATOM     24  C   UNL     1      -3.309  12.290  23.615  0.00  0.00    +0.000 C 
ENDBRANCH  20  23
ENDBRANCH  19  20
ENDBRANCH  18  19
ENDBRANCH  17  18
ENDBRANCH  15  17
ENDBRANCH  14  15
ENDBRANCH   1  14
BRANCH  12  25
ATOM     25  C   UNL     1       2.876   8.687  17.983  0.00  0.00    +0.000 C 
BRANCH  25  26
ATOM     26  C   UNL     1       1.417   9.078  17.741  0.00  0.00    +0.000 C 
BRANCH  26  27
ATOM     27  C   UNL     1       0.922  10.406  18.341  0.00  0.00    +0.000 C 
BRANCH  27  28
ATOM     28  C   UNL     1      -0.587  10.551  18.185  0.00  0.00    +0.000 A 
ATOM     29  C   UNL     1      -1.298   9.673  17.349  0.00  0.00    +0.000 A 
ATOM     30  C   UNL     1      -2.661   9.845  17.113  0.00  0.00    +0.000 A 
ATOM     31  C   UNL     1      -3.353  10.874  17.743  0.00  0.00    +0.000 A 
ATOM     32  C   UNL     1      -2.680  11.715  18.626  0.00  0.00    +0.000 A 
ATOM     33  C   UNL     1      -1.307  11.556  18.849  0.00  0.00    +0.000 A 
ENDBRANCH  27  28
ENDBRANCH  26  27
ENDBRANCH  25  26
ENDBRANCH  12  25
TORSDOF 12
ENDMDL
MODEL 3
REMARK VINA RESULT:      -6.9      3.304      7.288
REMARK  Name = 
REMARK  14 active torsions:
REMARK  status: ('A' for Active; 'I' for Inactive)
REMARK    1  A    between atoms: C_1  and  C_2
REMARK    2  A    between atoms: C_2  and  N_3
REMARK    3  A    between atoms: N_3  and  C_4
REMARK    4  A    between atoms: N_3  and  C_6
REMARK    5  A    between atoms: C_4  and  C_5
REMARK    6  A    between atoms: C_6  and  C_7
REMARK    7  A    between atoms: C_7  and  C_8
REMARK    8  A    between atoms: C_8  and  N_9
REMARK    9  A    between atoms: N_9  and  C_10
REMARK   10  A    between atoms: C_10  and  C_11
REMARK   11  A    between atoms: N_22  and  C_23
REMARK   12  A    between atoms: C_23  and  C_24
REMARK   13  A    between atoms: C_24  and  C_25
REMARK   14  A    between atoms: C_25  and  C_26
REMARK                            x       y       z     vdW  Elec       q    Type
REMARK                         _______ _______ _______ _____ _____    ______ ____
ROOT
ATOM      1  C   UNL     1       4.300   7.136  17.721  0.00  0.00    +0.000 A 
ATOM      2  N   UNL     1       3.512   8.258  17.648  0.00  0.00    +0.000 NA
ATOM      3  C   UNL     1       2.321   8.329  18.259  0.00  0.00    +0.000 A 
ATOM      4  C   UNL     1       1.798   7.307  19.012  0.00  0.00    +0.000 A 
ATOM      5  C   UNL     1       2.550   6.123  19.097  0.00  0.00    +0.000 A 
ATOM      6  C   UNL     1       2.297   4.912  19.796  0.00  0.00    +0.000 A 
ATOM      7  C   UNL     1       1.254   4.490  20.649  0.00  0.00    +0.000 A 
ATOM      8  C   UNL     1       1.273   3.201  21.185  0.00  0.00    +0.000 A 
ATOM      9  C   UNL     1       2.302   2.327  20.859  0.00  0.00    +0.000 A 
ATOM     10  C   UNL     1       3.342   2.721  20.010  0.00  0.00    +0.000 A 
ATOM     11  C   UNL     1       3.335   4.035  19.500  0.00  0.00    +0.000 A 
ATOM     12  N   UNL     1       4.220   4.709  18.663  0.00  0.00    +0.000 N 
ATOM     13  C   UNL     1       3.783   6.015  18.428  0.00  0.00    +0.000 A 
ENDROOT
BRANCH   1  14
ATOM     14  C   UNL     1       5.664   7.333  17.097  0.00  0.00    +0.000 C 
BRANCH  14  15
ATOM     15  N   UNL     1       6.844   7.249  17.968  0.00  0.00    +0.000 NA
ATOM     16  H   UNL     1       6.556   7.541  18.900  0.00  0.00    +0.000 HD
BRANCH  15  17
ATOM     17  C   UNL     1       7.977   8.071  17.534  0.00  0.00    +0.000 C 
BRANCH  17  18
ATOM     18  C   UNL     1       8.055   9.536  18.004  0.00  0.00    +0.000 C 
BRANCH  18  19
ATOM     19  C   UNL     1       9.119   9.778  19.088  0.00  0.00    +0.000 C 
BRANCH  19  20
ATOM     20  N   UNL     1       9.918  11.016  18.926  0.00  0.00    +0.000 NA
BRANCH  20  22
ATOM     21  C   UNL     1       9.815  13.042  17.396  0.00  0.00    +0.000 C 
ATOM     22  C   UNL     1       9.077  12.066  18.314  0.00  0.00    +0.000 C 
ENDBRANCH  20  22
BRANCH  20  23
ATOM     23  C   UNL     1      10.586  11.459  20.161  0.00  0.00    +0.000 C 
ATOM     24  C   UNL     1      12.015  11.976  20.001  0.00  0.00    +0.000 C 
ENDBRANCH  20  23
ENDBRANCH  19  20
ENDBRANCH  18  19
ENDBRANCH  17  18
ENDBRANCH  15  17
ENDBRANCH  14  15
ENDBRANCH   1  14
BRANCH  12  25
ATOM     25  C   UNL     1       5.306   4.006  17.986  0.00  0.00    +0.000 C 
BRANCH  25  26
ATOM     26  C   UNL     1       5.068   3.606  16.529  0.00  0.00    +0.000 C 
BRANCH  26  27
ATOM     27  C   UNL     1       4.976   4.731  15.483  0.00  0.00    +0.000 C 
BRANCH  27  28
ATOM     28  C   UNL     1       5.772   4.384  14.231  0.00  0.00    +0.000 A 
ATOM     29  C   UNL     1       7.024   4.980  14.002  0.00  0.00    +0.000 A 
ATOM     30  C   UNL     1       7.727   4.753  12.820  0.00  0.00    +0.000 A 
ATOM     31  C   UNL     1       7.213   3.891  11.857  0.00  0.00    +0.000 A 
ATOM     32  C   UNL     1       6.004   3.240  12.094  0.00  0.00    +0.000 A 
ATOM     33  C   UNL     1       5.287   3.481  13.272  0.00  0.00    +0.000 A 
ENDBRANCH  27  28
ENDBRANCH  26  27
ENDBRANCH  25  26
ENDBRANCH  12  25
TORSDOF 12
ENDMDL
MODEL 4
REMARK VINA RESULT:      -6.8      0.575      1.335
REMARK  Name = 
REMARK  14 active torsions:
REMARK  status: ('A' for Active; 'I' for Inactive)
REMARK    1  A    between atoms: C_1  and  C_2
REMARK    2  A    between atoms: C_2  and  N_3
REMARK    3  A    between atoms: N_3  and  C_4
REMARK    4  A    between atoms: N_3  and  C_6
REMARK    5  A    between atoms: C_4  and  C_5
REMARK    6  A    between atoms: C_6  and  C_7
REMARK    7  A    between atoms: C_7  and  C_8
REMARK    8  A    between atoms: C_8  and  N_9
REMARK    9  A    between atoms: N_9  and  C_10
REMARK   10  A    between atoms: C_10  and  C_11
REMARK   11  A    between atoms: N_22  and  C_23
REMARK   12  A    between atoms: C_23  and  C_24
REMARK   13  A    between atoms: C_24  and  C_25
REMARK   14  A    between atoms: C_25  and  C_26
REMARK                            x       y       z     vdW  Elec       q    Type
REMARK                         _______ _______ _______ _____ _____    ______ ____
ROOT
ATOM      1  C   UNL     1       5.079   5.326  18.947  0.00  0.00    +0.000 A 
ATOM      2  N   UNL     1       6.178   5.693  19.683  0.00  0.00    +0.000 NA
ATOM      3  C   UNL     1       7.403   5.758  19.143  0.00  0.00    +0.000 A 
ATOM      4  C   UNL     1       7.661   5.481  17.824  0.00  0.00    +0.000 A 
ATOM      5  C   UNL     1       6.577   5.072  17.030  0.00  0.00    +0.000 A 
ATOM      6  C   UNL     1       6.513   4.734  15.651  0.00  0.00    +0.000 A 
ATOM      7  C   UNL     1       7.472   4.717  14.616  0.00  0.00    +0.000 A 
ATOM      8  C   UNL     1       7.104   4.309  13.333  0.00  0.00    +0.000 A 
ATOM      9  C   UNL     1       5.802   3.896  13.081  0.00  0.00    +0.000 A 
ATOM     10  C   UNL     1       4.836   3.896  14.094  0.00  0.00    +0.000 A 
ATOM     11  C   UNL     1       5.206   4.341  15.378  0.00  0.00    +0.000 A 
ATOM     12  N   UNL     1       4.481   4.470  16.560  0.00  0.00    +0.000 N 
ATOM     13  C   UNL     1       5.291   4.957  17.589  0.00  0.00    +0.000 A 
ENDROOT
BRANCH   1  14
ATOM     14  C   UNL     1       3.781   5.477  19.710  0.00  0.00    +0.000 C 
BRANCH  14  15
ATOM     15  N   UNL     1       2.606   5.982  18.988  0.00  0.00    +0.000 NA
ATOM     16  H   UNL     1       2.685   5.672  18.021  0.00  0.00    +0.000 HD
BRANCH  15  17
ATOM     17  C   UNL     1       2.459   7.439  19.015  0.00  0.00    +0.000 C 
BRANCH  17  18
ATOM     18  C   UNL     1       1.695   8.087  20.186  0.00  0.00    +0.000 C 
BRANCH  18  19
ATOM     19  C   UNL     1       0.992   9.402  19.808  0.00  0.00    +0.000 C 
BRANCH  19  20
ATOM     20  N   UNL     1      -0.080   9.836  20.736  0.00  0.00    +0.000 NA
BRANCH  20  22
ATOM     21  C   UNL     1      -0.254   9.553  23.254  0.00  0.00    +0.000 C 
ATOM     22  C   UNL     1      -0.151   8.898  21.876  0.00  0.00    +0.000 C 
ENDBRANCH  20  22
BRANCH  20  23
ATOM     23  C   UNL     1       0.028  11.244  21.153  0.00  0.00    +0.000 C 
ATOM     24  C   UNL     1       0.186  12.265  20.027  0.00  0.00    +0.000 C 
ENDBRANCH  20  23
ENDBRANCH  19  20
ENDBRANCH  18  19
ENDBRANCH  17  18
ENDBRANCH  15  17
ENDBRANCH  14  15
ENDBRANCH   1  14
BRANCH  12  25
ATOM     25  C   UNL     1       3.129   3.933  16.680  0.00  0.00    +0.000 C 
BRANCH  25  26
ATOM     26  C   UNL     1       2.997   2.414  16.798  0.00  0.00    +0.000 C 
BRANCH  26  27
ATOM     27  C   UNL     1       3.540   1.744  18.073  0.00  0.00    +0.000 C 
BRANCH  27  28
ATOM     28  C   UNL     1       2.747   2.176  19.300  0.00  0.00    +0.000 A 
ATOM     29  C   UNL     1       1.403   2.564  19.172  0.00  0.00    +0.000 A 
ATOM     30  C   UNL     1       0.685   3.055  20.262  0.00  0.00    +0.000 A 
ATOM     31  C   UNL     1       1.284   3.128  21.515  0.00  0.00    +0.000 A 
ATOM     32  C   UNL     1       2.596   2.686  21.677  0.00  0.00    +0.000 A 
ATOM     33  C   UNL     1       3.324   2.211  20.579  0.00  0.00    +0.000 A 
ENDBRANCH  27  28
ENDBRANCH  26  27
ENDBRANCH  25  26
ENDBRANCH  12  25
TORSDOF 12
ENDMDL
MODEL 5
REMARK VINA RESULT:      -6.8      3.610      6.958
REMARK  Name = 
REMARK  14 active torsions:
REMARK  status: ('A' for Active; 'I' for Inactive)
REMARK    1  A    between atoms: C_1  and  C_2
REMARK    2  A    between atoms: C_2  and  N_3
REMARK    3  A    between atoms: N_3  and  C_4
REMARK    4  A    between atoms: N_3  and  C_6
REMARK    5  A    between atoms: C_4  and  C_5
REMARK    6  A    between atoms: C_6  and  C_7
REMARK    7  A    between atoms: C_7  and  C_8
REMARK    8  A    between atoms: C_8  and  N_9
REMARK    9  A    between atoms: N_9  and  C_10
REMARK   10  A    between atoms: C_10  and  C_11
REMARK   11  A    between atoms: N_22  and  C_23
REMARK   12  A    between atoms: C_23  and  C_24
REMARK   13  A    between atoms: C_24  and  C_25
REMARK   14  A    between atoms: C_25  and  C_26
REMARK                            x       y       z     vdW  Elec       q    Type
REMARK                         _______ _______ _______ _____ _____    ______ ____
ROOT
ATOM      1  C   UNL     1       5.856   6.122  16.978  0.00  0.00    +0.000 A 
ATOM      2  N   UNL     1       6.698   5.524  16.073  0.00  0.00    +0.000 NA
ATOM      3  C   UNL     1       6.495   4.274  15.635  0.00  0.00    +0.000 A 
ATOM      4  C   UNL     1       5.437   3.497  16.037  0.00  0.00    +0.000 A 
ATOM      5  C   UNL     1       4.559   4.049  16.984  0.00  0.00    +0.000 A 
ATOM      6  C   UNL     1       3.383   3.517  17.578  0.00  0.00    +0.000 A 
ATOM      7  C   UNL     1       2.684   2.302  17.415  0.00  0.00    +0.000 A 
ATOM      8  C   UNL     1       1.539   2.051  18.173  0.00  0.00    +0.000 A 
ATOM      9  C   UNL     1       1.104   2.983  19.105  0.00  0.00    +0.000 A 
ATOM     10  C   UNL     1       1.786   4.191  19.291  0.00  0.00    +0.000 A 
ATOM     11  C   UNL     1       2.920   4.453  18.498  0.00  0.00    +0.000 A 
ATOM     12  N   UNL     1       3.779   5.548  18.441  0.00  0.00    +0.000 N 
ATOM     13  C   UNL     1       4.779   5.344  17.486  0.00  0.00    +0.000 A 
ENDROOT
BRANCH   1  14
ATOM     14  C   UNL     1       6.179   7.583  17.207  0.00  0.00    +0.000 C 
BRANCH  14  15
ATOM     15  N   UNL     1       7.434   7.917  17.893  0.00  0.00    +0.000 NA
ATOM     16  H   UNL     1       7.252   7.880  18.895  0.00  0.00    +0.000 HD
BRANCH  15  17
ATOM     17  C   UNL     1       7.980   9.233  17.551  0.00  0.00    +0.000 C 
BRANCH  17  18
ATOM     18  C   UNL     1       8.900   9.941  18.562  0.00  0.00    +0.000 C 
BRANCH  18  19
ATOM     19  C   UNL     1       9.005  11.460  18.340  0.00  0.00    +0.000 C 
BRANCH  19  20
ATOM     20  N   UNL     1      10.254  12.088  18.834  0.00  0.00    +0.000 NA
BRANCH  20  22
ATOM     21  C   UNL     1       9.964  12.415  21.337  0.00  0.00    +0.000 C 
ATOM     22  C   UNL     1      10.550  11.586  20.193  0.00  0.00    +0.000 C 
ENDBRANCH  20  22
BRANCH  20  23
ATOM     23  C   UNL     1      11.391  11.957  17.910  0.00  0.00    +0.000 C 
ATOM     24  C   UNL     1      11.597  13.115  16.934  0.00  0.00    +0.000 C 
ENDBRANCH  20  23
ENDBRANCH  19  20
ENDBRANCH  18  19
ENDBRANCH  17  18
ENDBRANCH  15  17
ENDBRANCH  14  15
ENDBRANCH   1  14
BRANCH  12  25
ATOM     25  C   UNL     1       3.710   6.616  19.433  0.00  0.00    +0.000 C 
BRANCH  25  26
ATOM     26  C   UNL     1       2.403   7.410  19.504  0.00  0.00    +0.000 C 
BRANCH  26  27
ATOM     27  C   UNL     1       1.668   7.461  20.854  0.00  0.00    +0.000 C 
BRANCH  27  28
ATOM     28  C   UNL     1       0.933   8.784  21.030  0.00  0.00    +0.000 A 
ATOM     29  C   UNL     1       0.417   9.143  22.287  0.00  0.00    +0.000 A 
ATOM     30  C   UNL     1      -0.343  10.300  22.452  0.00  0.00    +0.000 A 
ATOM     31  C   UNL     1      -0.566  11.148  21.372  0.00  0.00    +0.000 A 
ATOM     32  C   UNL     1      -0.008  10.842  20.132  0.00  0.00    +0.000 A 
ATOM     33  C   UNL     1       0.738   9.670  19.960  0.00  0.00    +0.000 A 
ENDBRANCH  27  28
ENDBRANCH  26  27
ENDBRANCH  25  26
ENDBRANCH  12  25
TORSDOF 12
ENDMDL
MODEL 6
REMARK VINA RESULT:      -6.7      2.511      5.886
REMARK  Name = 
REMARK  14 active torsions:
REMARK  status: ('A' for Active; 'I' for Inactive)
REMARK    1  A    between atoms: C_1  and  C_2
REMARK    2  A    between atoms: C_2  and  N_3
REMARK    3  A    between atoms: N_3  and  C_4
REMARK    4  A    between atoms: N_3  and  C_6
REMARK    5  A    between atoms: C_4  and  C_5
REMARK    6  A    between atoms: C_6  and  C_7
REMARK    7  A    between atoms: C_7  and  C_8
REMARK    8  A    between atoms: C_8  and  N_9
REMARK    9  A    between atoms: N_9  and  C_10
REMARK   10  A    between atoms: C_10  and  C_11
REMARK   11  A    between atoms: N_22  and  C_23
REMARK   12  A    between atoms: C_23  and  C_24
REMARK   13  A    between atoms: C_24  and  C_25
REMARK   14  A    between atoms: C_25  and  C_26
REMARK                            x       y       z     vdW  Elec       q    Type
REMARK                         _______ _______ _______ _____ _____    ______ ____
ROOT
ATOM      1  C   UNL     1       1.954   6.427  20.214  0.00  0.00    +0.000 A 
ATOM      2  N   UNL     1       1.402   5.336  20.839  0.00  0.00    +0.000 NA
ATOM      3  C   UNL     1       1.629   4.086  20.413  0.00  0.00    +0.000 A 
ATOM      4  C   UNL     1       2.430   3.789  19.339  0.00  0.00    +0.000 A 
ATOM      5  C   UNL     1       2.998   4.869  18.644  0.00  0.00    +0.000 A 
ATOM      6  C   UNL     1       3.869   4.895  17.521  0.00  0.00    +0.000 A 
ATOM      7  C   UNL     1       4.478   3.882  16.749  0.00  0.00    +0.000 A 
ATOM      8  C   UNL     1       5.290   4.226  15.667  0.00  0.00    +0.000 A 
ATOM      9  C   UNL     1       5.478   5.561  15.335  0.00  0.00    +0.000 A 
ATOM     10  C   UNL     1       4.878   6.582  16.081  0.00  0.00    +0.000 A 
ATOM     11  C   UNL     1       4.087   6.229  17.193  0.00  0.00    +0.000 A 
ATOM     12  N   UNL     1       3.389   7.002  18.118  0.00  0.00    +0.000 N 
ATOM     13  C   UNL     1       2.739   6.191  19.051  0.00  0.00    +0.000 A 
ENDROOT
BRANCH   1  14
ATOM     14  C   UNL     1       1.700   7.722  20.955  0.00  0.00    +0.000 C 
BRANCH  14  15
ATOM     15  N   UNL     1       0.309   8.158  21.134  0.00  0.00    +0.000 NA
ATOM     16  H   UNL     1      -0.005   8.546  20.246  0.00  0.00    +0.000 HD
BRANCH  15  17
ATOM     17  C   UNL     1       0.117   9.154  22.190  0.00  0.00    +0.000 C 
BRANCH  17  18
ATOM     18  C   UNL     1      -0.765  10.383  21.900  0.00  0.00    +0.000 C 
BRANCH  18  19
ATOM     19  C   UNL     1      -1.079  11.224  23.150  0.00  0.00    +0.000 C 
BRANCH  19  20
ATOM     20  N   UNL     1      -1.960  12.394  22.922  0.00  0.00    +0.000 NA
BRANCH  20  22
ATOM     21  C   UNL     1      -1.763  14.557  24.239  0.00  0.00    +0.000 C 
ATOM     22  C   UNL     1      -1.195  13.637  23.158  0.00  0.00    +0.000 C 
ENDBRANCH  20  22
BRANCH  20  23
ATOM     23  C   UNL     1      -2.646  12.377  21.619  0.00  0.00    +0.000 C 
ATOM     24  C   UNL     1      -4.055  12.967  21.597  0.00  0.00    +0.000 C 
ENDBRANCH  20  23
ENDBRANCH  19  20
ENDBRANCH  18  19
ENDBRANCH  17  18
ENDBRANCH  15  17
ENDBRANCH  14  15
ENDBRANCH   1  14
BRANCH  12  25
ATOM     25  C   UNL     1       3.225   8.440  17.930  0.00  0.00    +0.000 C 
BRANCH  25  26
ATOM     26  C   UNL     1       1.798   8.950  17.714  0.00  0.00    +0.000 C 
BRANCH  26  27
ATOM     27  C   UNL     1       1.385  10.247  18.431  0.00  0.00    +0.000 C 
BRANCH  27  28
ATOM     28  C   UNL     1      -0.085  10.565  18.187  0.00  0.00    +0.000 A 
ATOM     29  C   UNL     1      -0.935   9.593  17.631  0.00  0.00    +0.000 A 
ATOM     30  C   UNL     1      -2.258   9.890  17.308  0.00  0.00    +0.000 A 
ATOM     31  C   UNL     1      -2.774  11.154  17.574  0.00  0.00    +0.000 A 
ATOM     32  C   UNL     1      -1.966  12.112  18.184  0.00  0.00    +0.000 A 
ATOM     33  C   UNL     1      -0.631  11.821  18.491  0.00  0.00    +0.000 A 
ENDBRANCH  27  28
ENDBRANCH  26  27
ENDBRANCH  25  26
ENDBRANCH  12  25
TORSDOF 12
ENDMDL
MODEL 7
REMARK VINA RESULT:      -6.7      0.658      1.178
REMARK  Name = 
REMARK  14 active torsions:
REMARK  status: ('A' for Active; 'I' for Inactive)
REMARK    1  A    between atoms: C_1  and  C_2
REMARK    2  A    between atoms: C_2  and  N_3
REMARK    3  A    between atoms: N_3  and  C_4
REMARK    4  A    between atoms: N_3  and  C_6
REMARK    5  A    between atoms: C_4  and  C_5
REMARK    6  A    between atoms: C_6  and  C_7
REMARK    7  A    between atoms: C_7  and  C_8
REMARK    8  A    between atoms: C_8  and  N_9
REMARK    9  A    between atoms: N_9  and  C_10
REMARK   10  A    between atoms: C_10  and  C_11
REMARK   11  A    between atoms: N_22  and  C_23
REMARK   12  A    between atoms: C_23  and  C_24
REMARK   13  A    between atoms: C_24  and  C_25
REMARK   14  A    between atoms: C_25  and  C_26
REMARK                            x       y       z     vdW  Elec       q    Type
REMARK                         _______ _______ _______ _____ _____    ______ ____
ROOT
ATOM      1  C   UNL     1       5.048   5.320  18.953  0.00  0.00    +0.000 A 
ATOM      2  N   UNL     1       6.137   5.695  19.701  0.00  0.00    +0.000 NA
ATOM      3  C   UNL     1       7.366   5.775  19.172  0.00  0.00    +0.000 A 
ATOM      4  C   UNL     1       7.639   5.505  17.854  0.00  0.00    +0.000 A 
ATOM      5  C   UNL     1       6.565   5.088  17.049  0.00  0.00    +0.000 A 
ATOM      6  C   UNL     1       6.517   4.755  15.669  0.00  0.00    +0.000 A 
ATOM      7  C   UNL     1       7.486   4.751  14.642  0.00  0.00    +0.000 A 
ATOM      8  C   UNL     1       7.133   4.346  13.354  0.00  0.00    +0.000 A 
ATOM      9  C   UNL     1       5.837   3.921  13.089  0.00  0.00    +0.000 A 
ATOM     10  C   UNL     1       4.862   3.907  14.093  0.00  0.00    +0.000 A 
ATOM     11  C   UNL     1       5.217   4.351  15.383  0.00  0.00    +0.000 A 
ATOM     12  N   UNL     1       4.479   4.469  16.559  0.00  0.00    +0.000 N 
ATOM     13  C   UNL     1       5.276   4.959  17.596  0.00  0.00    +0.000 A 
ENDROOT
BRANCH   1  14
ATOM     14  C   UNL     1       3.742   5.456  19.706  0.00  0.00    +0.000 C 
BRANCH  14  15
ATOM     15  N   UNL     1       3.070   6.762  19.701  0.00  0.00    +0.000 NA
ATOM     16  H   UNL     1       2.112   6.613  20.011  0.00  0.00    +0.000 HD
BRANCH  15  17
ATOM     17  C   UNL     1       3.056   7.430  18.397  0.00  0.00    +0.000 C 
BRANCH  17  18
ATOM     18  C   UNL     1       1.766   8.134  17.937  0.00  0.00    +0.000 C 
BRANCH  18  19
ATOM     19  C   UNL     1       1.859   9.669  17.963  0.00  0.00    +0.000 C 
BRANCH  19  20
ATOM     20  N   UNL     1       0.917  10.346  18.886  0.00  0.00    +0.000 NA
BRANCH  20  22
ATOM     21  C   UNL     1      -1.213  11.516  18.147  0.00  0.00    +0.000 C 
ATOM     22  C   UNL     1      -0.461  10.203  18.372  0.00  0.00    +0.000 C 
ENDBRANCH  20  22
BRANCH  20  23
ATOM     23  C   UNL     1       1.056   9.926  20.290  0.00  0.00    +0.000 C 
ATOM     24  C   UNL     1      -0.180   9.289  20.923  0.00  0.00    +0.000 C 
ENDBRANCH  20  23
ENDBRANCH  19  20
ENDBRANCH  18  19
ENDBRANCH  17  18
ENDBRANCH  15  17
ENDBRANCH  14  15
ENDBRANCH   1  14
BRANCH  12  25
ATOM     25  C   UNL     1       3.132   3.918  16.664  0.00  0.00    +0.000 C 
BRANCH  25  26
ATOM     26  C   UNL     1       3.015   2.398  16.798  0.00  0.00    +0.000 C 
BRANCH  26  27
ATOM     27  C   UNL     1       3.535   1.750  18.093  0.00  0.00    +0.000 C 
BRANCH  27  28
ATOM     28  C   UNL     1       2.739   2.224  19.302  0.00  0.00    +0.000 A 
ATOM     29  C   UNL     1       3.341   2.264  20.572  0.00  0.00    +0.000 A 
ATOM     30  C   UNL     1       2.607   2.600  21.709  0.00  0.00    +0.000 A 
ATOM     31  C   UNL     1       1.265   2.945  21.595  0.00  0.00    +0.000 A 
ATOM     32  C   UNL     1       0.666   2.974  20.337  0.00  0.00    +0.000 A 
ATOM     33  C   UNL     1       1.397   2.618  19.197  0.00  0.00    +0.000 A 
ENDBRANCH  27  28
ENDBRANCH  26  27
ENDBRANCH  25  26
ENDBRANCH  12  25
TORSDOF 12
ENDMDL
MODEL 8
REMARK VINA RESULT:      -6.7      3.636      6.513
REMARK  Name = 
REMARK  14 active torsions:
REMARK  status: ('A' for Active; 'I' for Inactive)
REMARK    1  A    between atoms: C_1  and  C_2
REMARK    2  A    between atoms: C_2  and  N_3
REMARK    3  A    between atoms: N_3  and  C_4
REMARK    4  A    between atoms: N_3  and  C_6
REMARK    5  A    between atoms: C_4  and  C_5
REMARK    6  A    between atoms: C_6  and  C_7
REMARK    7  A    between atoms: C_7  and  C_8
REMARK    8  A    between atoms: C_8  and  N_9
REMARK    9  A    between atoms: N_9  and  C_10
REMARK   10  A    between atoms: C_10  and  C_11
REMARK   11  A    between atoms: N_22  and  C_23
REMARK   12  A    between atoms: C_23  and  C_24
REMARK   13  A    between atoms: C_24  and  C_25
REMARK   14  A    between atoms: C_25  and  C_26
REMARK                            x       y       z     vdW  Elec       q    Type
REMARK                         _______ _______ _______ _____ _____    ______ ____
ROOT
ATOM      1  C   UNL     1       6.099   6.221  17.001  0.00  0.00    +0.000 A 
ATOM      2  N   UNL     1       7.014   5.640  16.157  0.00  0.00    +0.000 NA
ATOM      3  C   UNL     1       6.869   4.385  15.711  0.00  0.00    +0.000 A 
ATOM      4  C   UNL     1       5.803   3.585  16.042  0.00  0.00    +0.000 A 
ATOM      5  C   UNL     1       4.850   4.119  16.925  0.00  0.00    +0.000 A 
ATOM      6  C   UNL     1       3.648   3.563  17.440  0.00  0.00    +0.000 A 
ATOM      7  C   UNL     1       2.989   2.332  17.232  0.00  0.00    +0.000 A 
ATOM      8  C   UNL     1       1.801   2.056  17.911  0.00  0.00    +0.000 A 
ATOM      9  C   UNL     1       1.283   2.980  18.809  0.00  0.00    +0.000 A 
ATOM     10  C   UNL     1       1.923   4.203  19.037  0.00  0.00    +0.000 A 
ATOM     11  C   UNL     1       3.104   4.489  18.322  0.00  0.00    +0.000 A 
ATOM     12  N   UNL     1       3.940   5.603  18.320  0.00  0.00    +0.000 N 
ATOM     13  C   UNL     1       5.007   5.420  17.437  0.00  0.00    +0.000 A 
ENDROOT
BRANCH   1  14
ATOM     14  C   UNL     1       6.373   7.689  17.247  0.00  0.00    +0.000 C 
BRANCH  14  15
ATOM     15  N   UNL     1       7.769   8.117  17.408  0.00  0.00    +0.000 NA
ATOM     16  H   UNL     1       8.188   7.525  18.123  0.00  0.00    +0.000 HD
BRANCH  15  17
ATOM     17  C   UNL     1       7.932   9.522  17.789  0.00  0.00    +0.000 C 
BRANCH  17  18
ATOM     18  C   UNL     1       9.057   9.899  18.771  0.00  0.00    +0.000 C 
BRANCH  18  19
ATOM     19  C   UNL     1      10.006  10.984  18.231  0.00  0.00    +0.000 C 
BRANCH  19  20
ATOM     20  N   UNL     1       9.764  12.352  18.748  0.00  0.00    +0.000 NA
BRANCH  20  22
ATOM     21  C   UNL     1       7.940  14.068  18.327  0.00  0.00    +0.000 C 
ATOM     22  C   UNL     1       8.997  13.125  17.750  0.00  0.00    +0.000 C 
ENDBRANCH  20  22
BRANCH  20  23
ATOM     23  C   UNL     1       9.160  12.382  20.090  0.00  0.00    +0.000 C 
ATOM     24  C   UNL     1      10.056  12.896  21.216  0.00  0.00    +0.000 C 
ENDBRANCH  20  23
ENDBRANCH  19  20
ENDBRANCH  18  19
ENDBRANCH  17  18
ENDBRANCH  15  17
ENDBRANCH  14  15
ENDBRANCH   1  14
BRANCH  12  25
ATOM     25  C   UNL     1       3.779   6.671  19.302  0.00  0.00    +0.000 C 
BRANCH  25  26
ATOM     26  C   UNL     1       2.415   7.362  19.355  0.00  0.00    +0.000 C 
BRANCH  26  27
ATOM     27  C   UNL     1       1.674   7.383  20.703  0.00  0.00    +0.000 C 
BRANCH  27  28
ATOM     28  C   UNL     1       0.908   8.687  20.888  0.00  0.00    +0.000 A 
ATOM     29  C   UNL     1       0.878   9.641  19.857  0.00  0.00    +0.000 A 
ATOM     30  C   UNL     1       0.267  10.882  20.037  0.00  0.00    +0.000 A 
ATOM     31  C   UNL     1      -0.367  11.178  21.239  0.00  0.00    +0.000 A 
ATOM     32  C   UNL     1      -0.405  10.221  22.250  0.00  0.00    +0.000 A 
ATOM     33  C   UNL     1       0.226   8.982  22.078  0.00  0.00    +0.000 A 
ENDBRANCH  27  28
ENDBRANCH  26  27
ENDBRANCH  25  26
ENDBRANCH  12  25
TORSDOF 12
ENDMDL
MODEL 9
REMARK VINA RESULT:      -6.6      3.667      6.706
REMARK  Name = 
REMARK  14 active torsions:
REMARK  status: ('A' for Active; 'I' for Inactive)
REMARK    1  A    between atoms: C_1  and  C_2
REMARK    2  A    between atoms: C_2  and  N_3
REMARK    3  A    between atoms: N_3  and  C_4
REMARK    4  A    between atoms: N_3  and  C_6
REMARK    5  A    between atoms: C_4  and  C_5
REMARK    6  A    between atoms: C_6  and  C_7
REMARK    7  A    between atoms: C_7  and  C_8
REMARK    8  A    between atoms: C_8  and  N_9
REMARK    9  A    between atoms: N_9  and  C_10
REMARK   10  A    between atoms: C_10  and  C_11
REMARK   11  A    between atoms: N_22  and  C_23
REMARK   12  A    between atoms: C_23  and  C_24
REMARK   13  A    between atoms: C_24  and  C_25
REMARK   14  A    between atoms: C_25  and  C_26
REMARK                            x       y       z     vdW  Elec       q    Type
REMARK                         _______ _______ _______ _____ _____    ______ ____
ROOT
ATOM      1  C   UNL     1       6.123   6.113  16.869  0.00  0.00    +0.000 A 
ATOM      2  N   UNL     1       7.022   5.538  16.005  0.00  0.00    +0.000 NA
ATOM      3  C   UNL     1       6.890   4.274  15.582  0.00  0.00    +0.000 A 
ATOM      4  C   UNL     1       5.852   3.457  15.958  0.00  0.00    +0.000 A 
ATOM      5  C   UNL     1       4.917   3.985  16.865  0.00  0.00    +0.000 A 
ATOM      6  C   UNL     1       3.745   3.411  17.426  0.00  0.00    +0.000 A 
ATOM      7  C   UNL     1       3.105   2.164  17.257  0.00  0.00    +0.000 A 
ATOM      8  C   UNL     1       1.945   1.875  17.978  0.00  0.00    +0.000 A 
ATOM      9  C   UNL     1       1.437   2.801  18.879  0.00  0.00    +0.000 A 
ATOM     10  C   UNL     1       2.059   4.040  19.069  0.00  0.00    +0.000 A 
ATOM     11  C   UNL     1       3.209   4.340  18.312  0.00  0.00    +0.000 A 
ATOM     12  N   UNL     1       4.021   5.470  18.267  0.00  0.00    +0.000 N 
ATOM     13  C   UNL     1       5.063   5.296  17.353  0.00  0.00    +0.000 A 
ENDROOT
BRANCH   1  14
ATOM     14  C   UNL     1       6.374   7.590  17.085  0.00  0.00    +0.000 C 
BRANCH  14  15
ATOM     15  N   UNL     1       7.745   8.024  17.385  0.00  0.00    +0.000 NA
ATOM     16  H   UNL     1       8.087   7.447  18.151  0.00  0.00    +0.000 HD
BRANCH  15  17
ATOM     17  C   UNL     1       7.866   9.436  17.754  0.00  0.00    +0.000 C 
BRANCH  17  18
ATOM     18  C   UNL     1       8.967   9.853  18.747  0.00  0.00    +0.000 C 
BRANCH  18  19
ATOM     19  C   UNL     1       9.795  11.061  18.275  0.00  0.00    +0.000 C 
BRANCH  19  20
ATOM     20  N   UNL     1       9.237  12.388  18.629  0.00  0.00    +0.000 NA
BRANCH  20  22
ATOM     21  C   UNL     1      10.926  12.908  20.454  0.00  0.00    +0.000 C 
ATOM     22  C   UNL     1      10.328  13.270  19.094  0.00  0.00    +0.000 C 
ENDBRANCH  20  22
BRANCH  20  23
ATOM     23  C   UNL     1       8.420  12.992  17.564  0.00  0.00    +0.000 C 
ATOM     24  C   UNL     1       7.572  14.196  17.973  0.00  0.00    +0.000 C 
ENDBRANCH  20  23
ENDBRANCH  19  20
ENDBRANCH  18  19
ENDBRANCH  17  18
ENDBRANCH  15  17
ENDBRANCH  14  15
ENDBRANCH   1  14
BRANCH  12  25
ATOM     25  C   UNL     1       3.870   6.549  19.238  0.00  0.00    +0.000 C 
BRANCH  25  26
ATOM     26  C   UNL     1       2.481   7.180  19.360  0.00  0.00    +0.000 C 
BRANCH  26  27
ATOM     27  C   UNL     1       2.131   8.332  18.401  0.00  0.00    +0.000 C 
BRANCH  27  28
ATOM     28  C   UNL     1       1.195   9.334  19.066  0.00  0.00    +0.000 A 
ATOM     29  C   UNL     1       0.868   9.200  20.426  0.00  0.00    +0.000 A 
ATOM     30  C   UNL     1      -0.061  10.045  21.033  0.00  0.00    +0.000 A 
ATOM     31  C   UNL     1      -0.651  11.071  20.302  0.00  0.00    +0.000 A 
ATOM     32  C   UNL     1      -0.292  11.260  18.969  0.00  0.00    +0.000 A 
ATOM     33  C   UNL     1       0.626  10.401  18.353  0.00  0.00    +0.000 A 
ENDBRANCH  27  28
ENDBRANCH  26  27
ENDBRANCH  25  26
ENDBRANCH  12  25
TORSDOF 12
ENDMDL
