MODEL 1
REMARK VINA RESULT:      -8.4      0.000      0.000
REMARK  Name = 
REMARK  9 active torsions:
REMARK  status: ('A' for Active; 'I' for Inactive)
REMARK    1  A    between atoms: C_1  and  C_2
REMARK    2  A    between atoms: N_4  and  C_5
REMARK    3  A    between atoms: C_8  and  N_9
REMARK    4  A    between atoms: N_9  and  C_10
REMARK    5  A    between atoms: C_10  and  C_11
REMARK    6  A    between atoms: C_16  and  C_18
REMARK    7  A    between atoms: C_18  and  C_19
REMARK    8  A    between atoms: C_18  and  O_20
REMARK    9  A    between atoms: O_20  and  C_21
REMARK                            x       y       z     vdW  Elec       q    Type
REMARK                         _______ _______ _______ _____ _____    ______ ____
ROOT
ATOM      1  N   UNL     1       4.037   5.708  17.565  0.00  0.00    +0.000 N 
ATOM      2  C   UNL     1       5.331   6.224  17.146  0.00  0.00    +0.000 C 
ATOM      3  O   UNL     1       5.673   7.410  17.180  0.00  0.00    +0.000 OA
ENDROOT
BRANCH   1   7
ATOM      4  C   UNL     1       1.618   8.573  19.768  0.00  0.00    +0.000 A 
ATOM      5  C   UNL     1       1.846   8.713  18.414  0.00  0.00    +0.000 A 
ATOM      6  C   UNL     1       2.565   7.737  17.702  0.00  0.00    +0.000 A 
ATOM      7  C   UNL     1       3.107   6.578  18.286  0.00  0.00    +0.000 A 
ATOM      8  C   UNL     1       2.704   6.385  19.609  0.00  0.00    +0.000 A 
ATOM      9  C   UNL     1       2.014   7.373  20.356  0.00  0.00    +0.000 A 
BRANCH   4  13
ATOM     10  C   UNL     1      -0.606  10.711  21.946  0.00  0.00    +0.000 C 
ATOM     11  C   UNL     1      -0.087   9.409  21.390  0.00  0.00    +0.000 C 
ATOM     12  O   UNL     1      -0.643   8.355  21.673  0.00  0.00    +0.000 OA
ATOM     13  N   UNL     1       1.020   9.572  20.570  0.00  0.00    +0.000 N 
ATOM     14  H   UNL     1       1.429  10.495  20.523  0.00  0.00    +0.000 HD
ENDBRANCH   4  13
ENDBRANCH   1   7
BRANCH   2  15
ATOM     15  C   UNL     1       6.438   5.202  16.658  0.00  0.00    +0.000 C 
ATOM     16  C   UNL     1       7.205   4.530  17.813  0.00  0.00    +0.000 C 
BRANCH  15  17
ATOM     17  O   UNL     1       7.378   5.573  15.653  0.00  0.00    +0.000 OA
BRANCH  17  18
ATOM     18  C   UNL     1       7.202   5.098  14.384  0.00  0.00    +0.000 A 
ATOM     19  C   UNL     1       8.057   5.654  13.427  0.00  0.00    +0.000 A 
ATOM     20  C   UNL     1       7.995   5.241  12.096  0.00  0.00    +0.000 A 
ATOM     21  C   UNL     1       7.039   4.304  11.707  0.00  0.00    +0.000 A 
ATOM     22  C   UNL     1       6.173   3.768  12.654  0.00  0.00    +0.000 A 
ATOM     23 CL   UNL     1       4.971   2.637  12.168  0.00  0.00    +0.000 Cl
ATOM     24  C   UNL     1       6.261   4.150  13.992  0.00  0.00    +0.000 A 
ENDBRANCH  17  18
ENDBRANCH  15  17
ENDBRANCH   2  15
BRANCH   1  25
ATOM     25  C   UNL     1       3.901   4.250  17.478  0.00  0.00    +0.000 C 
BRANCH  25  26
ATOM     26  C   UNL     1       2.700   3.326  17.091  0.00  0.00    +0.000 C 
ATOM     27  C   UNL     1       2.870   1.978  17.835  0.00  0.00    +0.000 C 
ATOM     28  C   UNL     1       2.292   2.266  19.207  0.00  0.00    +0.000 C 
ATOM     29  C   UNL     1       1.092   3.126  18.879  0.00  0.00    +0.000 C 
ATOM     30  N   UNL     1       1.362   3.731  17.570  0.00  0.00    +0.000 NA
ATOM     31  H   UNL     1       1.267   4.743  17.646  0.00  0.00    +0.000 HD
ENDBRANCH  25  26
ENDBRANCH   1  25
TORSDOF 7
ENDMDL
MODEL 2
REMARK VINA RESULT:      -8.1      1.081      1.081
REMARK  Name = 
REMARK  9 active torsions:
REMARK  status: ('A' for Active; 'I' for Inactive)
REMARK    1  A    between atoms: C_1  and  C_2
REMARK    2  A    between atoms: N_4  and  C_5
REMARK    3  A    between atoms: C_8  and  N_9
REMARK    4  A    between atoms: N_9  and  C_10
REMARK    5  A    between atoms: C_10  and  C_11
REMARK    6  A    between atoms: C_16  and  C_18
REMARK    7  A    between atoms: C_18  and  C_19
REMARK    8  A    between atoms: C_18  and  O_20
REMARK    9  A    between atoms: O_20  and  C_21
REMARK                            x       y       z     vdW  Elec       q    Type
REMARK                         _______ _______ _______ _____ _____    ______ ____
ROOT
ATOM      1  N   UNL     1       4.012   5.766  17.527  0.00  0.00    +0.000 N 
ATOM      2  C   UNL     1       5.321   6.263  17.133  0.00  0.00    +0.000 C 
ATOM      3  O   UNL     1       5.663   7.448  17.121  0.00  0.00    +0.000 OA
ENDROOT
BRANCH   1   7
ATOM      4  C   UNL     1       1.511   8.744  19.476  0.00  0.00    +0.000 A 
ATOM      5  C   UNL     1       1.746   8.778  18.117  0.00  0.00    +0.000 A 
ATOM      6  C   UNL     1       2.492   7.765  17.490  0.00  0.00    +0.000 A 
ATOM      7  C   UNL     1       3.056   6.671  18.170  0.00  0.00    +0.000 A 
ATOM      8  C   UNL     1       2.649   6.577  19.502  0.00  0.00    +0.000 A 
ATOM      9  C   UNL     1       1.931   7.606  20.163  0.00  0.00    +0.000 A 
BRANCH   4  13
ATOM     10  C   UNL     1       0.410  12.008  21.024  0.00  0.00    +0.000 C 
ATOM     11  C   UNL     1       1.041  11.150  19.957  0.00  0.00    +0.000 C 
ATOM     12  O   UNL     1       1.621  11.670  19.012  0.00  0.00    +0.000 OA
ATOM     13  N   UNL     1       0.885   9.791  20.192  0.00  0.00    +0.000 N 
ATOM     14  H   UNL     1       0.286   9.520  20.958  0.00  0.00    +0.000 HD
ENDBRANCH   4  13
ENDBRANCH   1   7
BRANCH   2  15
ATOM     15  C   UNL     1       6.444   5.218  16.736  0.00  0.00    +0.000 C 
ATOM     16  C   UNL     1       7.170   4.607  17.950  0.00  0.00    +0.000 C 
BRANCH  15  17
ATOM     17  O   UNL     1       7.418   5.538  15.747  0.00  0.00    +0.000 OA
BRANCH  17  18
ATOM     18  C   UNL     1       7.228   5.089  14.470  0.00  0.00    +0.000 A 
ATOM     19  C   UNL     1       8.068   5.669  13.515  0.00  0.00    +0.000 A 
ATOM     20  C   UNL     1       7.991   5.285  12.176  0.00  0.00    +0.000 A 
ATOM     21  C   UNL     1       7.035   4.351  11.780  0.00  0.00    +0.000 A 
ATOM     22  C   UNL     1       6.184   3.790  12.726  0.00  0.00    +0.000 A 
ATOM     23 CL   UNL     1       4.982   2.663  12.231  0.00  0.00    +0.000 Cl
ATOM     24  C   UNL     1       6.288   4.144  14.071  0.00  0.00    +0.000 A 
ENDBRANCH  17  18
ENDBRANCH  15  17
ENDBRANCH   2  15
BRANCH   1  25
ATOM     25  C   UNL     1       3.876   4.306  17.506  0.00  0.00    +0.000 C 
BRANCH  25  26
ATOM     26  C   UNL     1       2.688   3.364  17.123  0.00  0.00    +0.000 C 
ATOM     27  C   UNL     1       2.891   2.012  17.852  0.00  0.00    +0.000 C 
ATOM     28  C   UNL     1       2.323   2.277  19.234  0.00  0.00    +0.000 C 
ATOM     29  C   UNL     1       1.105   3.118  18.928  0.00  0.00    +0.000 C 
ATOM     30  N   UNL     1       1.348   3.741  17.621  0.00  0.00    +0.000 NA
ATOM     31  H   UNL     1       1.236   4.749  17.709  0.00  0.00    +0.000 HD
ENDBRANCH  25  26
ENDBRANCH   1  25
TORSDOF 7
ENDMDL
MODEL 3
REMARK VINA RESULT:      -8.1      1.146      1.529
REMARK  Name = 
REMARK  9 active torsions:
REMARK  status: ('A' for Active; 'I' for Inactive)
REMARK    1  A    between atoms: C_1  and  C_2
REMARK    2  A    between atoms: N_4  and  C_5
REMARK    3  A    between atoms: C_8  and  N_9
REMARK    4  A    between atoms: N_9  and  C_10
REMARK    5  A    between atoms: C_10  and  C_11
REMARK    6  A    between atoms: C_16  and  C_18
REMARK    7  A    between atoms: C_18  and  C_19
REMARK    8  A    between atoms: C_18  and  O_20
REMARK    9  A    between atoms: O_20  and  C_21
REMARK                            x       y       z     vdW  Elec       q    Type
REMARK                         _______ _______ _______ _____ _____    ______ ____
ROOT
ATOM      1  N   UNL     1       3.720   6.136  17.573  0.00  0.00    +0.000 N 
ATOM      2  C   UNL     1       5.110   6.360  17.206  0.00  0.00    +0.000 C 
ATOM      3  O   UNL     1       5.696   7.445  17.252  0.00  0.00    +0.000 OA
ENDROOT
BRANCH   1   7
ATOM      4  C   UNL     1       1.131   9.017  19.552  0.00  0.00    +0.000 A 
ATOM      5  C   UNL     1       1.679   7.951  20.236  0.00  0.00    +0.000 A 
ATOM      6  C   UNL     1       2.575   7.074  19.601  0.00  0.00    +0.000 A 
ATOM      7  C   UNL     1       2.971   7.192  18.257  0.00  0.00    +0.000 A 
ATOM      8  C   UNL     1       2.540   8.375  17.655  0.00  0.00    +0.000 A 
ATOM      9  C   UNL     1       1.605   9.253  18.262  0.00  0.00    +0.000 A 
BRANCH   4  13
ATOM     10  C   UNL     1      -0.955  11.498  21.488  0.00  0.00    +0.000 C 
ATOM     11  C   UNL     1       0.329  10.940  20.930  0.00  0.00    +0.000 C 
ATOM     12  O   UNL     1       1.404  11.437  21.243  0.00  0.00    +0.000 OA
ATOM     13  N   UNL     1       0.127   9.859  20.083  0.00  0.00    +0.000 N 
ATOM     14  H   UNL     1      -0.827   9.637  19.837  0.00  0.00    +0.000 HD
ENDBRANCH   4  13
ENDBRANCH   1   7
BRANCH   2  15
ATOM     15  C   UNL     1       5.990   5.121  16.761  0.00  0.00    +0.000 C 
ATOM     16  C   UNL     1       6.376   4.192  17.928  0.00  0.00    +0.000 C 
BRANCH  15  17
ATOM     17  O   UNL     1       7.137   5.302  15.936  0.00  0.00    +0.000 OA
BRANCH  17  18
ATOM     18  C   UNL     1       7.065   4.932  14.622  0.00  0.00    +0.000 A 
ATOM     19  C   UNL     1       7.937   5.620  13.772  0.00  0.00    +0.000 A 
ATOM     20  C   UNL     1       7.977   5.324  12.409  0.00  0.00    +0.000 A 
ATOM     21  C   UNL     1       7.108   4.370  11.883  0.00  0.00    +0.000 A 
ATOM     22  C   UNL     1       6.225   3.702  12.724  0.00  0.00    +0.000 A 
ATOM     23 CL   UNL     1       5.128   2.550  12.070  0.00  0.00    +0.000 Cl
ATOM     24  C   UNL     1       6.212   3.968  14.093  0.00  0.00    +0.000 A 
ENDBRANCH  17  18
ENDBRANCH  15  17
ENDBRANCH   2  15
BRANCH   1  25
ATOM     25  C   UNL     1       3.278   4.741  17.482  0.00  0.00    +0.000 C 
BRANCH  25  26
ATOM     26  C   UNL     1       2.419   3.843  18.433  0.00  0.00    +0.000 C 
ATOM     27  C   UNL     1       2.263   2.452  17.770  0.00  0.00    +0.000 C 
ATOM     28  C   UNL     1       3.548   1.742  18.152  0.00  0.00    +0.000 C 
ATOM     29  C   UNL     1       3.756   2.194  19.580  0.00  0.00    +0.000 C 
ATOM     30  N   UNL     1       3.029   3.461  19.723  0.00  0.00    +0.000 NA
ATOM     31  H   UNL     1       3.668   4.171  20.077  0.00  0.00    +0.000 HD
ENDBRANCH  25  26
ENDBRANCH   1  25
TORSDOF 7
ENDMDL
MODEL 4
REMARK VINA RESULT:      -8.0      1.795      2.289
REMARK  Name = 
REMARK  9 active torsions:
REMARK  status: ('A' for Active; 'I' for Inactive)
REMARK    1  A    between atoms: C_1  and  C_2
REMARK    2  A    between atoms: N_4  and  C_5
REMARK    3  A    between atoms: C_8  and  N_9
REMARK    4  A    between atoms: N_9  and  C_10
REMARK    5  A    between atoms: C_10  and  C_11
REMARK    6  A    between atoms: C_16  and  C_18
REMARK    7  A    between atoms: C_18  and  C_19
REMARK    8  A    between atoms: C_18  and  O_20
REMARK    9  A    between atoms: O_20  and  C_21
REMARK                            x       y       z     vdW  Elec       q    Type
REMARK                         _______ _______ _______ _____ _____    ______ ____
ROOT
ATOM      1  N   UNL     1       4.164   5.975  18.544  0.00  0.00    +0.000 N 
ATOM      2  C   UNL     1       5.467   6.340  18.010  0.00  0.00    +0.000 C 
ATOM      3  O   UNL     1       5.735   7.402  17.441  0.00  0.00    +0.000 OA
ENDROOT
BRANCH   1   7
ATOM      4  C   UNL     1       1.352   9.277  18.873  0.00  0.00    +0.000 A 
ATOM      5  C   UNL     1       1.964   8.968  17.675  0.00  0.00    +0.000 A 
ATOM      6  C   UNL     1       2.811   7.850  17.568  0.00  0.00    +0.000 A 
ATOM      7  C   UNL     1       3.108   6.985  18.635  0.00  0.00    +0.000 A 
ATOM      8  C   UNL     1       2.336   7.224  19.774  0.00  0.00    +0.000 A 
ATOM      9  C   UNL     1       1.508   8.366  19.917  0.00  0.00    +0.000 A 
BRANCH   4  13
ATOM     10  C   UNL     1      -1.051  12.188  18.760  0.00  0.00    +0.000 C 
ATOM     11  C   UNL     1      -0.610  10.773  18.483  0.00  0.00    +0.000 C 
ATOM     12  O   UNL     1      -1.296  10.041  17.781  0.00  0.00    +0.000 OA
ATOM     13  N   UNL     1       0.597  10.453  19.089  0.00  0.00    +0.000 N 
ATOM     14  H   UNL     1       0.988  11.130  19.728  0.00  0.00    +0.000 HD
ENDBRANCH   4  13
ENDBRANCH   1   7
BRANCH   2  15
ATOM     15  C   UNL     1       6.680   5.341  18.208  0.00  0.00    +0.000 C 
ATOM     16  C   UNL     1       7.525   5.642  19.460  0.00  0.00    +0.000 C 
BRANCH  15  17
ATOM     17  O   UNL     1       7.565   5.048  17.131  0.00  0.00    +0.000 OA
BRANCH  17  18
ATOM     18  C   UNL     1       7.033   4.696  15.922  0.00  0.00    +0.000 A 
ATOM     19  C   UNL     1       5.896   3.884  15.998  0.00  0.00    +0.000 A 
ATOM     20  C   UNL     1       5.244   3.470  14.837  0.00  0.00    +0.000 A 
ATOM     21  C   UNL     1       5.757   3.825  13.591  0.00  0.00    +0.000 A 
ATOM     22  C   UNL     1       6.900   4.614  13.514  0.00  0.00    +0.000 A 
ATOM     23 CL   UNL     1       7.554   5.024  11.977  0.00  0.00    +0.000 Cl
ATOM     24  C   UNL     1       7.530   5.063  14.675  0.00  0.00    +0.000 A 
ENDBRANCH  17  18
ENDBRANCH  15  17
ENDBRANCH   2  15
BRANCH   1  25
ATOM     25  C   UNL     1       4.121   4.676  19.224  0.00  0.00    +0.000 C 
BRANCH  25  26
ATOM     26  C   UNL     1       2.951   3.683  19.526  0.00  0.00    +0.000 C 
ATOM     27  C   UNL     1       1.941   3.760  18.353  0.00  0.00    +0.000 C 
ATOM     28  C   UNL     1       2.546   2.834  17.316  0.00  0.00    +0.000 C 
ATOM     29  C   UNL     1       3.070   1.696  18.163  0.00  0.00    +0.000 C 
ATOM     30  N   UNL     1       3.275   2.242  19.509  0.00  0.00    +0.000 NA
ATOM     31  H   UNL     1       4.233   2.056  19.800  0.00  0.00    +0.000 HD
ENDBRANCH  25  26
ENDBRANCH   1  25
TORSDOF 7
ENDMDL
MODEL 5
REMARK VINA RESULT:      -8.0      1.079      1.440
REMARK  Name = 
REMARK  9 active torsions:
REMARK  status: ('A' for Active; 'I' for Inactive)
REMARK    1  A    between atoms: C_1  and  C_2
REMARK    2  A    between atoms: N_4  and  C_5
REMARK    3  A    between atoms: C_8  and  N_9
REMARK    4  A    between atoms: N_9  and  C_10
REMARK    5  A    between atoms: C_10  and  C_11
REMARK    6  A    between atoms: C_16  and  C_18
REMARK    7  A    between atoms: C_18  and  C_19
REMARK    8  A    between atoms: C_18  and  O_20
REMARK    9  A    between atoms: O_20  and  C_21
REMARK                            x       y       z     vdW  Elec       q    Type
REMARK                         _______ _______ _______ _____ _____    ______ ____
ROOT
ATOM      1  N   UNL     1       4.280   5.645  18.061  0.00  0.00    +0.000 N 
ATOM      2  C   UNL     1       5.559   6.202  17.646  0.00  0.00    +0.000 C 
ATOM      3  O   UNL     1       5.801   7.402  17.494  0.00  0.00    +0.000 OA
ENDROOT
BRANCH   1   7
ATOM      4  C   UNL     1       1.479   8.564  19.660  0.00  0.00    +0.000 A 
ATOM      5  C   UNL     1       2.001   8.687  18.388  0.00  0.00    +0.000 A 
ATOM      6  C   UNL     1       2.844   7.694  17.858  0.00  0.00    +0.000 A 
ATOM      7  C   UNL     1       3.227   6.535  18.555  0.00  0.00    +0.000 A 
ATOM      8  C   UNL     1       2.541   6.360  19.758  0.00  0.00    +0.000 A 
ATOM      9  C   UNL     1       1.719   7.365  20.329  0.00  0.00    +0.000 A 
BRANCH   4  13
ATOM     10  C   UNL     1      -0.261  10.894  22.069  0.00  0.00    +0.000 C 
ATOM     11  C   UNL     1       0.811   9.921  21.647  0.00  0.00    +0.000 C 
ATOM     12  O   UNL     1       1.628   9.514  22.464  0.00  0.00    +0.000 OA
ATOM     13  N   UNL     1       0.735   9.578  20.305  0.00  0.00    +0.000 N 
ATOM     14  H   UNL     1       0.071  10.084  19.735  0.00  0.00    +0.000 HD
ENDBRANCH   4  13
ENDBRANCH   1   7
BRANCH   2  15
ATOM     15  C   UNL     1       6.780   5.219  17.420  0.00  0.00    +0.000 C 
ATOM     16  C   UNL     1       7.705   5.097  18.646  0.00  0.00    +0.000 C 
BRANCH  15  17
ATOM     17  O   UNL     1       7.593   5.326  16.255  0.00  0.00    +0.000 OA
BRANCH  17  18
ATOM     18  C   UNL     1       7.108   4.845  15.071  0.00  0.00    +0.000 A 
ATOM     19  C   UNL     1       6.106   3.878  15.198  0.00  0.00    +0.000 A 
ATOM     20  C   UNL     1       5.512   3.319  14.067  0.00  0.00    +0.000 A 
ATOM     21  C   UNL     1       5.955   3.692  12.799  0.00  0.00    +0.000 A 
ATOM     22  C   UNL     1       6.967   4.638  12.671  0.00  0.00    +0.000 A 
ATOM     23 CL   UNL     1       7.537   5.072  11.107  0.00  0.00    +0.000 Cl
ATOM     24  C   UNL     1       7.534   5.226  13.802  0.00  0.00    +0.000 A 
ENDBRANCH  17  18
ENDBRANCH  15  17
ENDBRANCH   2  15
BRANCH   1  25
ATOM     25  C   UNL     1       4.268   4.187  18.222  0.00  0.00    +0.000 C 
BRANCH  25  26
ATOM     26  C   UNL     1       3.418   3.060  17.549  0.00  0.00    +0.000 C 
ATOM     27  C   UNL     1       3.343   1.863  18.529  0.00  0.00    +0.000 C 
ATOM     28  C   UNL     1       2.211   2.250  19.461  0.00  0.00    +0.000 C 
ATOM     29  C   UNL     1       1.214   2.882  18.516  0.00  0.00    +0.000 C 
ATOM     30  N   UNL     1       1.980   3.336  17.349  0.00  0.00    +0.000 NA
ATOM     31  H   UNL     1       1.792   4.324  17.193  0.00  0.00    +0.000 HD
ENDBRANCH  25  26
ENDBRANCH   1  25
TORSDOF 7
ENDMDL
MODEL 6
REMARK VINA RESULT:      -8.0      1.943      2.547
REMARK  Name = 
REMARK  9 active torsions:
REMARK  status: ('A' for Active; 'I' for Inactive)
REMARK    1  A    between atoms: C_1  and  C_2
REMARK    2  A    between atoms: N_4  and  C_5
REMARK    3  A    between atoms: C_8  and  N_9
REMARK    4  A    between atoms: N_9  and  C_10
REMARK    5  A    between atoms: C_10  and  C_11
REMARK    6  A    between atoms: C_16  and  C_18
REMARK    7  A    between atoms: C_18  and  C_19
REMARK    8  A    between atoms: C_18  and  O_20
REMARK    9  A    between atoms: O_20  and  C_21
REMARK                            x       y       z     vdW  Elec       q    Type
REMARK                         _______ _______ _______ _____ _____    ______ ____
ROOT
ATOM      1  N   UNL     1       3.001   6.045  18.277  0.00  0.00    +0.000 N 
ATOM      2  C   UNL     1       4.420   5.974  17.963  0.00  0.00    +0.000 C 
ATOM      3  O   UNL     1       5.165   6.943  17.796  0.00  0.00    +0.000 OA
ENDROOT
BRANCH   1   7
ATOM      4  C   UNL     1       0.832   9.648  19.388  0.00  0.00    +0.000 A 
ATOM      5  C   UNL     1       1.279   8.753  20.339  0.00  0.00    +0.000 A 
ATOM      6  C   UNL     1       2.045   7.634  19.970  0.00  0.00    +0.000 A 
ATOM      7  C   UNL     1       2.403   7.330  18.644  0.00  0.00    +0.000 A 
ATOM      8  C   UNL     1       2.088   8.346  17.739  0.00  0.00    +0.000 A 
ATOM      9  C   UNL     1       1.283   9.461  18.082  0.00  0.00    +0.000 A 
BRANCH   4  13
ATOM     10  C   UNL     1      -1.903  12.250  19.455  0.00  0.00    +0.000 C 
ATOM     11  C   UNL     1      -1.308  10.908  19.116  0.00  0.00    +0.000 C 
ATOM     12  O   UNL     1      -1.927  10.119  18.412  0.00  0.00    +0.000 OA
ATOM     13  N   UNL     1      -0.049  10.717  19.669  0.00  0.00    +0.000 N 
ATOM     14  H   UNL     1       0.282  11.417  20.317  0.00  0.00    +0.000 HD
ENDBRANCH   4  13
ENDBRANCH   1   7
BRANCH   2  15
ATOM     15  C   UNL     1       5.111   4.551  17.880  0.00  0.00    +0.000 C 
ATOM     16  C   UNL     1       5.120   3.794  19.221  0.00  0.00    +0.000 C 
BRANCH  15  17
ATOM     17  O   UNL     1       6.390   4.399  17.271  0.00  0.00    +0.000 OA
BRANCH  17  18
ATOM     18  C   UNL     1       6.473   4.407  15.907  0.00  0.00    +0.000 A 
ATOM     19  C   UNL     1       5.504   3.636  15.258  0.00  0.00    +0.000 A 
ATOM     20  C   UNL     1       5.464   3.574  13.865  0.00  0.00    +0.000 A 
ATOM     21  C   UNL     1       6.428   4.247  13.115  0.00  0.00    +0.000 A 
ATOM     22  C   UNL     1       7.405   4.996  13.761  0.00  0.00    +0.000 A 
ATOM     23 CL   UNL     1       8.615   5.798  12.838  0.00  0.00    +0.000 Cl
ATOM     24  C   UNL     1       7.421   5.091  15.152  0.00  0.00    +0.000 A 
ENDBRANCH  17  18
ENDBRANCH  15  17
ENDBRANCH   2  15
BRANCH   1  25
ATOM     25  C   UNL     1       2.351   4.746  18.482  0.00  0.00    +0.000 C 
BRANCH  25  26
ATOM     26  C   UNL     1       1.250   4.266  19.484  0.00  0.00    +0.000 C 
ATOM     27  C   UNL     1       0.870   2.809  19.119  0.00  0.00    +0.000 C 
ATOM     28  C   UNL     1       1.946   1.989  19.805  0.00  0.00    +0.000 C 
ATOM     29  C   UNL     1       2.122   2.719  21.118  0.00  0.00    +0.000 C 
ATOM     30  N   UNL     1       1.659   4.093  20.893  0.00  0.00    +0.000 NA
ATOM     31  H   UNL     1       2.397   4.740  21.166  0.00  0.00    +0.000 HD
ENDBRANCH  25  26
ENDBRANCH   1  25
TORSDOF 7
ENDMDL
MODEL 7
REMARK VINA RESULT:      -8.0      0.860      1.246
REMARK  Name = 
REMARK  9 active torsions:
REMARK  status: ('A' for Active; 'I' for Inactive)
REMARK    1  A    between atoms: C_1  and  C_2
REMARK    2  A    between atoms: N_4  and  C_5
REMARK    3  A    between atoms: C_8  and  N_9
REMARK    4  A    between atoms: N_9  and  C_10
REMARK    5  A    between atoms: C_10  and  C_11
REMARK    6  A    between atoms: C_16  and  C_18
REMARK    7  A    between atoms: C_18  and  C_19
REMARK    8  A    between atoms: C_18  and  O_20
REMARK    9  A    between atoms: O_20  and  C_21
REMARK                            x       y       z     vdW  Elec       q    Type
REMARK                         _______ _______ _______ _____ _____    ______ ____
ROOT
ATOM      1  N   UNL     1       4.015   5.522  17.608  0.00  0.00    +0.000 N 
ATOM      2  C   UNL     1       5.249   6.081  17.079  0.00  0.00    +0.000 C 
ATOM      3  O   UNL     1       5.549   7.278  17.076  0.00  0.00    +0.000 OA
ENDROOT
BRANCH   1   7
ATOM      4  C   UNL     1       1.701   8.290  20.039  0.00  0.00    +0.000 A 
ATOM      5  C   UNL     1       1.931   8.525  18.699  0.00  0.00    +0.000 A 
ATOM      6  C   UNL     1       2.614   7.583  17.910  0.00  0.00    +0.000 A 
ATOM      7  C   UNL     1       3.117   6.366  18.400  0.00  0.00    +0.000 A 
ATOM      8  C   UNL     1       2.712   6.085  19.706  0.00  0.00    +0.000 A 
ATOM      9  C   UNL     1       2.058   7.035  20.532  0.00  0.00    +0.000 A 
BRANCH   4  13
ATOM     10  C   UNL     1      -0.477  10.385  22.303  0.00  0.00    +0.000 C 
ATOM     11  C   UNL     1      -0.050   9.111  21.620  0.00  0.00    +0.000 C 
ATOM     12  O   UNL     1      -0.738   8.102  21.712  0.00  0.00    +0.000 OA
ATOM     13  N   UNL     1       1.141   9.243  20.920  0.00  0.00    +0.000 N 
ATOM     14  H   UNL     1       1.648  10.110  21.030  0.00  0.00    +0.000 HD
ENDBRANCH   4  13
ENDBRANCH   1   7
BRANCH   2  15
ATOM     15  C   UNL     1       6.348   5.095  16.506  0.00  0.00    +0.000 C 
ATOM     16  C   UNL     1       7.474   4.781  17.509  0.00  0.00    +0.000 C 
BRANCH  15  17
ATOM     17  O   UNL     1       6.937   5.325  15.230  0.00  0.00    +0.000 OA
BRANCH  17  18
ATOM     18  C   UNL     1       6.503   4.586  14.165  0.00  0.00    +0.000 A 
ATOM     19  C   UNL     1       5.116   4.427  14.089  0.00  0.00    +0.000 A 
ATOM     20  C   UNL     1       4.542   3.711  13.039  0.00  0.00    +0.000 A 
ATOM     21  C   UNL     1       5.359   3.107  12.085  0.00  0.00    +0.000 A 
ATOM     22  C   UNL     1       6.740   3.246  12.172  0.00  0.00    +0.000 A 
ATOM     23 CL   UNL     1       7.751   2.473  11.015  0.00  0.00    +0.000 Cl
ATOM     24  C   UNL     1       7.314   3.996  13.199  0.00  0.00    +0.000 A 
ENDBRANCH  17  18
ENDBRANCH  15  17
ENDBRANCH   2  15
BRANCH   1  25
ATOM     25  C   UNL     1       3.924   4.060  17.543  0.00  0.00    +0.000 C 
BRANCH  25  26
ATOM     26  C   UNL     1       2.758   3.093  17.154  0.00  0.00    +0.000 C 
ATOM     27  C   UNL     1       2.891   1.809  18.011  0.00  0.00    +0.000 C 
ATOM     28  C   UNL     1       2.224   2.195  19.317  0.00  0.00    +0.000 C 
ATOM     29  C   UNL     1       1.041   3.012  18.848  0.00  0.00    +0.000 C 
ATOM     30  N   UNL     1       1.389   3.517  17.514  0.00  0.00    +0.000 NA
ATOM     31  H   UNL     1       1.281   4.530  17.505  0.00  0.00    +0.000 HD
ENDBRANCH  25  26
ENDBRANCH   1  25
TORSDOF 7
ENDMDL
MODEL 8
REMARK VINA RESULT:      -7.9      4.749     10.734
REMARK  Name = 
REMARK  9 active torsions:
REMARK  status: ('A' for Active; 'I' for Inactive)
REMARK    1  A    between atoms: C_1  and  C_2
REMARK    2  A    between atoms: N_4  and  C_5
REMARK    3  A    between atoms: C_8  and  N_9
REMARK    4  A    between atoms: N_9  and  C_10
REMARK    5  A    between atoms: C_10  and  C_11
REMARK    6  A    between atoms: C_16  and  C_18
REMARK    7  A    between atoms: C_18  and  C_19
REMARK    8  A    between atoms: C_18  and  O_20
REMARK    9  A    between atoms: O_20  and  C_21
REMARK                            x       y       z     vdW  Elec       q    Type
REMARK                         _______ _______ _______ _____ _____    ______ ____
ROOT
ATOM      1  N   UNL     1      -0.011  10.516  19.902  0.00  0.00    +0.000 N 
ATOM      2  C   UNL     1       0.375  11.638  20.744  0.00  0.00    +0.000 C 
ATOM      3  O   UNL     1       1.438  11.736  21.362  0.00  0.00    +0.000 OA
ENDROOT
BRANCH   1   7
ATOM      4  C   UNL     1       2.609   7.286  18.628  0.00  0.00    +0.000 A 
ATOM      5  C   UNL     1       2.390   8.393  17.834  0.00  0.00    +0.000 A 
ATOM      6  C   UNL     1       1.603   9.464  18.293  0.00  0.00    +0.000 A 
ATOM      7  C   UNL     1       0.980   9.496  19.552  0.00  0.00    +0.000 A 
ATOM      8  C   UNL     1       1.367   8.448  20.389  0.00  0.00    +0.000 A 
ATOM      9  C   UNL     1       2.127   7.340  19.935  0.00  0.00    +0.000 A 
BRANCH   4  13
ATOM     10  C   UNL     1       3.664   3.816  17.577  0.00  0.00    +0.000 C 
ATOM     11  C   UNL     1       2.676   4.936  17.785  0.00  0.00    +0.000 C 
ATOM     12  O   UNL     1       1.480   4.742  17.607  0.00  0.00    +0.000 OA
ATOM     13  N   UNL     1       3.276   6.121  18.185  0.00  0.00    +0.000 N 
ATOM     14  H   UNL     1       4.286   6.153  18.181  0.00  0.00    +0.000 HD
ENDBRANCH   4  13
ENDBRANCH   1   7
BRANCH   2  15
ATOM     15  C   UNL     1      -0.601  12.881  20.852  0.00  0.00    +0.000 C 
ATOM     16  C   UNL     1      -0.045  14.157  20.192  0.00  0.00    +0.000 C 
BRANCH  15  17
ATOM     17  O   UNL     1      -1.184  13.241  22.101  0.00  0.00    +0.000 OA
BRANCH  17  18
ATOM     18  C   UNL     1      -2.539  13.134  22.246  0.00  0.00    +0.000 A 
ATOM     19  C   UNL     1      -2.985  13.114  23.571  0.00  0.00    +0.000 A 
ATOM     20  C   UNL     1      -4.348  13.028  23.859  0.00  0.00    +0.000 A 
ATOM     21  C   UNL     1      -5.268  12.911  22.818  0.00  0.00    +0.000 A 
ATOM     22  C   UNL     1      -4.823  12.908  21.500  0.00  0.00    +0.000 A 
ATOM     23 CL   UNL     1      -5.955  12.729  20.218  0.00  0.00    +0.000 Cl
ATOM     24  C   UNL     1      -3.464  13.035  21.211  0.00  0.00    +0.000 A 
ENDBRANCH  17  18
ENDBRANCH  15  17
ENDBRANCH   2  15
BRANCH   1  25
ATOM     25  C   UNL     1      -1.307  10.669  19.231  0.00  0.00    +0.000 C 
BRANCH  25  26
ATOM     26  C   UNL     1      -1.699  11.147  17.794  0.00  0.00    +0.000 C 
ATOM     27  C   UNL     1      -2.159   9.910  16.983  0.00  0.00    +0.000 C 
ATOM     28  C   UNL     1      -3.609   9.746  17.397  0.00  0.00    +0.000 C 
ATOM     29  C   UNL     1      -4.090  11.179  17.467  0.00  0.00    +0.000 C 
ATOM     30  N   UNL     1      -2.896  12.006  17.679  0.00  0.00    +0.000 NA
ATOM     31  H   UNL     1      -3.038  12.588  18.503  0.00  0.00    +0.000 HD
ENDBRANCH  25  26
ENDBRANCH   1  25
TORSDOF 7
ENDMDL
MODEL 9
REMARK VINA RESULT:      -7.9      5.062     10.619
REMARK  Name = 
REMARK  9 active torsions:
REMARK  status: ('A' for Active; 'I' for Inactive)
REMARK    1  A    between atoms: C_1  and  C_2
REMARK    2  A    between atoms: N_4  and  C_5
REMARK    3  A    between atoms: C_8  and  N_9
REMARK    4  A    between atoms: N_9  and  C_10
REMARK    5  A    between atoms: C_10  and  C_11
REMARK    6  A    between atoms: C_16  and  C_18
REMARK    7  A    between atoms: C_18  and  C_19
REMARK    8  A    between atoms: C_18  and  O_20
REMARK    9  A    between atoms: O_20  and  C_21
REMARK                            x       y       z     vdW  Elec       q    Type
REMARK                         _______ _______ _______ _____ _____    ______ ____
ROOT
ATOM      1  N   UNL     1       0.050  10.707  19.451  0.00  0.00    +0.000 N 
ATOM      2  C   UNL     1       0.449  11.902  20.178  0.00  0.00    +0.000 C 
ATOM      3  O   UNL     1       1.494  12.034  20.819  0.00  0.00    +0.000 OA
ENDROOT
BRANCH   1   7
ATOM      4  C   UNL     1       2.601   7.285  18.613  0.00  0.00    +0.000 A 
ATOM      5  C   UNL     1       2.497   8.340  17.730  0.00  0.00    +0.000 A 
ATOM      6  C   UNL     1       1.729   9.473  18.050  0.00  0.00    +0.000 A 
ATOM      7  C   UNL     1       1.014   9.623  19.251  0.00  0.00    +0.000 A 
ATOM      8  C   UNL     1       1.287   8.622  20.187  0.00  0.00    +0.000 A 
ATOM      9  C   UNL     1       2.025   7.453  19.871  0.00  0.00    +0.000 A 
BRANCH   4  13
ATOM     10  C   UNL     1       3.563   3.709  17.872  0.00  0.00    +0.000 C 
ATOM     11  C   UNL     1       2.621   4.886  17.918  0.00  0.00    +0.000 C 
ATOM     12  O   UNL     1       1.438   4.739  17.636  0.00  0.00    +0.000 OA
ATOM     13  N   UNL     1       3.244   6.064  18.305  0.00  0.00    +0.000 N 
ATOM     14  H   UNL     1       4.250   6.046  18.398  0.00  0.00    +0.000 HD
ENDBRANCH   4  13
ENDBRANCH   1   7
BRANCH   2  15
ATOM     15  C   UNL     1      -0.485  13.180  20.113  0.00  0.00    +0.000 C 
ATOM     16  C   UNL     1       0.096  14.322  19.259  0.00  0.00    +0.000 C 
BRANCH  15  17
ATOM     17  O   UNL     1      -1.030  13.744  21.302  0.00  0.00    +0.000 OA
BRANCH  17  18
ATOM     18  C   UNL     1      -2.294  13.384  21.679  0.00  0.00    +0.000 A 
ATOM     19  C   UNL     1      -3.236  13.389  20.646  0.00  0.00    +0.000 A 
ATOM     20  C   UNL     1      -4.559  13.023  20.892  0.00  0.00    +0.000 A 
ATOM     21  C   UNL     1      -4.956  12.697  22.188  0.00  0.00    +0.000 A 
ATOM     22  C   UNL     1      -4.025  12.714  23.221  0.00  0.00    +0.000 A 
ATOM     23 CL   UNL     1      -4.522  12.345  24.826  0.00  0.00    +0.000 Cl
ATOM     24  C   UNL     1      -2.693  13.041  22.968  0.00  0.00    +0.000 A 
ENDBRANCH  17  18
ENDBRANCH  15  17
ENDBRANCH   2  15
BRANCH   1  25
ATOM     25  C   UNL     1      -1.217  10.825  18.721  0.00  0.00    +0.000 C 
BRANCH  25  26
ATOM     26  C   UNL     1      -1.776  10.094  17.456  0.00  0.00    +0.000 C 
ATOM     27  C   UNL     1      -3.169   9.517  17.810  0.00  0.00    +0.000 C 
ATOM     28  C   UNL     1      -4.094  10.703  17.615  0.00  0.00    +0.000 C 
ATOM     29  C   UNL     1      -3.526  11.357  16.376  0.00  0.00    +0.000 C 
ATOM     30  N   UNL     1      -2.121  10.938  16.294  0.00  0.00    +0.000 NA
ATOM     31  H   UNL     1      -1.533  11.767  16.227  0.00  0.00    +0.000 HD
ENDBRANCH  25  26
ENDBRANCH   1  25
TORSDOF 7
ENDMDL
