MODEL 1
REMARK VINA RESULT:      -7.9      0.000      0.000
REMARK  Name = 
REMARK  5 active torsions:
REMARK  status: ('A' for Active; 'I' for Inactive)
REMARK    1  A    between atoms: C_1  and  C_2
REMARK    2  A    between atoms: C_7  and  C_8
REMARK    3  A    between atoms: C_8  and  O_10
REMARK    4  A    between atoms: C_12  and  C_13
REMARK    5  A    between atoms: C_13  and  C_15
REMARK                            x       y       z     vdW  Elec       q    Type
REMARK                         _______ _______ _______ _____ _____    ______ ____
ROOT
ATOM      1  C   UNL     1       4.434   2.037  19.513  0.00  0.00    +0.000 C 
ATOM      2  C   UNL     1       3.316   2.973  19.860  0.00  0.00    +0.000 A 
ATOM      3  C   UNL     1       2.206   2.447  20.420  0.00  0.00    +0.000 A 
ATOM      4  C   UNL     1       1.114   3.297  20.818  0.00  0.00    +0.000 A 
ATOM      5  C   UNL     1       1.166   4.625  20.651  0.00  0.00    +0.000 A 
ATOM      6  C   UNL     1       2.303   5.232  20.029  0.00  0.00    +0.000 A 
ATOM      7  C   UNL     1       2.625   6.548  19.739  0.00  0.00    +0.000 A 
ATOM      8  C   UNL     1       3.903   6.507  19.142  0.00  0.00    +0.000 A 
ATOM      9  C   UNL     1       4.388   5.207  19.114  0.00  0.00    +0.000 A 
ATOM     10  N   UNL     1       3.380   4.383  19.645  0.00  0.00    +0.000 N 
ENDROOT
BRANCH   7  11
ATOM     11  C   UNL     1       1.895   7.790  19.989  0.00  0.00    +0.000 C 
ATOM     12  O   UNL     1       1.558   8.549  19.094  0.00  0.00    +0.000 OA
BRANCH  11  13
ATOM     13  O   UNL     1       1.563   8.023  21.281  0.00  0.00    +0.000 OA
ATOM     14  H   UNL     1       1.844   7.287  21.856  0.00  0.00    +0.000 HD
ENDBRANCH  11  13
ENDBRANCH   7  11
BRANCH   9  15
ATOM     15  C   UNL     1       5.690   4.826  18.569  0.00  0.00    +0.000 C 
ATOM     16  O   UNL     1       6.681   4.580  19.249  0.00  0.00    +0.000 OA
BRANCH  15  17
ATOM     17  C   UNL     1       5.837   4.604  17.093  0.00  0.00    +0.000 A 
ATOM     18  C   UNL     1       7.052   4.963  16.488  0.00  0.00    +0.000 A 
ATOM     19  C   UNL     1       7.262   4.730  15.127  0.00  0.00    +0.000 A 
ATOM     20  C   UNL     1       6.254   4.143  14.365  0.00  0.00    +0.000 A 
ATOM     21 BR   UNL     1       6.546   3.802  12.529  0.00  0.00    +0.000 Br
ATOM     22  C   UNL     1       5.033   3.806  14.946  0.00  0.00    +0.000 A 
ATOM     23  C   UNL     1       4.817   4.051  16.306  0.00  0.00    +0.000 A 
ENDBRANCH  15  17
ENDBRANCH   9  15
TORSDOF 4
ENDMDL
MODEL 2
REMARK VINA RESULT:      -7.9      0.192      1.246
REMARK  Name = 
REMARK  5 active torsions:
REMARK  status: ('A' for Active; 'I' for Inactive)
REMARK    1  A    between atoms: C_1  and  C_2
REMARK    2  A    between atoms: C_7  and  C_8
REMARK    3  A    between atoms: C_8  and  O_10
REMARK    4  A    between atoms: C_12  and  C_13
REMARK    5  A    between atoms: C_13  and  C_15
REMARK                            x       y       z     vdW  Elec       q    Type
REMARK                         _______ _______ _______ _____ _____    ______ ____
ROOT
ATOM      1  C   UNL     1       4.440   2.092  19.661  0.00  0.00    +0.000 C 
ATOM      2  C   UNL     1       3.294   3.024  19.920  0.00  0.00    +0.000 A 
ATOM      3  C   UNL     1       2.164   2.500  20.440  0.00  0.00    +0.000 A 
ATOM      4  C   UNL     1       1.042   3.347  20.754  0.00  0.00    +0.000 A 
ATOM      5  C   UNL     1       1.086   4.670  20.546  0.00  0.00    +0.000 A 
ATOM      6  C   UNL     1       2.246   5.272  19.963  0.00  0.00    +0.000 A 
ATOM      7  C   UNL     1       2.566   6.583  19.647  0.00  0.00    +0.000 A 
ATOM      8  C   UNL     1       3.873   6.540  19.117  0.00  0.00    +0.000 A 
ATOM      9  C   UNL     1       4.375   5.248  19.157  0.00  0.00    +0.000 A 
ATOM     10  N   UNL     1       3.351   4.427  19.662  0.00  0.00    +0.000 N 
ENDROOT
BRANCH   7  11
ATOM     11  C   UNL     1       1.809   7.822  19.819  0.00  0.00    +0.000 C 
ATOM     12  O   UNL     1       1.326   8.157  20.889  0.00  0.00    +0.000 OA
BRANCH  11  13
ATOM     13  O   UNL     1       1.722   8.610  18.721  0.00  0.00    +0.000 OA
ATOM     14  H   UNL     1       2.416   8.391  18.072  0.00  0.00    +0.000 HD
ENDBRANCH  11  13
ENDBRANCH   7  11
BRANCH   9  15
ATOM     15  C   UNL     1       5.707   4.867  18.691  0.00  0.00    +0.000 C 
ATOM     16  O   UNL     1       6.670   4.672  19.427  0.00  0.00    +0.000 OA
BRANCH  15  17
ATOM     17  C   UNL     1       5.928   4.581  17.235  0.00  0.00    +0.000 A 
ATOM     18  C   UNL     1       4.889   3.968  16.517  0.00  0.00    +0.000 A 
ATOM     19  C   UNL     1       5.021   3.726  15.148  0.00  0.00    +0.000 A 
ATOM     20  C   UNL     1       6.197   4.090  14.494  0.00  0.00    +0.000 A 
ATOM     21 BR   UNL     1       6.368   3.788  12.636  0.00  0.00    +0.000 Br
ATOM     22  C   UNL     1       7.247   4.674  15.199  0.00  0.00    +0.000 A 
ATOM     23  C   UNL     1       7.121   4.906  16.573  0.00  0.00    +0.000 A 
ENDBRANCH  15  17
ENDBRANCH   9  15
TORSDOF 4
ENDMDL
MODEL 3
REMARK VINA RESULT:      -6.9      1.219      1.874
REMARK  Name = 
REMARK  5 active torsions:
REMARK  status: ('A' for Active; 'I' for Inactive)
REMARK    1  A    between atoms: C_1  and  C_2
REMARK    2  A    between atoms: C_7  and  C_8
REMARK    3  A    between atoms: C_8  and  O_10
REMARK    4  A    between atoms: C_12  and  C_13
REMARK    5  A    between atoms: C_13  and  C_15
REMARK                            x       y       z     vdW  Elec       q    Type
REMARK                         _______ _______ _______ _____ _____    ______ ____
ROOT
ATOM      1  C   UNL     1       4.994   3.467  19.541  0.00  0.00    +0.000 C 
ATOM      2  C   UNL     1       3.783   4.343  19.664  0.00  0.00    +0.000 A 
ATOM      3  C   UNL     1       2.766   3.904  20.435  0.00  0.00    +0.000 A 
ATOM      4  C   UNL     1       1.593   4.716  20.632  0.00  0.00    +0.000 A 
ATOM      5  C   UNL     1       1.478   5.924  20.064  0.00  0.00    +0.000 A 
ATOM      6  C   UNL     1       2.511   6.423  19.208  0.00  0.00    +0.000 A 
ATOM      7  C   UNL     1       2.660   7.610  18.509  0.00  0.00    +0.000 A 
ATOM      8  C   UNL     1       3.912   7.519  17.864  0.00  0.00    +0.000 A 
ATOM      9  C   UNL     1       4.550   6.334  18.199  0.00  0.00    +0.000 A 
ATOM     10  N   UNL     1       3.668   5.615  19.026  0.00  0.00    +0.000 N 
ENDROOT
BRANCH   7  11
ATOM     11  C   UNL     1       1.794   8.785  18.420  0.00  0.00    +0.000 C 
ATOM     12  O   UNL     1       1.046   9.123  19.323  0.00  0.00    +0.000 OA
BRANCH  11  13
ATOM     13  O   UNL     1       1.914   9.514  17.285  0.00  0.00    +0.000 OA
ATOM     14  H   UNL     1       2.030   8.940  16.506  0.00  0.00    +0.000 HD
ENDBRANCH  11  13
ENDBRANCH   7  11
BRANCH   9  15
ATOM     15  C   UNL     1       5.868   5.940  17.706  0.00  0.00    +0.000 C 
ATOM     16  O   UNL     1       6.909   6.048  18.346  0.00  0.00    +0.000 OA
BRANCH  15  17
ATOM     17  C   UNL     1       5.986   5.255  16.376  0.00  0.00    +0.000 A 
ATOM     18  C   UNL     1       4.876   4.540  15.900  0.00  0.00    +0.000 A 
ATOM     19  C   UNL     1       4.913   3.927  14.646  0.00  0.00    +0.000 A 
ATOM     20  C   UNL     1       6.064   4.023  13.866  0.00  0.00    +0.000 A 
ATOM     21 BR   UNL     1       6.107   3.216  12.157  0.00  0.00    +0.000 Br
ATOM     22  C   UNL     1       7.183   4.706  14.337  0.00  0.00    +0.000 A 
ATOM     23  C   UNL     1       7.151   5.310  15.599  0.00  0.00    +0.000 A 
ENDBRANCH  15  17
ENDBRANCH   9  15
TORSDOF 4
ENDMDL
MODEL 4
REMARK VINA RESULT:      -6.7      3.300      6.150
REMARK  Name = 
REMARK  5 active torsions:
REMARK  status: ('A' for Active; 'I' for Inactive)
REMARK    1  A    between atoms: C_1  and  C_2
REMARK    2  A    between atoms: C_7  and  C_8
REMARK    3  A    between atoms: C_8  and  O_10
REMARK    4  A    between atoms: C_12  and  C_13
REMARK    5  A    between atoms: C_13  and  C_15
REMARK                            x       y       z     vdW  Elec       q    Type
REMARK                         _______ _______ _______ _____ _____    ______ ____
ROOT
ATOM      1  C   UNL     1       2.585   3.818  16.798  0.00  0.00    +0.000 C 
ATOM      2  C   UNL     1       4.072   4.004  16.766  0.00  0.00    +0.000 A 
ATOM      3  C   UNL     1       4.743   3.528  15.696  0.00  0.00    +0.000 A 
ATOM      4  C   UNL     1       6.167   3.713  15.582  0.00  0.00    +0.000 A 
ATOM      5  C   UNL     1       6.863   4.363  16.524  0.00  0.00    +0.000 A 
ATOM      6  C   UNL     1       6.208   4.857  17.697  0.00  0.00    +0.000 A 
ATOM      7  C   UNL     1       6.663   5.554  18.805  0.00  0.00    +0.000 A 
ATOM      8  C   UNL     1       5.526   5.777  19.610  0.00  0.00    +0.000 A 
ATOM      9  C   UNL     1       4.386   5.284  18.994  0.00  0.00    +0.000 A 
ATOM     10  N   UNL     1       4.800   4.674  17.796  0.00  0.00    +0.000 N 
ENDROOT
BRANCH   7  11
ATOM     11  C   UNL     1       7.998   6.040  19.148  0.00  0.00    +0.000 C 
ATOM     12  O   UNL     1       8.448   7.092  18.720  0.00  0.00    +0.000 OA
BRANCH  11  13
ATOM     13  O   UNL     1       8.693   5.274  20.022  0.00  0.00    +0.000 OA
ATOM     14  H   UNL     1       9.636   5.521  20.036  0.00  0.00    +0.000 HD
ENDBRANCH  11  13
ENDBRANCH   7  11
BRANCH   9  15
ATOM     15  C   UNL     1       3.042   5.365  19.563  0.00  0.00    +0.000 C 
ATOM     16  O   UNL     1       2.441   4.418  20.060  0.00  0.00    +0.000 OA
BRANCH  15  17
ATOM     17  C   UNL     1       2.360   6.697  19.663  0.00  0.00    +0.000 A 
ATOM     18  C   UNL     1       2.401   7.547  18.547  0.00  0.00    +0.000 A 
ATOM     19  C   UNL     1       1.739   8.777  18.568  0.00  0.00    +0.000 A 
ATOM     20  C   UNL     1       1.039   9.163  19.709  0.00  0.00    +0.000 A 
ATOM     21 BR   UNL     1       0.121  10.815  19.730  0.00  0.00    +0.000 Br
ATOM     22  C   UNL     1       1.013   8.343  20.835  0.00  0.00    +0.000 A 
ATOM     23  C   UNL     1       1.686   7.116  20.819  0.00  0.00    +0.000 A 
ENDBRANCH  15  17
ENDBRANCH   9  15
TORSDOF 4
ENDMDL
MODEL 5
REMARK VINA RESULT:      -6.7      1.987      3.791
REMARK  Name = 
REMARK  5 active torsions:
REMARK  status: ('A' for Active; 'I' for Inactive)
REMARK    1  A    between atoms: C_1  and  C_2
REMARK    2  A    between atoms: C_7  and  C_8
REMARK    3  A    between atoms: C_8  and  O_10
REMARK    4  A    between atoms: C_12  and  C_13
REMARK    5  A    between atoms: C_13  and  C_15
REMARK                            x       y       z     vdW  Elec       q    Type
REMARK                         _______ _______ _______ _____ _____    ______ ____
ROOT
ATOM      1  C   UNL     1       2.750   7.414  18.229  0.00  0.00    +0.000 C 
ATOM      2  C   UNL     1       2.681   6.207  19.118  0.00  0.00    +0.000 A 
ATOM      3  C   UNL     1       1.657   6.128  19.992  0.00  0.00    +0.000 A 
ATOM      4  C   UNL     1       1.507   4.975  20.843  0.00  0.00    +0.000 A 
ATOM      5  C   UNL     1       2.371   3.952  20.789  0.00  0.00    +0.000 A 
ATOM      6  C   UNL     1       3.496   4.001  19.906  0.00  0.00    +0.000 A 
ATOM      7  C   UNL     1       4.523   3.108  19.642  0.00  0.00    +0.000 A 
ATOM      8  C   UNL     1       5.316   3.720  18.649  0.00  0.00    +0.000 A 
ATOM      9  C   UNL     1       4.766   4.934  18.263  0.00  0.00    +0.000 A 
ATOM     10  N   UNL     1       3.630   5.142  19.066  0.00  0.00    +0.000 N 
ENDROOT
BRANCH   7  11
ATOM     11  C   UNL     1       4.799   1.779  20.185  0.00  0.00    +0.000 C 
ATOM     12  O   UNL     1       5.032   1.584  21.367  0.00  0.00    +0.000 OA
BRANCH  11  13
ATOM     13  O   UNL     1       4.727   0.759  19.297  0.00  0.00    +0.000 OA
ATOM     14  H   UNL     1       5.568   0.650  18.815  0.00  0.00    +0.000 HD
ENDBRANCH  11  13
ENDBRANCH   7  11
BRANCH   9  15
ATOM     15  C   UNL     1       5.341   5.811  17.245  0.00  0.00    +0.000 C 
ATOM     16  O   UNL     1       5.576   7.004  17.410  0.00  0.00    +0.000 OA
BRANCH  15  17
ATOM     17  C   UNL     1       5.787   5.232  15.935  0.00  0.00    +0.000 A 
ATOM     18  C   UNL     1       4.857   4.490  15.189  0.00  0.00    +0.000 A 
ATOM     19  C   UNL     1       5.204   3.972  13.939  0.00  0.00    +0.000 A 
ATOM     20  C   UNL     1       6.484   4.189  13.434  0.00  0.00    +0.000 A 
ATOM     21 BR   UNL     1       6.947   3.512  11.731  0.00  0.00    +0.000 Br
ATOM     22  C   UNL     1       7.426   4.900  14.175  0.00  0.00    +0.000 A 
ATOM     23  C   UNL     1       7.084   5.409  15.433  0.00  0.00    +0.000 A 
ENDBRANCH  15  17
ENDBRANCH   9  15
TORSDOF 4
ENDMDL
MODEL 6
REMARK VINA RESULT:      -6.6      1.959      3.646
REMARK  Name = 
REMARK  5 active torsions:
REMARK  status: ('A' for Active; 'I' for Inactive)
REMARK    1  A    between atoms: C_1  and  C_2
REMARK    2  A    between atoms: C_7  and  C_8
REMARK    3  A    between atoms: C_8  and  O_10
REMARK    4  A    between atoms: C_12  and  C_13
REMARK    5  A    between atoms: C_13  and  C_15
REMARK                            x       y       z     vdW  Elec       q    Type
REMARK                         _______ _______ _______ _____ _____    ______ ____
ROOT
ATOM      1  C   UNL     1       2.603   7.121  18.209  0.00  0.00    +0.000 C 
ATOM      2  C   UNL     1       2.561   5.914  19.099  0.00  0.00    +0.000 A 
ATOM      3  C   UNL     1       1.494   5.770  19.912  0.00  0.00    +0.000 A 
ATOM      4  C   UNL     1       1.371   4.611  20.759  0.00  0.00    +0.000 A 
ATOM      5  C   UNL     1       2.301   3.647  20.762  0.00  0.00    +0.000 A 
ATOM      6  C   UNL     1       3.471   3.768  19.946  0.00  0.00    +0.000 A 
ATOM      7  C   UNL     1       4.567   2.944  19.748  0.00  0.00    +0.000 A 
ATOM      8  C   UNL     1       5.376   3.605  18.799  0.00  0.00    +0.000 A 
ATOM      9  C   UNL     1       4.771   4.779  18.375  0.00  0.00    +0.000 A 
ATOM     10  N   UNL     1       3.579   4.913  19.109  0.00  0.00    +0.000 N 
ENDROOT
BRANCH   7  11
ATOM     11  C   UNL     1       4.898   1.636  20.313  0.00  0.00    +0.000 C 
ATOM     12  O   UNL     1       5.133   1.471  21.499  0.00  0.00    +0.000 OA
BRANCH  11  13
ATOM     13  O   UNL     1       4.873   0.600  19.442  0.00  0.00    +0.000 OA
ATOM     14  H   UNL     1       5.031   0.903  18.528  0.00  0.00    +0.000 HD
ENDBRANCH  11  13
ENDBRANCH   7  11
BRANCH   9  15
ATOM     15  C   UNL     1       5.346   5.690  17.387  0.00  0.00    +0.000 C 
ATOM     16  O   UNL     1       5.669   6.851  17.620  0.00  0.00    +0.000 OA
BRANCH  15  17
ATOM     17  C   UNL     1       5.679   5.181  16.016  0.00  0.00    +0.000 A 
ATOM     18  C   UNL     1       6.974   5.407  15.523  0.00  0.00    +0.000 A 
ATOM     19  C   UNL     1       7.354   4.909  14.275  0.00  0.00    +0.000 A 
ATOM     20  C   UNL     1       6.437   4.189  13.512  0.00  0.00    +0.000 A 
ATOM     21 BR   UNL     1       6.957   3.491  11.834  0.00  0.00    +0.000 Br
ATOM     22  C   UNL     1       5.139   3.980  13.976  0.00  0.00    +0.000 A 
ATOM     23  C   UNL     1       4.754   4.489  15.221  0.00  0.00    +0.000 A 
ENDBRANCH  15  17
ENDBRANCH   9  15
TORSDOF 4
ENDMDL
MODEL 7
REMARK VINA RESULT:      -6.6      2.050      3.241
REMARK  Name = 
REMARK  5 active torsions:
REMARK  status: ('A' for Active; 'I' for Inactive)
REMARK    1  A    between atoms: C_1  and  C_2
REMARK    2  A    between atoms: C_7  and  C_8
REMARK    3  A    between atoms: C_8  and  O_10
REMARK    4  A    between atoms: C_12  and  C_13
REMARK    5  A    between atoms: C_13  and  C_15
REMARK                            x       y       z     vdW  Elec       q    Type
REMARK                         _______ _______ _______ _____ _____    ______ ____
ROOT
ATOM      1  C   UNL     1       5.081   7.333  17.189  0.00  0.00    +0.000 C 
ATOM      2  C   UNL     1       4.000   6.815  18.091  0.00  0.00    +0.000 A 
ATOM      3  C   UNL     1       2.928   7.606  18.305  0.00  0.00    +0.000 A 
ATOM      4  C   UNL     1       1.835   7.151  19.125  0.00  0.00    +0.000 A 
ATOM      5  C   UNL     1       1.847   5.937  19.692  0.00  0.00    +0.000 A 
ATOM      6  C   UNL     1       2.975   5.073  19.528  0.00  0.00    +0.000 A 
ATOM      7  C   UNL     1       3.253   3.794  19.983  0.00  0.00    +0.000 A 
ATOM      8  C   UNL     1       4.525   3.471  19.464  0.00  0.00    +0.000 A 
ATOM      9  C   UNL     1       5.000   4.497  18.660  0.00  0.00    +0.000 A 
ATOM     10  N   UNL     1       4.047   5.530  18.711  0.00  0.00    +0.000 N 
ENDROOT
BRANCH   7  11
ATOM     11  C   UNL     1       2.460   2.872  20.794  0.00  0.00    +0.000 C 
ATOM     12  O   UNL     1       1.368   2.455  20.441  0.00  0.00    +0.000 OA
BRANCH  11  13
ATOM     13  O   UNL     1       3.039   2.460  21.947  0.00  0.00    +0.000 OA
ATOM     14  H   UNL     1       2.613   2.871  22.722  0.00  0.00    +0.000 HD
ENDBRANCH  11  13
ENDBRANCH   7  11
BRANCH   9  15
ATOM     15  C   UNL     1       6.285   4.470  17.965  0.00  0.00    +0.000 C 
ATOM     16  O   UNL     1       7.377   4.447  18.525  0.00  0.00    +0.000 OA
BRANCH  15  17
ATOM     17  C   UNL     1       6.315   4.354  16.470  0.00  0.00    +0.000 A 
ATOM     18  C   UNL     1       7.411   4.903  15.785  0.00  0.00    +0.000 A 
ATOM     19  C   UNL     1       7.515   4.777  14.398  0.00  0.00    +0.000 A 
ATOM     20  C   UNL     1       6.520   4.107  13.690  0.00  0.00    +0.000 A 
ATOM     21 BR   UNL     1       6.671   3.912  11.816  0.00  0.00    +0.000 Br
ATOM     22  C   UNL     1       5.412   3.580  14.353  0.00  0.00    +0.000 A 
ATOM     23  C   UNL     1       5.301   3.717  15.741  0.00  0.00    +0.000 A 
ENDBRANCH  15  17
ENDBRANCH   9  15
TORSDOF 4
ENDMDL
MODEL 8
REMARK VINA RESULT:      -6.6      3.789      6.144
REMARK  Name = 
REMARK  5 active torsions:
REMARK  status: ('A' for Active; 'I' for Inactive)
REMARK    1  A    between atoms: C_1  and  C_2
REMARK    2  A    between atoms: C_7  and  C_8
REMARK    3  A    between atoms: C_8  and  O_10
REMARK    4  A    between atoms: C_12  and  C_13
REMARK    5  A    between atoms: C_13  and  C_15
REMARK                            x       y       z     vdW  Elec       q    Type
REMARK                         _______ _______ _______ _____ _____    ______ ____
ROOT
ATOM      1  C   UNL     1       1.182   4.822  17.679  0.00  0.00    +0.000 C 
ATOM      2  C   UNL     1       2.463   4.180  18.122  0.00  0.00    +0.000 A 
ATOM      3  C   UNL     1       2.461   2.845  18.319  0.00  0.00    +0.000 A 
ATOM      4  C   UNL     1       3.669   2.160  18.701  0.00  0.00    +0.000 A 
ATOM      5  C   UNL     1       4.823   2.820  18.867  0.00  0.00    +0.000 A 
ATOM      6  C   UNL     1       4.873   4.242  18.707  0.00  0.00    +0.000 A 
ATOM      7  C   UNL     1       5.903   5.163  18.808  0.00  0.00    +0.000 A 
ATOM      8  C   UNL     1       5.326   6.416  18.511  0.00  0.00    +0.000 A 
ATOM      9  C   UNL     1       3.987   6.271  18.178  0.00  0.00    +0.000 A 
ATOM     10  N   UNL     1       3.675   4.907  18.323  0.00  0.00    +0.000 N 
ENDROOT
BRANCH   7  11
ATOM     11  C   UNL     1       7.323   4.984  19.108  0.00  0.00    +0.000 C 
ATOM     12  O   UNL     1       8.102   4.464  18.326  0.00  0.00    +0.000 OA
BRANCH  11  13
ATOM     13  O   UNL     1       7.736   5.484  20.297  0.00  0.00    +0.000 OA
ATOM     14  H   UNL     1       8.647   5.825  20.239  0.00  0.00    +0.000 HD
ENDBRANCH  11  13
ENDBRANCH   7  11
BRANCH   9  15
ATOM     15  C   UNL     1       3.106   7.378  17.809  0.00  0.00    +0.000 C 
ATOM     16  O   UNL     1       2.959   7.795  16.665  0.00  0.00    +0.000 OA
BRANCH  15  17
ATOM     17  C   UNL     1       2.224   8.000  18.851  0.00  0.00    +0.000 A 
ATOM     18  C   UNL     1       2.108   7.353  20.091  0.00  0.00    +0.000 A 
ATOM     19  C   UNL     1       1.342   7.915  21.115  0.00  0.00    +0.000 A 
ATOM     20  C   UNL     1       0.685   9.124  20.899  0.00  0.00    +0.000 A 
ATOM     21 BR   UNL     1      -0.331   9.901  22.291  0.00  0.00    +0.000 Br
ATOM     22  C   UNL     1       0.769   9.765  19.664  0.00  0.00    +0.000 A 
ATOM     23  C   UNL     1       1.525   9.196  18.634  0.00  0.00    +0.000 A 
ENDBRANCH  15  17
ENDBRANCH   9  15
TORSDOF 4
ENDMDL
MODEL 9
REMARK VINA RESULT:      -6.6      2.050      3.436
REMARK  Name = 
REMARK  5 active torsions:
REMARK  status: ('A' for Active; 'I' for Inactive)
REMARK    1  A    between atoms: C_1  and  C_2
REMARK    2  A    between atoms: C_7  and  C_8
REMARK    3  A    between atoms: C_8  and  O_10
REMARK    4  A    between atoms: C_12  and  C_13
REMARK    5  A    between atoms: C_13  and  C_15
REMARK                            x       y       z     vdW  Elec       q    Type
REMARK                         _______ _______ _______ _____ _____    ______ ____
ROOT
ATOM      1  C   UNL     1       5.107   7.351  17.125  0.00  0.00    +0.000 C 
ATOM      2  C   UNL     1       4.032   6.838  18.037  0.00  0.00    +0.000 A 
ATOM      3  C   UNL     1       2.940   7.611  18.218  0.00  0.00    +0.000 A 
ATOM      4  C   UNL     1       1.852   7.157  19.046  0.00  0.00    +0.000 A 
ATOM      5  C   UNL     1       1.888   5.963  19.652  0.00  0.00    +0.000 A 
ATOM      6  C   UNL     1       3.037   5.120  19.524  0.00  0.00    +0.000 A 
ATOM      7  C   UNL     1       3.340   3.863  20.022  0.00  0.00    +0.000 A 
ATOM      8  C   UNL     1       4.623   3.553  19.522  0.00  0.00    +0.000 A 
ATOM      9  C   UNL     1       5.080   4.563  18.688  0.00  0.00    +0.000 A 
ATOM     10  N   UNL     1       4.103   5.575  18.699  0.00  0.00    +0.000 N 
ENDROOT
BRANCH   7  11
ATOM     11  C   UNL     1       2.562   2.950  20.858  0.00  0.00    +0.000 C 
ATOM     12  O   UNL     1       2.656   2.927  22.075  0.00  0.00    +0.000 OA
BRANCH  11  13
ATOM     13  O   UNL     1       1.680   2.162  20.198  0.00  0.00    +0.000 OA
ATOM     14  H   UNL     1       1.950   1.226  20.231  0.00  0.00    +0.000 HD
ENDBRANCH  11  13
ENDBRANCH   7  11
BRANCH   9  15
ATOM     15  C   UNL     1       6.370   4.543  18.001  0.00  0.00    +0.000 C 
ATOM     16  O   UNL     1       7.457   4.588  18.568  0.00  0.00    +0.000 OA
BRANCH  15  17
ATOM     17  C   UNL     1       6.414   4.347  16.515  0.00  0.00    +0.000 A 
ATOM     18  C   UNL     1       5.385   3.604  15.915  0.00  0.00    +0.000 A 
ATOM     19  C   UNL     1       5.348   3.434  14.529  0.00  0.00    +0.000 A 
ATOM     20  C   UNL     1       6.346   4.003  13.739  0.00  0.00    +0.000 A 
ATOM     21 BR   UNL     1       6.284   3.797  11.861  0.00  0.00    +0.000 Br
ATOM     22  C   UNL     1       7.389   4.720  14.323  0.00  0.00    +0.000 A 
ATOM     23  C   UNL     1       7.433   4.879  15.712  0.00  0.00    +0.000 A 
ENDBRANCH  15  17
ENDBRANCH   9  15
TORSDOF 4
ENDMDL
