MODEL 1
REMARK VINA RESULT:      -6.9      0.000      0.000
REMARK  Name = 
REMARK  7 active torsions:
REMARK  status: ('A' for Active; 'I' for Inactive)
REMARK    1  A    between atoms: C_1  and  N_2
REMARK    2  A    between atoms: N_2  and  C_3
REMARK    3  A    between atoms: N_2  and  C_4
REMARK    4  A    between atoms: C_7  and  C_8
REMARK    5  A    between atoms: N_13  and  C_14
REMARK    6  A    between atoms: C_14  and  C_15
REMARK    7  A    between atoms: C_15  and  O_17
REMARK                            x       y       z     vdW  Elec       q    Type
REMARK                         _______ _______ _______ _____ _____    ______ ____
ROOT
ATOM      1  C   UNL     1       2.866   6.008  18.001  0.00  0.00    +0.000 C 
ATOM      2  C   UNL     1       4.105   5.934  17.493  0.00  0.00    +0.000 C 
ATOM      3  S   UNL     1       5.310   7.165  17.514  0.00  0.00    +0.000 S 
ATOM      4  C   UNL     1       6.480   6.158  16.687  0.00  0.00    +0.000 C 
ATOM      5  O   UNL     1       7.625   6.518  16.465  0.00  0.00    +0.000 OA
ATOM      6  N   UNL     1       5.911   4.965  16.336  0.00  0.00    +0.000 N 
ATOM      7  C   UNL     1       4.642   4.729  16.799  0.00  0.00    +0.000 C 
ATOM      8  O   UNL     1       4.072   3.650  16.696  0.00  0.00    +0.000 OA
ENDROOT
BRANCH   1  12
ATOM      9  C   UNL     1       1.122   9.487  19.907  0.00  0.00    +0.000 A 
ATOM     10  C   UNL     1       1.492   8.341  20.630  0.00  0.00    +0.000 A 
ATOM     11  C   UNL     1       2.058   7.214  20.013  0.00  0.00    +0.000 A 
ATOM     12  C   UNL     1       2.293   7.200  18.640  0.00  0.00    +0.000 A 
ATOM     13  C   UNL     1       1.956   8.329  17.897  0.00  0.00    +0.000 A 
ATOM     14  C   UNL     1       1.382   9.448  18.525  0.00  0.00    +0.000 A 
BRANCH   9  16
ATOM     15  C   UNL     1      -0.152  10.472  21.791  0.00  0.00    +0.000 C 
ATOM     16  N   UNL     1       0.550  10.603  20.519  0.00  0.00    +0.000 N 
ATOM     17  C   UNL     1       0.285  11.804  19.734  0.00  0.00    +0.000 C 
ENDBRANCH   9  16
ENDBRANCH   1  12
BRANCH   6  18
ATOM     18  C   UNL     1       6.635   4.005  15.516  0.00  0.00    +0.000 C 
BRANCH  18  19
ATOM     19  C   UNL     1       6.588   4.318  14.027  0.00  0.00    +0.000 C 
ATOM     20  O   UNL     1       5.913   3.695  13.221  0.00  0.00    +0.000 OA
BRANCH  19  21
ATOM     21  O   UNL     1       7.459   5.278  13.637  0.00  0.00    +0.000 OA
ATOM     22  H   UNL     1       8.381   4.968  13.476  0.00  0.00    +0.000 HD
ENDBRANCH  19  21
ENDBRANCH  18  19
ENDBRANCH   6  18
TORSDOF 5
ENDMDL
MODEL 2
REMARK VINA RESULT:      -6.9      0.206      1.302
REMARK  Name = 
REMARK  7 active torsions:
REMARK  status: ('A' for Active; 'I' for Inactive)
REMARK    1  A    between atoms: C_1  and  N_2
REMARK    2  A    between atoms: N_2  and  C_3
REMARK    3  A    between atoms: N_2  and  C_4
REMARK    4  A    between atoms: C_7  and  C_8
REMARK    5  A    between atoms: N_13  and  C_14
REMARK    6  A    between atoms: C_14  and  C_15
REMARK    7  A    between atoms: C_15  and  O_17
REMARK                            x       y       z     vdW  Elec       q    Type
REMARK                         _______ _______ _______ _____ _____    ______ ____
ROOT
ATOM      1  C   UNL     1       2.868   5.882  18.022  0.00  0.00    +0.000 C 
ATOM      2  C   UNL     1       4.103   5.841  17.502  0.00  0.00    +0.000 C 
ATOM      3  S   UNL     1       5.278   7.100  17.519  0.00  0.00    +0.000 S 
ATOM      4  C   UNL     1       6.465   6.128  16.674  0.00  0.00    +0.000 C 
ATOM      5  O   UNL     1       7.599   6.517  16.444  0.00  0.00    +0.000 OA
ATOM      6  N   UNL     1       5.921   4.924  16.321  0.00  0.00    +0.000 N 
ATOM      7  C   UNL     1       4.663   4.654  16.795  0.00  0.00    +0.000 C 
ATOM      8  O   UNL     1       4.118   3.562  16.691  0.00  0.00    +0.000 OA
ENDROOT
BRANCH   1  12
ATOM      9  C   UNL     1       1.163   9.383  19.922  0.00  0.00    +0.000 A 
ATOM     10  C   UNL     1       1.393   9.317  18.538  0.00  0.00    +0.000 A 
ATOM     11  C   UNL     1       1.945   8.182  17.922  0.00  0.00    +0.000 A 
ATOM     12  C   UNL     1       2.272   7.056  18.673  0.00  0.00    +0.000 A 
ATOM     13  C   UNL     1       2.038   7.082  20.046  0.00  0.00    +0.000 A 
ATOM     14  C   UNL     1       1.492   8.227  20.653  0.00  0.00    +0.000 A 
BRANCH   9  16
ATOM     15  C   UNL     1       1.022  11.851  20.106  0.00  0.00    +0.000 C 
ATOM     16  N   UNL     1       0.624  10.515  20.535  0.00  0.00    +0.000 N 
ATOM     17  C   UNL     1      -0.006  10.398  21.846  0.00  0.00    +0.000 C 
ENDBRANCH   9  16
ENDBRANCH   1  12
BRANCH   6  18
ATOM     18  C   UNL     1       6.660   3.986  15.489  0.00  0.00    +0.000 C 
BRANCH  18  19
ATOM     19  C   UNL     1       6.595   4.309  14.003  0.00  0.00    +0.000 C 
ATOM     20  O   UNL     1       5.913   3.692  13.200  0.00  0.00    +0.000 OA
BRANCH  19  21
ATOM     21  O   UNL     1       7.460   5.274  13.610  0.00  0.00    +0.000 OA
ATOM     22  H   UNL     1       7.185   5.785  12.812  0.00  0.00    +0.000 HD
ENDBRANCH  19  21
ENDBRANCH  18  19
ENDBRANCH   6  18
TORSDOF 5
ENDMDL
MODEL 3
REMARK VINA RESULT:      -6.6      1.539      2.393
REMARK  Name = 
REMARK  7 active torsions:
REMARK  status: ('A' for Active; 'I' for Inactive)
REMARK    1  A    between atoms: C_1  and  N_2
REMARK    2  A    between atoms: N_2  and  C_3
REMARK    3  A    between atoms: N_2  and  C_4
REMARK    4  A    between atoms: C_7  and  C_8
REMARK    5  A    between atoms: N_13  and  C_14
REMARK    6  A    between atoms: C_14  and  C_15
REMARK    7  A    between atoms: C_15  and  O_17
REMARK                            x       y       z     vdW  Elec       q    Type
REMARK                         _______ _______ _______ _____ _____    ______ ____
ROOT
ATOM      1  C   UNL     1       3.276   7.844  17.541  0.00  0.00    +0.000 C 
ATOM      2  C   UNL     1       3.643   6.557  17.462  0.00  0.00    +0.000 C 
ATOM      3  S   UNL     1       3.087   5.257  18.444  0.00  0.00    +0.000 S 
ATOM      4  C   UNL     1       4.069   4.079  17.598  0.00  0.00    +0.000 C 
ATOM      5  O   UNL     1       4.034   2.885  17.849  0.00  0.00    +0.000 OA
ATOM      6  N   UNL     1       4.854   4.701  16.668  0.00  0.00    +0.000 N 
ATOM      7  C   UNL     1       4.635   6.041  16.474  0.00  0.00    +0.000 C 
ATOM      8  O   UNL     1       5.149   6.690  15.572  0.00  0.00    +0.000 OA
ENDROOT
BRANCH   1  12
ATOM      9  C   UNL     1       0.496   9.392  20.483  0.00  0.00    +0.000 A 
ATOM     10  C   UNL     1       1.310   8.274  20.734  0.00  0.00    +0.000 A 
ATOM     11  C   UNL     1       2.211   7.773  19.781  0.00  0.00    +0.000 A 
ATOM     12  C   UNL     1       2.346   8.389  18.538  0.00  0.00    +0.000 A 
ATOM     13  C   UNL     1       1.568   9.512  18.266  0.00  0.00    +0.000 A 
ATOM     14  C   UNL     1       0.663  10.000  19.226  0.00  0.00    +0.000 A 
BRANCH   9  16
ATOM     15  C   UNL     1      -1.003  11.204  21.265  0.00  0.00    +0.000 C 
ATOM     16  N   UNL     1      -0.406   9.883  21.427  0.00  0.00    +0.000 N 
ATOM     17  C   UNL     1      -0.453   9.292  22.761  0.00  0.00    +0.000 C 
ENDBRANCH   9  16
ENDBRANCH   1  12
BRANCH   6  18
ATOM     18  C   UNL     1       5.862   3.959  15.924  0.00  0.00    +0.000 C 
BRANCH  18  19
ATOM     19  C   UNL     1       7.271   4.508  16.096  0.00  0.00    +0.000 C 
ATOM     20  O   UNL     1       7.945   4.352  17.103  0.00  0.00    +0.000 OA
BRANCH  19  21
ATOM     21  O   UNL     1       7.683   5.298  15.077  0.00  0.00    +0.000 OA
ATOM     22  H   UNL     1       7.006   5.928  14.734  0.00  0.00    +0.000 HD
ENDBRANCH  19  21
ENDBRANCH  18  19
ENDBRANCH   6  18
TORSDOF 5
ENDMDL
MODEL 4
REMARK VINA RESULT:      -6.5      1.785      2.776
REMARK  Name = 
REMARK  7 active torsions:
REMARK  status: ('A' for Active; 'I' for Inactive)
REMARK    1  A    between atoms: C_1  and  N_2
REMARK    2  A    between atoms: N_2  and  C_3
REMARK    3  A    between atoms: N_2  and  C_4
REMARK    4  A    between atoms: C_7  and  C_8
REMARK    5  A    between atoms: N_13  and  C_14
REMARK    6  A    between atoms: C_14  and  C_15
REMARK    7  A    between atoms: C_15  and  O_17
REMARK                            x       y       z     vdW  Elec       q    Type
REMARK                         _______ _______ _______ _____ _____    ______ ____
ROOT
ATOM      1  C   UNL     1       2.916   7.933  17.857  0.00  0.00    +0.000 C 
ATOM      2  C   UNL     1       3.467   6.715  17.958  0.00  0.00    +0.000 C 
ATOM      3  S   UNL     1       3.207   5.559  19.208  0.00  0.00    +0.000 S 
ATOM      4  C   UNL     1       4.277   4.385  18.468  0.00  0.00    +0.000 C 
ATOM      5  O   UNL     1       4.448   3.265  18.922  0.00  0.00    +0.000 OA
ATOM      6  N   UNL     1       4.869   4.922  17.358  0.00  0.00    +0.000 N 
ATOM      7  C   UNL     1       4.431   6.160  16.965  0.00  0.00    +0.000 C 
ATOM      8  O   UNL     1       4.756   6.692  15.911  0.00  0.00    +0.000 OA
ENDROOT
BRANCH   1  12
ATOM      9  C   UNL     1       0.272   9.740  20.778  0.00  0.00    +0.000 A 
ATOM     10  C   UNL     1       0.406  10.243  19.473  0.00  0.00    +0.000 A 
ATOM     11  C   UNL     1       1.262   9.658  18.526  0.00  0.00    +0.000 A 
ATOM     12  C   UNL     1       2.008   8.526  18.848  0.00  0.00    +0.000 A 
ATOM     13  C   UNL     1       1.882   7.990  20.128  0.00  0.00    +0.000 A 
ATOM     14  C   UNL     1       1.028   8.590  21.070  0.00  0.00    +0.000 A 
BRANCH   9  16
ATOM     15  C   UNL     1      -1.180  11.629  21.462  0.00  0.00    +0.000 C 
ATOM     16  N   UNL     1      -0.571  10.328  21.720  0.00  0.00    +0.000 N 
ATOM     17  C   UNL     1      -0.536   9.875  23.107  0.00  0.00    +0.000 C 
ENDBRANCH   9  16
ENDBRANCH   1  12
BRANCH   6  18
ATOM     18  C   UNL     1       5.906   4.196  16.641  0.00  0.00    +0.000 C 
BRANCH  18  19
ATOM     19  C   UNL     1       7.307   4.739  16.881  0.00  0.00    +0.000 C 
ATOM     20  O   UNL     1       8.046   4.349  17.772  0.00  0.00    +0.000 OA
BRANCH  19  21
ATOM     21  O   UNL     1       7.633   5.791  16.094  0.00  0.00    +0.000 OA
ATOM     22  H   UNL     1       6.904   6.129  15.521  0.00  0.00    +0.000 HD
ENDBRANCH  19  21
ENDBRANCH  18  19
ENDBRANCH   6  18
TORSDOF 5
ENDMDL
MODEL 5
REMARK VINA RESULT:      -6.5      1.521      2.469
REMARK  Name = 
REMARK  7 active torsions:
REMARK  status: ('A' for Active; 'I' for Inactive)
REMARK    1  A    between atoms: C_1  and  N_2
REMARK    2  A    between atoms: N_2  and  C_3
REMARK    3  A    between atoms: N_2  and  C_4
REMARK    4  A    between atoms: C_7  and  C_8
REMARK    5  A    between atoms: N_13  and  C_14
REMARK    6  A    between atoms: C_14  and  C_15
REMARK    7  A    between atoms: C_15  and  O_17
REMARK                            x       y       z     vdW  Elec       q    Type
REMARK                         _______ _______ _______ _____ _____    ______ ____
ROOT
ATOM      1  C   UNL     1       3.292   7.839  17.534  0.00  0.00    +0.000 C 
ATOM      2  C   UNL     1       3.665   6.553  17.456  0.00  0.00    +0.000 C 
ATOM      3  S   UNL     1       3.135   5.256  18.458  0.00  0.00    +0.000 S 
ATOM      4  C   UNL     1       4.108   4.078  17.601  0.00  0.00    +0.000 C 
ATOM      5  O   UNL     1       4.085   2.886  17.859  0.00  0.00    +0.000 OA
ATOM      6  N   UNL     1       4.870   4.699  16.651  0.00  0.00    +0.000 N 
ATOM      7  C   UNL     1       4.640   6.036  16.454  0.00  0.00    +0.000 C 
ATOM      8  O   UNL     1       5.133   6.682  15.537  0.00  0.00    +0.000 OA
ENDROOT
BRANCH   1  12
ATOM      9  C   UNL     1       0.631   9.507  20.521  0.00  0.00    +0.000 A 
ATOM     10  C   UNL     1       0.812  10.101  19.260  0.00  0.00    +0.000 A 
ATOM     11  C   UNL     1       1.673   9.560  18.292  0.00  0.00    +0.000 A 
ATOM     12  C   UNL     1       2.377   8.385  18.546  0.00  0.00    +0.000 A 
ATOM     13  C   UNL     1       2.204   7.760  19.779  0.00  0.00    +0.000 A 
ATOM     14  C   UNL     1       1.345   8.316  20.743  0.00  0.00    +0.000 A 
BRANCH   9  16
ATOM     15  C   UNL     1      -0.553   9.297  22.688  0.00  0.00    +0.000 C 
ATOM     16  N   UNL     1      -0.218  10.051  21.485  0.00  0.00    +0.000 N 
ATOM     17  C   UNL     1      -1.091  11.167  21.136  0.00  0.00    +0.000 C 
ENDBRANCH   9  16
ENDBRANCH   1  12
BRANCH   6  18
ATOM     18  C   UNL     1       5.868   3.958  15.893  0.00  0.00    +0.000 C 
BRANCH  18  19
ATOM     19  C   UNL     1       7.279   4.507  16.045  0.00  0.00    +0.000 C 
ATOM     20  O   UNL     1       7.962   4.365  17.047  0.00  0.00    +0.000 OA
BRANCH  19  21
ATOM     21  O   UNL     1       7.682   5.284  15.012  0.00  0.00    +0.000 OA
ATOM     22  H   UNL     1       8.521   5.001  14.576  0.00  0.00    +0.000 HD
ENDBRANCH  19  21
ENDBRANCH  18  19
ENDBRANCH   6  18
TORSDOF 5
ENDMDL
MODEL 6
REMARK VINA RESULT:      -6.2      3.273      4.160
REMARK  Name = 
REMARK  7 active torsions:
REMARK  status: ('A' for Active; 'I' for Inactive)
REMARK    1  A    between atoms: C_1  and  N_2
REMARK    2  A    between atoms: N_2  and  C_3
REMARK    3  A    between atoms: N_2  and  C_4
REMARK    4  A    between atoms: C_7  and  C_8
REMARK    5  A    between atoms: N_13  and  C_14
REMARK    6  A    between atoms: C_14  and  C_15
REMARK    7  A    between atoms: C_15  and  O_17
REMARK                            x       y       z     vdW  Elec       q    Type
REMARK                         _______ _______ _______ _____ _____    ______ ____
ROOT
ATOM      1  C   UNL     1       2.543   7.359  19.259  0.00  0.00    +0.000 C 
ATOM      2  C   UNL     1       2.565   6.070  19.628  0.00  0.00    +0.000 C 
ATOM      3  S   UNL     1       1.533   5.300  20.771  0.00  0.00    +0.000 S 
ATOM      4  C   UNL     1       2.294   3.739  20.541  0.00  0.00    +0.000 C 
ATOM      5  O   UNL     1       1.905   2.724  21.097  0.00  0.00    +0.000 OA
ATOM      6  N   UNL     1       3.356   3.854  19.688  0.00  0.00    +0.000 N 
ATOM      7  C   UNL     1       3.532   5.073  19.086  0.00  0.00    +0.000 C 
ATOM      8  O   UNL     1       4.340   5.276  18.187  0.00  0.00    +0.000 OA
ENDROOT
BRANCH   1  12
ATOM      9  C   UNL     1      -0.165  10.303  20.927  0.00  0.00    +0.000 A 
ATOM     10  C   UNL     1       0.479   9.339  21.721  0.00  0.00    +0.000 A 
ATOM     11  C   UNL     1       1.357   8.386  21.181  0.00  0.00    +0.000 A 
ATOM     12  C   UNL     1       1.639   8.374  19.817  0.00  0.00    +0.000 A 
ATOM     13  C   UNL     1       1.032   9.329  19.005  0.00  0.00    +0.000 A 
ATOM     14  C   UNL     1       0.149  10.274  19.556  0.00  0.00    +0.000 A 
BRANCH   9  16
ATOM     15  C   UNL     1      -1.533  12.351  20.649  0.00  0.00    +0.000 C 
ATOM     16  N   UNL     1      -1.045  11.244  21.464  0.00  0.00    +0.000 N 
ATOM     17  C   UNL     1      -1.165  11.380  22.912  0.00  0.00    +0.000 C 
ENDBRANCH   9  16
ENDBRANCH   1  12
BRANCH   6  18
ATOM     18  C   UNL     1       4.239   2.724  19.439  0.00  0.00    +0.000 C 
BRANCH  18  19
ATOM     19  C   UNL     1       3.703   1.749  18.401  0.00  0.00    +0.000 C 
ATOM     20  O   UNL     1       2.735   1.973  17.691  0.00  0.00    +0.000 OA
BRANCH  19  21
ATOM     21  O   UNL     1       4.319   0.543  18.408  0.00  0.00    +0.000 OA
ATOM     22  H   UNL     1       5.097   0.465  17.807  0.00  0.00    +0.000 HD
ENDBRANCH  19  21
ENDBRANCH  18  19
ENDBRANCH   6  18
TORSDOF 5
ENDMDL
MODEL 7
REMARK VINA RESULT:      -6.2      3.208      4.231
REMARK  Name = 
REMARK  7 active torsions:
REMARK  status: ('A' for Active; 'I' for Inactive)
REMARK    1  A    between atoms: C_1  and  N_2
REMARK    2  A    between atoms: N_2  and  C_3
REMARK    3  A    between atoms: N_2  and  C_4
REMARK    4  A    between atoms: C_7  and  C_8
REMARK    5  A    between atoms: N_13  and  C_14
REMARK    6  A    between atoms: C_14  and  C_15
REMARK    7  A    between atoms: C_15  and  O_17
REMARK                            x       y       z     vdW  Elec       q    Type
REMARK                         _______ _______ _______ _____ _____    ______ ____
ROOT
ATOM      1  C   UNL     1       2.696   7.241  18.806  0.00  0.00    +0.000 C 
ATOM      2  C   UNL     1       2.624   6.007  19.326  0.00  0.00    +0.000 C 
ATOM      3  S   UNL     1       1.479   5.430  20.475  0.00  0.00    +0.000 S 
ATOM      4  C   UNL     1       2.167   3.819  20.486  0.00  0.00    +0.000 C 
ATOM      5  O   UNL     1       1.688   2.898  21.129  0.00  0.00    +0.000 OA
ATOM      6  N   UNL     1       3.286   3.780  19.703  0.00  0.00    +0.000 N 
ATOM      7  C   UNL     1       3.568   4.907  18.975  0.00  0.00    +0.000 C 
ATOM      8  O   UNL     1       4.442   4.962  18.118  0.00  0.00    +0.000 OA
ENDROOT
BRANCH   1  12
ATOM      9  C   UNL     1       0.142  10.577  19.870  0.00  0.00    +0.000 A 
ATOM     10  C   UNL     1       0.529  10.321  18.545  0.00  0.00    +0.000 A 
ATOM     11  C   UNL     1       1.356   9.239  18.199  0.00  0.00    +0.000 A 
ATOM     12  C   UNL     1       1.815   8.357  19.175  0.00  0.00    +0.000 A 
ATOM     13  C   UNL     1       1.432   8.572  20.497  0.00  0.00    +0.000 A 
ATOM     14  C   UNL     1       0.610   9.663  20.831  0.00  0.00    +0.000 A 
BRANCH   9  16
ATOM     15  C   UNL     1      -1.843  11.988  19.410  0.00  0.00    +0.000 C 
ATOM     16  N   UNL     1      -0.671  11.658  20.213  0.00  0.00    +0.000 N 
ATOM     17  C   UNL     1      -0.158  12.697  21.100  0.00  0.00    +0.000 C 
ENDBRANCH   9  16
ENDBRANCH   1  12
BRANCH   6  18
ATOM     18  C   UNL     1       4.121   2.589  19.652  0.00  0.00    +0.000 C 
BRANCH  18  19
ATOM     19  C   UNL     1       3.713   1.605  18.565  0.00  0.00    +0.000 C 
ATOM     20  O   UNL     1       2.750   1.761  17.831  0.00  0.00    +0.000 OA
BRANCH  19  21
ATOM     21  O   UNL     1       4.441   0.463  18.554  0.00  0.00    +0.000 OA
ATOM     22  H   UNL     1       3.937  -0.353  18.322  0.00  0.00    +0.000 HD
ENDBRANCH  19  21
ENDBRANCH  18  19
ENDBRANCH   6  18
TORSDOF 5
ENDMDL
MODEL 8
REMARK VINA RESULT:      -6.2      2.703      3.787
REMARK  Name = 
REMARK  7 active torsions:
REMARK  status: ('A' for Active; 'I' for Inactive)
REMARK    1  A    between atoms: C_1  and  N_2
REMARK    2  A    between atoms: N_2  and  C_3
REMARK    3  A    between atoms: N_2  and  C_4
REMARK    4  A    between atoms: C_7  and  C_8
REMARK    5  A    between atoms: N_13  and  C_14
REMARK    6  A    between atoms: C_14  and  C_15
REMARK    7  A    between atoms: C_15  and  O_17
REMARK                            x       y       z     vdW  Elec       q    Type
REMARK                         _______ _______ _______ _____ _____    ______ ____
ROOT
ATOM      1  C   UNL     1       2.386   8.753  17.583  0.00  0.00    +0.000 C 
ATOM      2  C   UNL     1       2.811   7.637  18.193  0.00  0.00    +0.000 C 
ATOM      3  S   UNL     1       2.204   6.957  19.654  0.00  0.00    +0.000 S 
ATOM      4  C   UNL     1       3.320   5.607  19.594  0.00  0.00    +0.000 C 
ATOM      5  O   UNL     1       3.306   4.700  20.411  0.00  0.00    +0.000 OA
ATOM      6  N   UNL     1       4.175   5.750  18.537  0.00  0.00    +0.000 N 
ATOM      7  C   UNL     1       3.924   6.788  17.678  0.00  0.00    +0.000 C 
ATOM      8  O   UNL     1       4.506   6.944  16.611  0.00  0.00    +0.000 OA
ENDROOT
BRANCH   1  12
ATOM      9  C   UNL     1      -0.745  11.374  19.035  0.00  0.00    +0.000 A 
ATOM     10  C   UNL     1      -1.020  10.231  18.265  0.00  0.00    +0.000 A 
ATOM     11  C   UNL     1      -0.006   9.381  17.796  0.00  0.00    +0.000 A 
ATOM     12  C   UNL     1       1.331   9.637  18.097  0.00  0.00    +0.000 A 
ATOM     13  C   UNL     1       1.634  10.751  18.875  0.00  0.00    +0.000 A 
ATOM     14  C   UNL     1       0.611  11.600  19.333  0.00  0.00    +0.000 A 
BRANCH   9  16
ATOM     15  C   UNL     1      -3.138  12.020  19.083  0.00  0.00    +0.000 C 
ATOM     16  N   UNL     1      -1.753  12.224  19.493  0.00  0.00    +0.000 N 
ATOM     17  C   UNL     1      -1.406  13.534  20.033  0.00  0.00    +0.000 C 
ENDBRANCH   9  16
ENDBRANCH   1  12
BRANCH   6  18
ATOM     18  C   UNL     1       5.287   4.830  18.347  0.00  0.00    +0.000 C 
BRANCH  18  19
ATOM     19  C   UNL     1       6.626   5.393  18.799  0.00  0.00    +0.000 C 
ATOM     20  O   UNL     1       7.023   5.366  19.954  0.00  0.00    +0.000 OA
BRANCH  19  21
ATOM     21  O   UNL     1       7.306   6.045  17.826  0.00  0.00    +0.000 OA
ATOM     22  H   UNL     1       7.267   5.628  16.934  0.00  0.00    +0.000 HD
ENDBRANCH  19  21
ENDBRANCH  18  19
ENDBRANCH   6  18
TORSDOF 5
ENDMDL
MODEL 9
REMARK VINA RESULT:      -6.1      2.717      3.807
REMARK  Name = 
REMARK  7 active torsions:
REMARK  status: ('A' for Active; 'I' for Inactive)
REMARK    1  A    between atoms: C_1  and  N_2
REMARK    2  A    between atoms: N_2  and  C_3
REMARK    3  A    between atoms: N_2  and  C_4
REMARK    4  A    between atoms: C_7  and  C_8
REMARK    5  A    between atoms: N_13  and  C_14
REMARK    6  A    between atoms: C_14  and  C_15
REMARK    7  A    between atoms: C_15  and  O_17
REMARK                            x       y       z     vdW  Elec       q    Type
REMARK                         _______ _______ _______ _____ _____    ______ ____
ROOT
ATOM      1  C   UNL     1       2.251   8.774  17.641  0.00  0.00    +0.000 C 
ATOM      2  C   UNL     1       2.706   7.661  18.236  0.00  0.00    +0.000 C 
ATOM      3  S   UNL     1       2.107   6.938  19.680  0.00  0.00    +0.000 S 
ATOM      4  C   UNL     1       3.264   5.625  19.608  0.00  0.00    +0.000 C 
ATOM      5  O   UNL     1       3.272   4.704  20.409  0.00  0.00    +0.000 OA
ATOM      6  N   UNL     1       4.124   5.811  18.562  0.00  0.00    +0.000 N 
ATOM      7  C   UNL     1       3.848   6.856  17.718  0.00  0.00    +0.000 C 
ATOM      8  O   UNL     1       4.436   7.048  16.660  0.00  0.00    +0.000 OA
ENDROOT
BRANCH   1  12
ATOM      9  C   UNL     1      -0.941  11.235  19.234  0.00  0.00    +0.000 A 
ATOM     10  C   UNL     1       0.394  11.379  19.644  0.00  0.00    +0.000 A 
ATOM     11  C   UNL     1       1.430  10.583  19.128  0.00  0.00    +0.000 A 
ATOM     12  C   UNL     1       1.165   9.616  18.160  0.00  0.00    +0.000 A 
ATOM     13  C   UNL     1      -0.146   9.461  17.717  0.00  0.00    +0.000 A 
ATOM     14  C   UNL     1      -1.175  10.259  18.248  0.00  0.00    +0.000 A 
BRANCH   9  16
ATOM     15  C   UNL     1      -3.293  12.011  19.141  0.00  0.00    +0.000 C 
ATOM     16  N   UNL     1      -1.970  12.020  19.755  0.00  0.00    +0.000 N 
ATOM     17  C   UNL     1      -1.651  13.142  20.632  0.00  0.00    +0.000 C 
ENDBRANCH   9  16
ENDBRANCH   1  12
BRANCH   6  18
ATOM     18  C   UNL     1       5.265   4.930  18.367  0.00  0.00    +0.000 C 
BRANCH  18  19
ATOM     19  C   UNL     1       6.579   5.516  18.862  0.00  0.00    +0.000 C 
ATOM     20  O   UNL     1       7.025   5.338  19.985  0.00  0.00    +0.000 OA
BRANCH  19  21
ATOM     21  O   UNL     1       7.168   6.366  17.988  0.00  0.00    +0.000 OA
ATOM     22  H   UNL     1       6.791   7.277  17.969  0.00  0.00    +0.000 HD
ENDBRANCH  19  21
ENDBRANCH  18  19
ENDBRANCH   6  18
TORSDOF 5
ENDMDL
