MODEL 1
REMARK VINA RESULT:      -7.5      0.000      0.000
REMARK  Name = 
REMARK  6 active torsions:
REMARK  status: ('A' for Active; 'I' for Inactive)
REMARK    1  A    between atoms: C_1  and  C_2
REMARK    2  A    between atoms: C_2  and  O_3
REMARK    3  A    between atoms: O_3  and  C_4
REMARK    4  A    between atoms: C_4  and  C_6
REMARK    5  A    between atoms: C_6  and  N_7
REMARK    6  A    between atoms: C_10  and  C_11
REMARK                            x       y       z     vdW  Elec       q    Type
REMARK                         _______ _______ _______ _____ _____    ______ ____
ROOT
ATOM      1  N   UNL     1       5.777   5.272  16.570  0.00  0.00    +0.000 N 
ATOM      2  C   UNL     1       6.842   5.833  17.261  0.00  0.00    +0.000 A 
ATOM      3  O   UNL     1       7.699   6.550  16.756  0.00  0.00    +0.000 OA
ATOM      4  C   UNL     1       6.936   5.498  18.743  0.00  0.00    +0.000 A 
ATOM      5  C   UNL     1       8.155   5.961  19.487  0.00  0.00    +0.000 C 
ATOM      6  N   UNL     1       6.021   4.831  19.381  0.00  0.00    +0.000 NA
ATOM      7  C   UNL     1       4.909   4.371  18.660  0.00  0.00    +0.000 A 
ATOM      8  C   UNL     1       3.920   3.695  19.384  0.00  0.00    +0.000 A 
ATOM      9  C   UNL     1       2.810   3.166  18.733  0.00  0.00    +0.000 A 
ATOM     10 BR   UNL     1       1.490   2.241  19.721  0.00  0.00    +0.000 Br
ATOM     11  C   UNL     1       2.671   3.308  17.357  0.00  0.00    +0.000 A 
ATOM     12  C   UNL     1       3.643   4.001  16.627  0.00  0.00    +0.000 A 
ATOM     13  C   UNL     1       4.769   4.541  17.268  0.00  0.00    +0.000 A 
ENDROOT
BRANCH   1  14
ATOM     14  C   UNL     1       5.633   5.641  15.166  0.00  0.00    +0.000 C 
BRANCH  14  15
ATOM     15  C   UNL     1       6.620   4.885  14.284  0.00  0.00    +0.000 C 
ATOM     16  O   UNL     1       7.705   5.299  13.903  0.00  0.00    +0.000 OA
BRANCH  15  17
ATOM     17  O   UNL     1       6.041   3.715  13.883  0.00  0.00    +0.000 OA
BRANCH  17  19
ATOM     18  C   UNL     1       4.821   3.324  11.874  0.00  0.00    +0.000 C 
ATOM     19  C   UNL     1       6.207   3.403  12.493  0.00  0.00    +0.000 C 
ENDBRANCH  17  19
ENDBRANCH  15  17
ENDBRANCH  14  15
ENDBRANCH   1  14
TORSDOF 4
ENDMDL
MODEL 2
REMARK VINA RESULT:      -7.1      1.792      4.402
REMARK  Name = 
REMARK  6 active torsions:
REMARK  status: ('A' for Active; 'I' for Inactive)
REMARK    1  A    between atoms: C_1  and  C_2
REMARK    2  A    between atoms: C_2  and  O_3
REMARK    3  A    between atoms: O_3  and  C_4
REMARK    4  A    between atoms: C_4  and  C_6
REMARK    5  A    between atoms: C_6  and  N_7
REMARK    6  A    between atoms: C_10  and  C_11
REMARK                            x       y       z     vdW  Elec       q    Type
REMARK                         _______ _______ _______ _____ _____    ______ ____
ROOT
ATOM      1  N   UNL     1       5.757   5.900  17.015  0.00  0.00    +0.000 N 
ATOM      2  C   UNL     1       6.388   5.419  15.877  0.00  0.00    +0.000 A 
ATOM      3  O   UNL     1       7.416   5.889  15.401  0.00  0.00    +0.000 OA
ATOM      4  C   UNL     1       5.722   4.239  15.183  0.00  0.00    +0.000 A 
ATOM      5  C   UNL     1       6.291   3.791  13.869  0.00  0.00    +0.000 C 
ATOM      6  N   UNL     1       4.691   3.617  15.672  0.00  0.00    +0.000 NA
ATOM      7  C   UNL     1       4.148   4.075  16.881  0.00  0.00    +0.000 A 
ATOM      8  C   UNL     1       3.067   3.356  17.403  0.00  0.00    +0.000 A 
ATOM      9  C   UNL     1       2.442   3.777  18.573  0.00  0.00    +0.000 A 
ATOM     10 BR   UNL     1       0.972   2.806  19.258  0.00  0.00    +0.000 Br
ATOM     11  C   UNL     1       2.890   4.914  19.237  0.00  0.00    +0.000 A 
ATOM     12  C   UNL     1       3.985   5.627  18.735  0.00  0.00    +0.000 A 
ATOM     13  C   UNL     1       4.626   5.217  17.556  0.00  0.00    +0.000 A 
ENDROOT
BRANCH   1  14
ATOM     14  C   UNL     1       6.421   6.983  17.732  0.00  0.00    +0.000 C 
BRANCH  14  15
ATOM     15  C   UNL     1       7.626   6.479  18.517  0.00  0.00    +0.000 C 
ATOM     16  O   UNL     1       7.745   5.368  19.014  0.00  0.00    +0.000 OA
BRANCH  15  17
ATOM     17  O   UNL     1       8.503   7.512  18.684  0.00  0.00    +0.000 OA
BRANCH  17  19
ATOM     18  C   UNL     1       8.886   9.863  18.624  0.00  0.00    +0.000 C 
ATOM     19  C   UNL     1       8.189   8.699  17.942  0.00  0.00    +0.000 C 
ENDBRANCH  17  19
ENDBRANCH  15  17
ENDBRANCH  14  15
ENDBRANCH   1  14
TORSDOF 4
ENDMDL
MODEL 3
REMARK VINA RESULT:      -7.0      3.510      5.050
REMARK  Name = 
REMARK  6 active torsions:
REMARK  status: ('A' for Active; 'I' for Inactive)
REMARK    1  A    between atoms: C_1  and  C_2
REMARK    2  A    between atoms: C_2  and  O_3
REMARK    3  A    between atoms: O_3  and  C_4
REMARK    4  A    between atoms: C_4  and  C_6
REMARK    5  A    between atoms: C_6  and  N_7
REMARK    6  A    between atoms: C_10  and  C_11
REMARK                            x       y       z     vdW  Elec       q    Type
REMARK                         _______ _______ _______ _____ _____    ______ ____
ROOT
ATOM      1  N   UNL     1       4.023   4.595  18.831  0.00  0.00    +0.000 N 
ATOM      2  C   UNL     1       3.695   3.695  19.835  0.00  0.00    +0.000 A 
ATOM      3  O   UNL     1       4.268   2.629  20.028  0.00  0.00    +0.000 OA
ATOM      4  C   UNL     1       2.523   4.077  20.727  0.00  0.00    +0.000 A 
ATOM      5  C   UNL     1       2.044   3.062  21.724  0.00  0.00    +0.000 C 
ATOM      6  N   UNL     1       1.924   5.229  20.659  0.00  0.00    +0.000 NA
ATOM      7  C   UNL     1       2.359   6.150  19.695  0.00  0.00    +0.000 A 
ATOM      8  C   UNL     1       1.723   7.397  19.677  0.00  0.00    +0.000 A 
ATOM      9  C   UNL     1       2.064   8.346  18.719  0.00  0.00    +0.000 A 
ATOM     10 BR   UNL     1       1.186  10.019  18.696  0.00  0.00    +0.000 Br
ATOM     11  C   UNL     1       3.044   8.066  17.773  0.00  0.00    +0.000 A 
ATOM     12  C   UNL     1       3.701   6.831  17.796  0.00  0.00    +0.000 A 
ATOM     13  C   UNL     1       3.369   5.861  18.755  0.00  0.00    +0.000 A 
ENDROOT
BRANCH   1  14
ATOM     14  C   UNL     1       5.189   4.277  18.013  0.00  0.00    +0.000 C 
BRANCH  14  15
ATOM     15  C   UNL     1       6.468   4.842  18.618  0.00  0.00    +0.000 C 
ATOM     16  O   UNL     1       6.628   5.167  19.786  0.00  0.00    +0.000 OA
BRANCH  15  17
ATOM     17  O   UNL     1       7.373   5.047  17.615  0.00  0.00    +0.000 OA
BRANCH  17  19
ATOM     18  C   UNL     1       7.586   7.418  17.535  0.00  0.00    +0.000 C 
ATOM     19  C   UNL     1       7.109   6.186  16.785  0.00  0.00    +0.000 C 
ENDBRANCH  17  19
ENDBRANCH  15  17
ENDBRANCH  14  15
ENDBRANCH   1  14
TORSDOF 4
ENDMDL
MODEL 4
REMARK VINA RESULT:      -7.0      1.932      4.652
REMARK  Name = 
REMARK  6 active torsions:
REMARK  status: ('A' for Active; 'I' for Inactive)
REMARK    1  A    between atoms: C_1  and  C_2
REMARK    2  A    between atoms: C_2  and  O_3
REMARK    3  A    between atoms: O_3  and  C_4
REMARK    4  A    between atoms: C_4  and  C_6
REMARK    5  A    between atoms: C_6  and  N_7
REMARK    6  A    between atoms: C_10  and  C_11
REMARK                            x       y       z     vdW  Elec       q    Type
REMARK                         _______ _______ _______ _____ _____    ______ ____
ROOT
ATOM      1  N   UNL     1       6.415   5.469  17.221  0.00  0.00    +0.000 N 
ATOM      2  C   UNL     1       6.694   5.030  15.935  0.00  0.00    +0.000 A 
ATOM      3  O   UNL     1       7.750   5.230  15.346  0.00  0.00    +0.000 OA
ATOM      4  C   UNL     1       5.582   4.270  15.225  0.00  0.00    +0.000 A 
ATOM      5  C   UNL     1       5.792   3.912  13.783  0.00  0.00    +0.000 C 
ATOM      6  N   UNL     1       4.472   3.926  15.808  0.00  0.00    +0.000 NA
ATOM      7  C   UNL     1       4.276   4.304  17.144  0.00  0.00    +0.000 A 
ATOM      8  C   UNL     1       3.091   3.881  17.755  0.00  0.00    +0.000 A 
ATOM      9  C   UNL     1       2.801   4.256  19.063  0.00  0.00    +0.000 A 
ATOM     10 BR   UNL     1       1.189   3.692  19.871  0.00  0.00    +0.000 Br
ATOM     11  C   UNL     1       3.691   5.051  19.777  0.00  0.00    +0.000 A 
ATOM     12  C   UNL     1       4.890   5.461  19.183  0.00  0.00    +0.000 A 
ATOM     13  C   UNL     1       5.198   5.092  17.864  0.00  0.00    +0.000 A 
ENDROOT
BRANCH   1  14
ATOM     14  C   UNL     1       7.494   6.137  17.941  0.00  0.00    +0.000 C 
BRANCH  14  15
ATOM     15  C   UNL     1       7.480   7.641  17.699  0.00  0.00    +0.000 C 
ATOM     16  O   UNL     1       6.782   8.232  16.888  0.00  0.00    +0.000 OA
BRANCH  15  17
ATOM     17  O   UNL     1       8.467   8.214  18.450  0.00  0.00    +0.000 OA
BRANCH  17  19
ATOM     18  C   UNL     1       9.267  10.196  19.503  0.00  0.00    +0.000 C 
ATOM     19  C   UNL     1       8.648   9.621  18.240  0.00  0.00    +0.000 C 
ENDBRANCH  17  19
ENDBRANCH  15  17
ENDBRANCH  14  15
ENDBRANCH   1  14
TORSDOF 4
ENDMDL
MODEL 5
REMARK VINA RESULT:      -6.9      1.147      1.167
REMARK  Name = 
REMARK  6 active torsions:
REMARK  status: ('A' for Active; 'I' for Inactive)
REMARK    1  A    between atoms: C_1  and  C_2
REMARK    2  A    between atoms: C_2  and  O_3
REMARK    3  A    between atoms: O_3  and  C_4
REMARK    4  A    between atoms: C_4  and  C_6
REMARK    5  A    between atoms: C_6  and  N_7
REMARK    6  A    between atoms: C_10  and  C_11
REMARK                            x       y       z     vdW  Elec       q    Type
REMARK                         _______ _______ _______ _____ _____    ______ ____
ROOT
ATOM      1  N   UNL     1       5.845   4.066  16.941  0.00  0.00    +0.000 N 
ATOM      2  C   UNL     1       6.946   4.727  17.466  0.00  0.00    +0.000 A 
ATOM      3  O   UNL     1       7.979   4.958  16.848  0.00  0.00    +0.000 OA
ATOM      4  C   UNL     1       6.841   5.162  18.921  0.00  0.00    +0.000 A 
ATOM      5  C   UNL     1       8.066   5.742  19.566  0.00  0.00    +0.000 C 
ATOM      6  N   UNL     1       5.751   5.048  19.620  0.00  0.00    +0.000 NA
ATOM      7  C   UNL     1       4.628   4.467  19.013  0.00  0.00    +0.000 A 
ATOM      8  C   UNL     1       3.458   4.400  19.777  0.00  0.00    +0.000 A 
ATOM      9  C   UNL     1       2.316   3.793  19.263  0.00  0.00    +0.000 A 
ATOM     10 BR   UNL     1       0.747   3.695  20.312  0.00  0.00    +0.000 Br
ATOM     11  C   UNL     1       2.326   3.252  17.982  0.00  0.00    +0.000 A 
ATOM     12  C   UNL     1       3.485   3.334  17.201  0.00  0.00    +0.000 A 
ATOM     13  C   UNL     1       4.646   3.942  17.704  0.00  0.00    +0.000 A 
ENDROOT
BRANCH   1  14
ATOM     14  C   UNL     1       5.902   3.706  15.528  0.00  0.00    +0.000 C 
BRANCH  14  15
ATOM     15  C   UNL     1       5.906   4.941  14.636  0.00  0.00    +0.000 C 
ATOM     16  O   UNL     1       5.347   6.002  14.875  0.00  0.00    +0.000 OA
BRANCH  15  17
ATOM     17  O   UNL     1       6.531   4.631  13.461  0.00  0.00    +0.000 OA
BRANCH  17  19
ATOM     18  C   UNL     1       4.988   3.560  11.996  0.00  0.00    +0.000 C 
ATOM     19  C   UNL     1       6.184   3.354  12.910  0.00  0.00    +0.000 C 
ENDBRANCH  17  19
ENDBRANCH  15  17
ENDBRANCH  14  15
ENDBRANCH   1  14
TORSDOF 4
ENDMDL
MODEL 6
REMARK VINA RESULT:      -6.9      2.568      3.997
REMARK  Name = 
REMARK  6 active torsions:
REMARK  status: ('A' for Active; 'I' for Inactive)
REMARK    1  A    between atoms: C_1  and  C_2
REMARK    2  A    between atoms: C_2  and  O_3
REMARK    3  A    between atoms: O_3  and  C_4
REMARK    4  A    between atoms: C_4  and  C_6
REMARK    5  A    between atoms: C_6  and  N_7
REMARK    6  A    between atoms: C_10  and  C_11
REMARK                            x       y       z     vdW  Elec       q    Type
REMARK                         _______ _______ _______ _____ _____    ______ ____
ROOT
ATOM      1  N   UNL     1       4.797   5.394  17.629  0.00  0.00    +0.000 N 
ATOM      2  C   UNL     1       4.332   6.627  17.195  0.00  0.00    +0.000 A 
ATOM      3  O   UNL     1       4.815   7.265  16.266  0.00  0.00    +0.000 OA
ATOM      4  C   UNL     1       3.154   7.212  17.961  0.00  0.00    +0.000 A 
ATOM      5  C   UNL     1       2.722   8.608  17.619  0.00  0.00    +0.000 C 
ATOM      6  N   UNL     1       2.518   6.563  18.891  0.00  0.00    +0.000 NA
ATOM      7  C   UNL     1       2.960   5.275  19.225  0.00  0.00    +0.000 A 
ATOM      8  C   UNL     1       2.227   4.586  20.198  0.00  0.00    +0.000 A 
ATOM      9  C   UNL     1       2.632   3.323  20.620  0.00  0.00    +0.000 A 
ATOM     10 BR   UNL     1       1.642   2.411  21.946  0.00  0.00    +0.000 Br
ATOM     11  C   UNL     1       3.766   2.732  20.074  0.00  0.00    +0.000 A 
ATOM     12  C   UNL     1       4.493   3.404  19.084  0.00  0.00    +0.000 A 
ATOM     13  C   UNL     1       4.100   4.678  18.648  0.00  0.00    +0.000 A 
ENDROOT
BRANCH   1  14
ATOM     14  C   UNL     1       5.879   4.788  16.861  0.00  0.00    +0.000 C 
BRANCH  14  15
ATOM     15  C   UNL     1       7.237   5.057  17.499  0.00  0.00    +0.000 C 
ATOM     16  O   UNL     1       7.812   4.330  18.296  0.00  0.00    +0.000 OA
BRANCH  15  17
ATOM     17  O   UNL     1       7.652   6.306  17.134  0.00  0.00    +0.000 OA
BRANCH  17  19
ATOM     18  C   UNL     1       7.893   8.614  17.675  0.00  0.00    +0.000 C 
ATOM     19  C   UNL     1       7.919   7.198  18.225  0.00  0.00    +0.000 C 
ENDBRANCH  17  19
ENDBRANCH  15  17
ENDBRANCH  14  15
ENDBRANCH   1  14
TORSDOF 4
ENDMDL
MODEL 7
REMARK VINA RESULT:      -6.8      3.562      4.677
REMARK  Name = 
REMARK  6 active torsions:
REMARK  status: ('A' for Active; 'I' for Inactive)
REMARK    1  A    between atoms: C_1  and  C_2
REMARK    2  A    between atoms: C_2  and  O_3
REMARK    3  A    between atoms: O_3  and  C_4
REMARK    4  A    between atoms: C_4  and  C_6
REMARK    5  A    between atoms: C_6  and  N_7
REMARK    6  A    between atoms: C_10  and  C_11
REMARK                            x       y       z     vdW  Elec       q    Type
REMARK                         _______ _______ _______ _____ _____    ______ ____
ROOT
ATOM      1  N   UNL     1       3.679   4.466  18.691  0.00  0.00    +0.000 N 
ATOM      2  C   UNL     1       3.472   3.536  19.698  0.00  0.00    +0.000 A 
ATOM      3  O   UNL     1       4.003   2.432  19.745  0.00  0.00    +0.000 OA
ATOM      4  C   UNL     1       2.496   3.934  20.796  0.00  0.00    +0.000 A 
ATOM      5  C   UNL     1       2.133   2.897  21.818  0.00  0.00    +0.000 C 
ATOM      6  N   UNL     1       1.966   5.119  20.880  0.00  0.00    +0.000 NA
ATOM      7  C   UNL     1       2.285   6.062  19.893  0.00  0.00    +0.000 A 
ATOM      8  C   UNL     1       1.734   7.341  20.037  0.00  0.00    +0.000 A 
ATOM      9  C   UNL     1       1.964   8.318  19.074  0.00  0.00    +0.000 A 
ATOM     10 BR   UNL     1       1.199  10.035  19.272  0.00  0.00    +0.000 Br
ATOM     11  C   UNL     1       2.748   8.034  17.961  0.00  0.00    +0.000 A 
ATOM     12  C   UNL     1       3.322   6.766  17.819  0.00  0.00    +0.000 A 
ATOM     13  C   UNL     1       3.100   5.768  18.781  0.00  0.00    +0.000 A 
ENDROOT
BRANCH   1  14
ATOM     14  C   UNL     1       4.665   4.128  17.670  0.00  0.00    +0.000 C 
BRANCH  14  15
ATOM     15  C   UNL     1       6.073   4.519  18.101  0.00  0.00    +0.000 C 
ATOM     16  O   UNL     1       6.414   4.846  19.229  0.00  0.00    +0.000 OA
BRANCH  15  17
ATOM     17  O   UNL     1       6.872   4.567  16.995  0.00  0.00    +0.000 OA
BRANCH  17  19
ATOM     18  C   UNL     1       6.837   4.849  14.629  0.00  0.00    +0.000 C 
ATOM     19  C   UNL     1       6.277   4.053  15.796  0.00  0.00    +0.000 C 
ENDBRANCH  17  19
ENDBRANCH  15  17
ENDBRANCH  14  15
ENDBRANCH   1  14
TORSDOF 4
ENDMDL
MODEL 8
REMARK VINA RESULT:      -6.6      2.167      2.991
REMARK  Name = 
REMARK  6 active torsions:
REMARK  status: ('A' for Active; 'I' for Inactive)
REMARK    1  A    between atoms: C_1  and  C_2
REMARK    2  A    between atoms: C_2  and  O_3
REMARK    3  A    between atoms: O_3  and  C_4
REMARK    4  A    between atoms: C_4  and  C_6
REMARK    5  A    between atoms: C_6  and  N_7
REMARK    6  A    between atoms: C_10  and  C_11
REMARK                            x       y       z     vdW  Elec       q    Type
REMARK                         _______ _______ _______ _____ _____    ______ ____
ROOT
ATOM      1  N   UNL     1       4.655   5.004  17.340  0.00  0.00    +0.000 N 
ATOM      2  C   UNL     1       4.336   6.302  16.968  0.00  0.00    +0.000 A 
ATOM      3  O   UNL     1       4.804   6.882  15.994  0.00  0.00    +0.000 OA
ATOM      4  C   UNL     1       3.351   7.038  17.865  0.00  0.00    +0.000 A 
ATOM      5  C   UNL     1       3.100   8.490  17.582  0.00  0.00    +0.000 C 
ATOM      6  N   UNL     1       2.732   6.470  18.857  0.00  0.00    +0.000 NA
ATOM      7  C   UNL     1       3.010   5.124  19.132  0.00  0.00    +0.000 A 
ATOM      8  C   UNL     1       2.293   4.529  20.178  0.00  0.00    +0.000 A 
ATOM      9  C   UNL     1       2.547   3.211  20.543  0.00  0.00    +0.000 A 
ATOM     10 BR   UNL     1       1.584   2.427  21.968  0.00  0.00    +0.000 Br
ATOM     11  C   UNL     1       3.512   2.470  19.870  0.00  0.00    +0.000 A 
ATOM     12  C   UNL     1       4.218   3.048  18.809  0.00  0.00    +0.000 A 
ATOM     13  C   UNL     1       3.975   4.377  18.426  0.00  0.00    +0.000 A 
ENDROOT
BRANCH   1  14
ATOM     14  C   UNL     1       5.543   4.261  16.451  0.00  0.00    +0.000 C 
BRANCH  14  15
ATOM     15  C   UNL     1       7.008   4.538  16.764  0.00  0.00    +0.000 C 
ATOM     16  O   UNL     1       7.542   4.426  17.858  0.00  0.00    +0.000 OA
BRANCH  15  17
ATOM     17  O   UNL     1       7.603   5.055  15.648  0.00  0.00    +0.000 OA
BRANCH  17  19
ATOM     18  C   UNL     1       7.854   5.218  13.285  0.00  0.00    +0.000 C 
ATOM     19  C   UNL     1       6.964   4.716  14.410  0.00  0.00    +0.000 C 
ENDBRANCH  17  19
ENDBRANCH  15  17
ENDBRANCH  14  15
ENDBRANCH   1  14
TORSDOF 4
ENDMDL
MODEL 9
REMARK VINA RESULT:      -6.6      3.306      5.380
REMARK  Name = 
REMARK  6 active torsions:
REMARK  status: ('A' for Active; 'I' for Inactive)
REMARK    1  A    between atoms: C_1  and  C_2
REMARK    2  A    between atoms: C_2  and  O_3
REMARK    3  A    between atoms: O_3  and  C_4
REMARK    4  A    between atoms: C_4  and  C_6
REMARK    5  A    between atoms: C_6  and  N_7
REMARK    6  A    between atoms: C_10  and  C_11
REMARK                            x       y       z     vdW  Elec       q    Type
REMARK                         _______ _______ _______ _____ _____    ______ ____
ROOT
ATOM      1  N   UNL     1       5.552   4.702  17.845  0.00  0.00    +0.000 N 
ATOM      2  C   UNL     1       6.362   5.545  18.591  0.00  0.00    +0.000 A 
ATOM      3  O   UNL     1       6.273   5.701  19.804  0.00  0.00    +0.000 OA
ATOM      4  C   UNL     1       7.411   6.333  17.819  0.00  0.00    +0.000 A 
ATOM      5  C   UNL     1       8.201   7.365  18.569  0.00  0.00    +0.000 C 
ATOM      6  N   UNL     1       7.642   6.156  16.552  0.00  0.00    +0.000 NA
ATOM      7  C   UNL     1       6.865   5.217  15.858  0.00  0.00    +0.000 A 
ATOM      8  C   UNL     1       7.169   5.017  14.507  0.00  0.00    +0.000 A 
ATOM      9  C   UNL     1       6.412   4.138  13.738  0.00  0.00    +0.000 A 
ATOM     10 BR   UNL     1       6.822   3.891  11.910  0.00  0.00    +0.000 Br
ATOM     11  C   UNL     1       5.350   3.445  14.308  0.00  0.00    +0.000 A 
ATOM     12  C   UNL     1       5.053   3.620  15.665  0.00  0.00    +0.000 A 
ATOM     13  C   UNL     1       5.805   4.503  16.454  0.00  0.00    +0.000 A 
ENDROOT
BRANCH   1  14
ATOM     14  C   UNL     1       4.591   3.886  18.580  0.00  0.00    +0.000 C 
BRANCH  14  15
ATOM     15  C   UNL     1       3.259   4.606  18.746  0.00  0.00    +0.000 C 
ATOM     16  O   UNL     1       2.536   4.997  17.841  0.00  0.00    +0.000 OA
BRANCH  15  17
ATOM     17  O   UNL     1       3.060   4.858  20.074  0.00  0.00    +0.000 OA
BRANCH  17  19
ATOM     18  C   UNL     1       1.195   3.526  20.726  0.00  0.00    +0.000 C 
ATOM     19  C   UNL     1       1.685   4.942  20.475  0.00  0.00    +0.000 C 
ENDBRANCH  17  19
ENDBRANCH  15  17
ENDBRANCH  14  15
ENDBRANCH   1  14
TORSDOF 4
ENDMDL
