MODEL 1
REMARK VINA RESULT:      -8.5      0.000      0.000
REMARK  Name = 
REMARK  4 active torsions:
REMARK  status: ('A' for Active; 'I' for Inactive)
REMARK    1  A    between atoms: C_2  and  C_3
REMARK    2  A    between atoms: C_9  and  N_10
REMARK    3  A    between atoms: N_10  and  S_11
REMARK    4  A    between atoms: S_11  and  C_14
REMARK                            x       y       z     vdW  Elec       q    Type
REMARK                         _______ _______ _______ _____ _____    ______ ____
ROOT
ATOM      1  C   UNL     1       3.686   3.965  19.616  0.00  0.00    +0.000 A 
ATOM      2  C   UNL     1       3.103   2.701  19.478  0.00  0.00    +0.000 A 
ATOM      3 CL   UNL     1       3.714   1.508  18.377  0.00  0.00    +0.000 Cl
ATOM      4  C   UNL     1       1.886   2.392  20.095  0.00  0.00    +0.000 A 
ATOM      5  C   UNL     1       1.161   3.387  20.738  0.00  0.00    +0.000 A 
ATOM      6  C   UNL     1       1.611   4.701  20.671  0.00  0.00    +0.000 A 
ATOM      7  C   UNL     1       2.854   5.001  20.083  0.00  0.00    +0.000 A 
ENDROOT
BRANCH   1   9
ATOM      8  O   UNL     1       5.936   4.349  20.133  0.00  0.00    +0.000 OA
ATOM      9  C   UNL     1       5.114   4.198  19.230  0.00  0.00    +0.000 C 
ATOM     10  N   UNL     1       5.490   4.235  17.868  0.00  0.00    +0.000 N 
ATOM     11  C   UNL     1       6.879   4.537  17.524  0.00  0.00    +0.000 C 
ATOM     12  C   UNL     1       6.941   5.681  16.515  0.00  0.00    +0.000 C 
ATOM     13  C   UNL     1       6.100   5.404  15.267  0.00  0.00    +0.000 C 
ATOM     14  C   UNL     1       4.706   4.867  15.590  0.00  0.00    +0.000 C 
ATOM     15  C   UNL     1       4.698   3.809  16.706  0.00  0.00    +0.000 C 
ENDBRANCH   1   9
BRANCH   7  16
ATOM     16  N   UNL     1       3.084   6.393  19.793  0.00  0.00    +0.000 N 
ATOM     17  H   UNL     1       4.026   6.705  20.020  0.00  0.00    +0.000 HD
BRANCH  16  18
ATOM     18  S   UNL     1       2.666   7.013  18.283  0.00  0.00    +0.000 S 
ATOM     19  O   UNL     1       3.931   7.281  17.626  0.00  0.00    +0.000 OA
ATOM     20  O   UNL     1       1.667   6.178  17.664  0.00  0.00    +0.000 OA
BRANCH  18  21
ATOM     21  C   UNL     1       1.997   8.575  18.738  0.00  0.00    +0.000 A 
ATOM     22  C   UNL     1       2.153   9.681  17.865  0.00  0.00    +0.000 A 
ATOM     23  C   UNL     1       1.685  10.980  18.168  0.00  0.00    +0.000 A 
ATOM     24  C   UNL     1       1.012  11.283  19.362  0.00  0.00    +0.000 A 
ATOM     25  C   UNL     1       0.799  10.206  20.256  0.00  0.00    +0.000 A 
ATOM     26  N   UNL     1       0.149  10.288  21.427  0.00  0.00    +0.000 NA
ATOM     27  S   UNL     1       0.144   8.760  22.070  0.00  0.00    +0.000 S 
ATOM     28  N   UNL     1       0.994   7.936  20.912  0.00  0.00    +0.000 NA
ATOM     29  C   UNL     1       1.302   8.813  19.945  0.00  0.00    +0.000 A 
ENDBRANCH  18  21
ENDBRANCH  16  18
ENDBRANCH   7  16
TORSDOF 4
ENDMDL
MODEL 2
REMARK VINA RESULT:      -8.3      1.455      1.851
REMARK  Name = 
REMARK  4 active torsions:
REMARK  status: ('A' for Active; 'I' for Inactive)
REMARK    1  A    between atoms: C_2  and  C_3
REMARK    2  A    between atoms: C_9  and  N_10
REMARK    3  A    between atoms: N_10  and  S_11
REMARK    4  A    between atoms: S_11  and  C_14
REMARK                            x       y       z     vdW  Elec       q    Type
REMARK                         _______ _______ _______ _____ _____    ______ ____
ROOT
ATOM      1  C   UNL     1       3.424   3.911  19.405  0.00  0.00    +0.000 A 
ATOM      2  C   UNL     1       2.696   2.767  19.061  0.00  0.00    +0.000 A 
ATOM      3 CL   UNL     1       3.243   1.642  17.859  0.00  0.00    +0.000 Cl
ATOM      4  C   UNL     1       1.399   2.558  19.544  0.00  0.00    +0.000 A 
ATOM      5  C   UNL     1       0.755   3.561  20.259  0.00  0.00    +0.000 A 
ATOM      6  C   UNL     1       1.376   4.796  20.398  0.00  0.00    +0.000 A 
ATOM      7  C   UNL     1       2.694   4.989  19.944  0.00  0.00    +0.000 A 
ENDROOT
BRANCH   1   9
ATOM      8  O   UNL     1       5.651   3.565  20.031  0.00  0.00    +0.000 OA
ATOM      9  C   UNL     1       4.898   3.987  19.156  0.00  0.00    +0.000 C 
ATOM     10  N   UNL     1       5.391   4.525  17.945  0.00  0.00    +0.000 N 
ATOM     11  C   UNL     1       6.837   4.652  17.764  0.00  0.00    +0.000 C 
ATOM     12  C   UNL     1       7.199   6.079  17.355  0.00  0.00    +0.000 C 
ATOM     13  C   UNL     1       6.433   6.541  16.114  0.00  0.00    +0.000 C 
ATOM     14  C   UNL     1       4.941   6.217  16.174  0.00  0.00    +0.000 C 
ATOM     15  C   UNL     1       4.639   4.810  16.716  0.00  0.00    +0.000 C 
ENDBRANCH   1   9
BRANCH   7  16
ATOM     16  N   UNL     1       3.127   6.360  19.857  0.00  0.00    +0.000 N 
ATOM     17  H   UNL     1       4.135   6.463  19.756  0.00  0.00    +0.000 HD
BRANCH  16  18
ATOM     18  S   UNL     1       2.374   7.408  18.773  0.00  0.00    +0.000 S 
ATOM     19  O   UNL     1       3.446   8.224  18.236  0.00  0.00    +0.000 OA
ATOM     20  O   UNL     1       1.492   6.670  17.904  0.00  0.00    +0.000 OA
BRANCH  18  21
ATOM     21  C   UNL     1       1.468   8.434  19.877  0.00  0.00    +0.000 A 
ATOM     22  C   UNL     1       1.592   8.236  21.276  0.00  0.00    +0.000 A 
ATOM     23  C   UNL     1       0.871   8.985  22.232  0.00  0.00    +0.000 A 
ATOM     24  C   UNL     1      -0.025  10.004  21.877  0.00  0.00    +0.000 A 
ATOM     25  C   UNL     1      -0.162  10.268  20.492  0.00  0.00    +0.000 A 
ATOM     26  N   UNL     1      -0.942  11.222  19.959  0.00  0.00    +0.000 NA
ATOM     27  S   UNL     1      -0.724  11.142  18.317  0.00  0.00    +0.000 S 
ATOM     28  N   UNL     1       0.337   9.876  18.208  0.00  0.00    +0.000 NA
ATOM     29  C   UNL     1       0.599   9.467  19.459  0.00  0.00    +0.000 A 
ENDBRANCH  18  21
ENDBRANCH  16  18
ENDBRANCH   7  16
TORSDOF 4
ENDMDL
MODEL 3
REMARK VINA RESULT:      -7.4      2.224      3.057
REMARK  Name = 
REMARK  4 active torsions:
REMARK  status: ('A' for Active; 'I' for Inactive)
REMARK    1  A    between atoms: C_2  and  C_3
REMARK    2  A    between atoms: C_9  and  N_10
REMARK    3  A    between atoms: N_10  and  S_11
REMARK    4  A    between atoms: S_11  and  C_14
REMARK                            x       y       z     vdW  Elec       q    Type
REMARK                         _______ _______ _______ _____ _____    ______ ____
ROOT
ATOM      1  C   UNL     1       2.720   5.985  18.882  0.00  0.00    +0.000 A 
ATOM      2  C   UNL     1       2.389   4.642  18.677  0.00  0.00    +0.000 A 
ATOM      3 CL   UNL     1       2.586   3.857  17.142  0.00  0.00    +0.000 Cl
ATOM      4  C   UNL     1       1.716   3.902  19.655  0.00  0.00    +0.000 A 
ATOM      5  C   UNL     1       1.233   4.534  20.794  0.00  0.00    +0.000 A 
ATOM      6  C   UNL     1       1.341   5.916  20.895  0.00  0.00    +0.000 A 
ATOM      7  C   UNL     1       2.051   6.651  19.928  0.00  0.00    +0.000 A 
ENDROOT
BRANCH   1   9
ATOM      8  O   UNL     1       3.290   7.616  17.304  0.00  0.00    +0.000 OA
ATOM      9  C   UNL     1       3.700   6.680  17.989  0.00  0.00    +0.000 C 
ATOM     10  N   UNL     1       5.051   6.265  17.950  0.00  0.00    +0.000 N 
ATOM     11  C   UNL     1       5.966   6.918  17.014  0.00  0.00    +0.000 C 
ATOM     12  C   UNL     1       6.688   5.877  16.162  0.00  0.00    +0.000 C 
ATOM     13  C   UNL     1       7.406   4.826  17.011  0.00  0.00    +0.000 C 
ATOM     14  C   UNL     1       6.544   4.282  18.149  0.00  0.00    +0.000 C 
ATOM     15  C   UNL     1       5.742   5.368  18.886  0.00  0.00    +0.000 C 
ENDBRANCH   1   9
BRANCH   7  16
ATOM     16  N   UNL     1       1.846   8.077  19.956  0.00  0.00    +0.000 N 
ATOM     17  H   UNL     1       1.470   8.451  19.088  0.00  0.00    +0.000 HD
BRANCH  16  18
ATOM     18  S   UNL     1       1.012   8.775  21.243  0.00  0.00    +0.000 S 
ATOM     19  O   UNL     1      -0.269   8.094  21.272  0.00  0.00    +0.000 OA
ATOM     20  O   UNL     1       1.855   8.826  22.411  0.00  0.00    +0.000 OA
BRANCH  18  21
ATOM     21  C   UNL     1       0.707  10.386  20.607  0.00  0.00    +0.000 A 
ATOM     22  C   UNL     1       1.108  10.701  19.284  0.00  0.00    +0.000 A 
ATOM     23  C   UNL     1       0.941  11.980  18.707  0.00  0.00    +0.000 A 
ATOM     24  C   UNL     1       0.349  13.050  19.395  0.00  0.00    +0.000 A 
ATOM     25  C   UNL     1      -0.102  12.781  20.711  0.00  0.00    +0.000 A 
ATOM     26  N   UNL     1      -0.721  13.661  21.513  0.00  0.00    +0.000 NA
ATOM     27  S   UNL     1      -1.068  12.851  22.917  0.00  0.00    +0.000 S 
ATOM     28  N   UNL     1      -0.420  11.365  22.585  0.00  0.00    +0.000 NA
ATOM     29  C   UNL     1       0.079  11.417  21.341  0.00  0.00    +0.000 A 
ENDBRANCH  18  21
ENDBRANCH  16  18
ENDBRANCH   7  16
TORSDOF 4
ENDMDL
MODEL 4
REMARK VINA RESULT:      -7.3      2.854      7.345
REMARK  Name = 
REMARK  4 active torsions:
REMARK  status: ('A' for Active; 'I' for Inactive)
REMARK    1  A    between atoms: C_2  and  C_3
REMARK    2  A    between atoms: C_9  and  N_10
REMARK    3  A    between atoms: N_10  and  S_11
REMARK    4  A    between atoms: S_11  and  C_14
REMARK                            x       y       z     vdW  Elec       q    Type
REMARK                         _______ _______ _______ _____ _____    ______ ____
ROOT
ATOM      1  C   UNL     1       1.623   8.245  19.708  0.00  0.00    +0.000 A 
ATOM      2  C   UNL     1       1.021   9.015  18.708  0.00  0.00    +0.000 A 
ATOM      3 CL   UNL     1      -0.626   9.549  18.808  0.00  0.00    +0.000 Cl
ATOM      4  C   UNL     1       1.662   9.250  17.487  0.00  0.00    +0.000 A 
ATOM      5  C   UNL     1       2.852   8.597  17.190  0.00  0.00    +0.000 A 
ATOM      6  C   UNL     1       3.336   7.641  18.076  0.00  0.00    +0.000 A 
ATOM      7  C   UNL     1       2.709   7.435  19.318  0.00  0.00    +0.000 A 
ENDROOT
BRANCH   1   9
ATOM      8  O   UNL     1       0.923   7.169  21.664  0.00  0.00    +0.000 OA
ATOM      9  C   UNL     1       1.093   8.252  21.108  0.00  0.00    +0.000 C 
ATOM     10  N   UNL     1       0.810   9.475  21.757  0.00  0.00    +0.000 N 
ATOM     11  C   UNL     1       0.225   9.446  23.098  0.00  0.00    +0.000 C 
ATOM     12  C   UNL     1      -1.037  10.305  23.147  0.00  0.00    +0.000 C 
ATOM     13  C   UNL     1      -0.786  11.738  22.674  0.00  0.00    +0.000 C 
ATOM     14  C   UNL     1       0.026  11.809  21.381  0.00  0.00    +0.000 C 
ATOM     15  C   UNL     1       1.208  10.827  21.343  0.00  0.00    +0.000 C 
ENDBRANCH   1   9
BRANCH   7  16
ATOM     16  N   UNL     1       3.092   6.235  20.017  0.00  0.00    +0.000 N 
ATOM     17  H   UNL     1       2.795   6.218  20.990  0.00  0.00    +0.000 HD
BRANCH  16  18
ATOM     18  S   UNL     1       2.764   4.730  19.334  0.00  0.00    +0.000 S 
ATOM     19  O   UNL     1       3.023   3.774  20.394  0.00  0.00    +0.000 OA
ATOM     20  O   UNL     1       1.493   4.760  18.653  0.00  0.00    +0.000 OA
BRANCH  18  21
ATOM     21  C   UNL     1       4.094   4.584  18.193  0.00  0.00    +0.000 A 
ATOM     22  C   UNL     1       3.838   4.122  16.877  0.00  0.00    +0.000 A 
ATOM     23  C   UNL     1       4.851   3.935  15.910  0.00  0.00    +0.000 A 
ATOM     24  C   UNL     1       6.204   4.204  16.168  0.00  0.00    +0.000 A 
ATOM     25  C   UNL     1       6.512   4.702  17.458  0.00  0.00    +0.000 A 
ATOM     26  N   UNL     1       7.737   5.048  17.882  0.00  0.00    +0.000 NA
ATOM     27  S   UNL     1       7.558   5.595  19.437  0.00  0.00    +0.000 S 
ATOM     28  N   UNL     1       5.931   5.383  19.653  0.00  0.00    +0.000 NA
ATOM     29  C   UNL     1       5.436   4.898  18.504  0.00  0.00    +0.000 A 
ENDBRANCH  18  21
ENDBRANCH  16  18
ENDBRANCH   7  16
TORSDOF 4
ENDMDL
MODEL 5
REMARK VINA RESULT:      -7.2      2.428      3.227
REMARK  Name = 
REMARK  4 active torsions:
REMARK  status: ('A' for Active; 'I' for Inactive)
REMARK    1  A    between atoms: C_2  and  C_3
REMARK    2  A    between atoms: C_9  and  N_10
REMARK    3  A    between atoms: N_10  and  S_11
REMARK    4  A    between atoms: S_11  and  C_14
REMARK                            x       y       z     vdW  Elec       q    Type
REMARK                         _______ _______ _______ _____ _____    ______ ____
ROOT
ATOM      1  C   UNL     1       2.688   6.053  18.886  0.00  0.00    +0.000 A 
ATOM      2  C   UNL     1       2.399   4.694  18.730  0.00  0.00    +0.000 A 
ATOM      3 CL   UNL     1       2.641   3.856  17.230  0.00  0.00    +0.000 Cl
ATOM      4  C   UNL     1       1.732   3.974  19.727  0.00  0.00    +0.000 A 
ATOM      5  C   UNL     1       1.214   4.636  20.833  0.00  0.00    +0.000 A 
ATOM      6  C   UNL     1       1.282   6.024  20.882  0.00  0.00    +0.000 A 
ATOM      7  C   UNL     1       1.985   6.740  19.896  0.00  0.00    +0.000 A 
ENDROOT
BRANCH   1   9
ATOM      8  O   UNL     1       3.251   7.680  17.301  0.00  0.00    +0.000 OA
ATOM      9  C   UNL     1       3.662   6.741  17.980  0.00  0.00    +0.000 C 
ATOM     10  N   UNL     1       5.009   6.316  17.925  0.00  0.00    +0.000 N 
ATOM     11  C   UNL     1       5.917   6.961  16.977  0.00  0.00    +0.000 C 
ATOM     12  C   UNL     1       6.621   5.914  16.116  0.00  0.00    +0.000 C 
ATOM     13  C   UNL     1       7.342   4.858  16.956  0.00  0.00    +0.000 C 
ATOM     14  C   UNL     1       6.490   4.322  18.106  0.00  0.00    +0.000 C 
ATOM     15  C   UNL     1       5.706   5.414  18.852  0.00  0.00    +0.000 C 
ENDBRANCH   1   9
BRANCH   7  16
ATOM     16  N   UNL     1       1.741   8.159  19.866  0.00  0.00    +0.000 N 
ATOM     17  H   UNL     1       1.323   8.481  18.995  0.00  0.00    +0.000 HD
BRANCH  16  18
ATOM     18  S   UNL     1       0.934   8.896  21.149  0.00  0.00    +0.000 S 
ATOM     19  O   UNL     1      -0.315   8.169  21.271  0.00  0.00    +0.000 OA
ATOM     20  O   UNL     1       1.823   9.043  22.274  0.00  0.00    +0.000 OA
BRANCH  18  21
ATOM     21  C   UNL     1       0.538  10.456  20.441  0.00  0.00    +0.000 A 
ATOM     22  C   UNL     1       1.133  11.631  20.965  0.00  0.00    +0.000 A 
ATOM     23  C   UNL     1       0.840  12.928  20.486  0.00  0.00    +0.000 A 
ATOM     24  C   UNL     1      -0.061  13.163  19.437  0.00  0.00    +0.000 A 
ATOM     25  C   UNL     1      -0.660  12.019  18.853  0.00  0.00    +0.000 A 
ATOM     26  N   UNL     1      -1.518  12.035  17.822  0.00  0.00    +0.000 NA
ATOM     27  S   UNL     1      -1.896  10.453  17.501  0.00  0.00    +0.000 S 
ATOM     28  N   UNL     1      -1.019   9.683  18.674  0.00  0.00    +0.000 NA
ATOM     29  C   UNL     1      -0.360  10.626  19.363  0.00  0.00    +0.000 A 
ENDBRANCH  18  21
ENDBRANCH  16  18
ENDBRANCH   7  16
TORSDOF 4
ENDMDL
MODEL 6
REMARK VINA RESULT:      -7.1      2.972      7.494
REMARK  Name = 
REMARK  4 active torsions:
REMARK  status: ('A' for Active; 'I' for Inactive)
REMARK    1  A    between atoms: C_2  and  C_3
REMARK    2  A    between atoms: C_9  and  N_10
REMARK    3  A    between atoms: N_10  and  S_11
REMARK    4  A    between atoms: S_11  and  C_14
REMARK                            x       y       z     vdW  Elec       q    Type
REMARK                         _______ _______ _______ _____ _____    ______ ____
ROOT
ATOM      1  C   UNL     1       0.973   8.628  20.011  0.00  0.00    +0.000 A 
ATOM      2  C   UNL     1       0.438   9.222  18.864  0.00  0.00    +0.000 A 
ATOM      3 CL   UNL     1      -1.211   9.752  18.772  0.00  0.00    +0.000 Cl
ATOM      4  C   UNL     1       1.157   9.263  17.664  0.00  0.00    +0.000 A 
ATOM      5  C   UNL     1       2.362   8.580  17.554  0.00  0.00    +0.000 A 
ATOM      6  C   UNL     1       2.786   7.783  18.611  0.00  0.00    +0.000 A 
ATOM      7  C   UNL     1       2.080   7.775  19.828  0.00  0.00    +0.000 A 
ENDROOT
BRANCH   1   9
ATOM      8  O   UNL     1      -0.022   7.874  21.990  0.00  0.00    +0.000 OA
ATOM      9  C   UNL     1       0.355   8.857  21.355  0.00  0.00    +0.000 C 
ATOM     10  N   UNL     1       0.221  10.169  21.866  0.00  0.00    +0.000 N 
ATOM     11  C   UNL     1      -0.454  10.363  23.150  0.00  0.00    +0.000 C 
ATOM     12  C   UNL     1      -1.566  11.401  23.014  0.00  0.00    +0.000 C 
ATOM     13  C   UNL     1      -1.061  12.725  22.437  0.00  0.00    +0.000 C 
ATOM     14  C   UNL     1      -0.160  12.543  21.217  0.00  0.00    +0.000 C 
ATOM     15  C   UNL     1       0.854  11.397  21.367  0.00  0.00    +0.000 C 
ENDBRANCH   1   9
BRANCH   7  16
ATOM     16  N   UNL     1       2.415   6.707  20.734  0.00  0.00    +0.000 N 
ATOM     17  H   UNL     1       2.276   6.946  21.713  0.00  0.00    +0.000 HD
BRANCH  16  18
ATOM     18  S   UNL     1       1.797   5.162  20.469  0.00  0.00    +0.000 S 
ATOM     19  O   UNL     1       2.278   4.370  21.585  0.00  0.00    +0.000 OA
ATOM     20  O   UNL     1       0.390   5.237  20.161  0.00  0.00    +0.000 OA
BRANCH  18  21
ATOM     21  C   UNL     1       2.731   4.666  19.064  0.00  0.00    +0.000 A 
ATOM     22  C   UNL     1       2.069   4.070  17.961  0.00  0.00    +0.000 A 
ATOM     23  C   UNL     1       2.745   3.604  16.810  0.00  0.00    +0.000 A 
ATOM     24  C   UNL     1       4.136   3.703  16.657  0.00  0.00    +0.000 A 
ATOM     25  C   UNL     1       4.844   4.323  17.716  0.00  0.00    +0.000 A 
ATOM     26  N   UNL     1       6.168   4.539  17.740  0.00  0.00    +0.000 NA
ATOM     27  S   UNL     1       6.491   5.315  19.170  0.00  0.00    +0.000 S 
ATOM     28  N   UNL     1       4.976   5.378  19.835  0.00  0.00    +0.000 NA
ATOM     29  C   UNL     1       4.131   4.818  18.956  0.00  0.00    +0.000 A 
ENDBRANCH  18  21
ENDBRANCH  16  18
ENDBRANCH   7  16
TORSDOF 4
ENDMDL
MODEL 7
REMARK VINA RESULT:      -7.1      2.418      3.249
REMARK  Name = 
REMARK  4 active torsions:
REMARK  status: ('A' for Active; 'I' for Inactive)
REMARK    1  A    between atoms: C_2  and  C_3
REMARK    2  A    between atoms: C_9  and  N_10
REMARK    3  A    between atoms: N_10  and  S_11
REMARK    4  A    between atoms: S_11  and  C_14
REMARK                            x       y       z     vdW  Elec       q    Type
REMARK                         _______ _______ _______ _____ _____    ______ ____
ROOT
ATOM      1  C   UNL     1       2.724   6.101  18.891  0.00  0.00    +0.000 A 
ATOM      2  C   UNL     1       2.391   4.750  18.749  0.00  0.00    +0.000 A 
ATOM      3 CL   UNL     1       2.571   3.899  17.249  0.00  0.00    +0.000 Cl
ATOM      4  C   UNL     1       1.727   4.055  19.766  0.00  0.00    +0.000 A 
ATOM      5  C   UNL     1       1.256   4.738  20.880  0.00  0.00    +0.000 A 
ATOM      6  C   UNL     1       1.366   6.124  20.920  0.00  0.00    +0.000 A 
ATOM      7  C   UNL     1       2.067   6.814  19.914  0.00  0.00    +0.000 A 
ENDROOT
BRANCH   1   9
ATOM      8  O   UNL     1       3.289   7.685  17.264  0.00  0.00    +0.000 OA
ATOM      9  C   UNL     1       3.696   6.755  17.959  0.00  0.00    +0.000 C 
ATOM     10  N   UNL     1       5.036   6.309  17.895  0.00  0.00    +0.000 N 
ATOM     11  C   UNL     1       5.941   6.921  16.922  0.00  0.00    +0.000 C 
ATOM     12  C   UNL     1       6.618   5.845  16.075  0.00  0.00    +0.000 C 
ATOM     13  C   UNL     1       7.335   4.797  16.928  0.00  0.00    +0.000 C 
ATOM     14  C   UNL     1       6.490   4.298  18.100  0.00  0.00    +0.000 C 
ATOM     15  C   UNL     1       5.732   5.417  18.832  0.00  0.00    +0.000 C 
ENDBRANCH   1   9
BRANCH   7  16
ATOM     16  N   UNL     1       1.864   8.239  19.882  0.00  0.00    +0.000 N 
ATOM     17  H   UNL     1       1.594   8.591  18.965  0.00  0.00    +0.000 HD
BRANCH  16  18
ATOM     18  S   UNL     1       0.886   8.971  21.043  0.00  0.00    +0.000 S 
ATOM     19  O   UNL     1      -0.214   8.046  21.241  0.00  0.00    +0.000 OA
ATOM     20  O   UNL     1       1.688   9.423  22.152  0.00  0.00    +0.000 OA
BRANCH  18  21
ATOM     21  C   UNL     1       0.241  10.327  20.128  0.00  0.00    +0.000 A 
ATOM     22  C   UNL     1      -0.758  10.096  19.149  0.00  0.00    +0.000 A 
ATOM     23  C   UNL     1      -1.302  11.119  18.340  0.00  0.00    +0.000 A 
ATOM     24  C   UNL     1      -0.905  12.461  18.447  0.00  0.00    +0.000 A 
ATOM     25  C   UNL     1       0.067  12.753  19.435  0.00  0.00    +0.000 A 
ATOM     26  N   UNL     1       0.546  13.976  19.711  0.00  0.00    +0.000 NA
ATOM     27  S   UNL     1       1.624  13.787  20.957  0.00  0.00    +0.000 S 
ATOM     28  N   UNL     1       1.556  12.148  21.177  0.00  0.00    +0.000 NA
ATOM     29  C   UNL     1       0.662  11.665  20.301  0.00  0.00    +0.000 A 
ENDBRANCH  18  21
ENDBRANCH  16  18
ENDBRANCH   7  16
TORSDOF 4
ENDMDL
MODEL 8
REMARK VINA RESULT:      -7.1      1.231      1.325
REMARK  Name = 
REMARK  4 active torsions:
REMARK  status: ('A' for Active; 'I' for Inactive)
REMARK    1  A    between atoms: C_2  and  C_3
REMARK    2  A    between atoms: C_9  and  N_10
REMARK    3  A    between atoms: N_10  and  S_11
REMARK    4  A    between atoms: S_11  and  C_14
REMARK                            x       y       z     vdW  Elec       q    Type
REMARK                         _______ _______ _______ _____ _____    ______ ____
ROOT
ATOM      1  C   UNL     1       3.421   3.465  18.627  0.00  0.00    +0.000 A 
ATOM      2  C   UNL     1       3.041   2.122  18.722  0.00  0.00    +0.000 A 
ATOM      3 CL   UNL     1       4.093   0.822  18.261  0.00  0.00    +0.000 Cl
ATOM      4  C   UNL     1       1.726   1.759  19.030  0.00  0.00    +0.000 A 
ATOM      5  C   UNL     1       0.736   2.732  19.103  0.00  0.00    +0.000 A 
ATOM      6  C   UNL     1       1.053   4.044  18.770  0.00  0.00    +0.000 A 
ATOM      7  C   UNL     1       2.384   4.411  18.498  0.00  0.00    +0.000 A 
ENDROOT
BRANCH   1   9
ATOM      8  O   UNL     1       5.440   3.976  19.694  0.00  0.00    +0.000 OA
ATOM      9  C   UNL     1       4.866   3.856  18.613  0.00  0.00    +0.000 C 
ATOM     10  N   UNL     1       5.536   4.070  17.387  0.00  0.00    +0.000 N 
ATOM     11  C   UNL     1       6.927   4.522  17.409  0.00  0.00    +0.000 C 
ATOM     12  C   UNL     1       7.096   5.770  16.545  0.00  0.00    +0.000 C 
ATOM     13  C   UNL     1       6.595   5.560  15.114  0.00  0.00    +0.000 C 
ATOM     14  C   UNL     1       5.229   4.878  15.051  0.00  0.00    +0.000 C 
ATOM     15  C   UNL     1       5.079   3.709  16.038  0.00  0.00    +0.000 C 
ENDBRANCH   1   9
BRANCH   7  16
ATOM     16  N   UNL     1       2.559   5.698  17.875  0.00  0.00    +0.000 N 
ATOM     17  H   UNL     1       1.708   6.065  17.456  0.00  0.00    +0.000 HD
BRANCH  16  18
ATOM     18  S   UNL     1       3.314   6.941  18.726  0.00  0.00    +0.000 S 
ATOM     19  O   UNL     1       3.476   6.428  20.073  0.00  0.00    +0.000 OA
ATOM     20  O   UNL     1       4.442   7.439  17.978  0.00  0.00    +0.000 OA
BRANCH  18  21
ATOM     21  C   UNL     1       2.021   8.130  18.796  0.00  0.00    +0.000 A 
ATOM     22  C   UNL     1       1.532   8.701  17.594  0.00  0.00    +0.000 A 
ATOM     23  C   UNL     1       0.525   9.692  17.559  0.00  0.00    +0.000 A 
ATOM     24  C   UNL     1      -0.088  10.190  18.719  0.00  0.00    +0.000 A 
ATOM     25  C   UNL     1       0.339   9.629  19.948  0.00  0.00    +0.000 A 
ATOM     26  N   UNL     1      -0.149   9.948  21.156  0.00  0.00    +0.000 NA
ATOM     27  S   UNL     1       0.653   8.997  22.252  0.00  0.00    +0.000 S 
ATOM     28  N   UNL     1       1.675   8.166  21.250  0.00  0.00    +0.000 NA
ATOM     29  C   UNL     1       1.422   8.573  19.997  0.00  0.00    +0.000 A 
ENDBRANCH  18  21
ENDBRANCH  16  18
ENDBRANCH   7  16
TORSDOF 4
ENDMDL
MODEL 9
REMARK VINA RESULT:      -7.1      2.415      3.133
REMARK  Name = 
REMARK  4 active torsions:
REMARK  status: ('A' for Active; 'I' for Inactive)
REMARK    1  A    between atoms: C_2  and  C_3
REMARK    2  A    between atoms: C_9  and  N_10
REMARK    3  A    between atoms: N_10  and  S_11
REMARK    4  A    between atoms: S_11  and  C_14
REMARK                            x       y       z     vdW  Elec       q    Type
REMARK                         _______ _______ _______ _____ _____    ______ ____
ROOT
ATOM      1  C   UNL     1       2.913   6.190  18.621  0.00  0.00    +0.000 A 
ATOM      2  C   UNL     1       2.403   4.890  18.548  0.00  0.00    +0.000 A 
ATOM      3 CL   UNL     1       2.506   3.929  17.108  0.00  0.00    +0.000 Cl
ATOM      4  C   UNL     1       1.626   4.356  19.582  0.00  0.00    +0.000 A 
ATOM      5  C   UNL     1       1.223   5.165  20.637  0.00  0.00    +0.000 A 
ATOM      6  C   UNL     1       1.519   6.522  20.598  0.00  0.00    +0.000 A 
ATOM      7  C   UNL     1       2.332   7.048  19.577  0.00  0.00    +0.000 A 
ENDROOT
BRANCH   1   9
ATOM      8  O   UNL     1       3.668   7.403  16.768  0.00  0.00    +0.000 OA
ATOM      9  C   UNL     1       3.987   6.648  17.685  0.00  0.00    +0.000 C 
ATOM     10  N   UNL     1       5.323   6.223  17.867  0.00  0.00    +0.000 N 
ATOM     11  C   UNL     1       6.335   6.630  16.892  0.00  0.00    +0.000 C 
ATOM     12  C   UNL     1       7.096   5.411  16.374  0.00  0.00    +0.000 C 
ATOM     13  C   UNL     1       7.706   4.580  17.505  0.00  0.00    +0.000 C 
ATOM     14  C   UNL     1       6.732   4.327  18.655  0.00  0.00    +0.000 C 
ATOM     15  C   UNL     1       5.903   5.562  19.044  0.00  0.00    +0.000 C 
ENDBRANCH   1   9
BRANCH   7  16
ATOM     16  N   UNL     1       2.324   8.483  19.453  0.00  0.00    +0.000 N 
ATOM     17  H   UNL     1       3.256   8.891  19.406  0.00  0.00    +0.000 HD
BRANCH  16  18
ATOM     18  S   UNL     1       1.362   9.215  18.280  0.00  0.00    +0.000 S 
ATOM     19  O   UNL     1       2.255  10.111  17.569  0.00  0.00    +0.000 OA
ATOM     20  O   UNL     1       0.591   8.219  17.578  0.00  0.00    +0.000 OA
BRANCH  18  21
ATOM     21  C   UNL     1       0.330  10.229  19.281  0.00  0.00    +0.000 A 
ATOM     22  C   UNL     1       0.747  10.567  20.594  0.00  0.00    +0.000 A 
ATOM     23  C   UNL     1      -0.036  11.340  21.480  0.00  0.00    +0.000 A 
ATOM     24  C   UNL     1      -1.295  11.852  21.130  0.00  0.00    +0.000 A 
ATOM     25  C   UNL     1      -1.745  11.572  19.817  0.00  0.00    +0.000 A 
ATOM     26  N   UNL     1      -2.901  12.000  19.287  0.00  0.00    +0.000 NA
ATOM     27  S   UNL     1      -2.941  11.435  17.729  0.00  0.00    +0.000 S 
ATOM     28  N   UNL     1      -1.516  10.596  17.668  0.00  0.00    +0.000 NA
ATOM     29  C   UNL     1      -0.919  10.739  18.862  0.00  0.00    +0.000 A 
ENDBRANCH  18  21
ENDBRANCH  16  18
ENDBRANCH   7  16
TORSDOF 4
ENDMDL
