MODEL 1
REMARK VINA RESULT:      -8.8      0.000      0.000
REMARK  Name = 
REMARK  7 active torsions:
REMARK  status: ('A' for Active; 'I' for Inactive)
REMARK    1  A    between atoms: C_1  and  C_2
REMARK    2  A    between atoms: C_5  and  C_6
REMARK    3  A    between atoms: C_11  and  C_12
REMARK    4  A    between atoms: C_15  and  C_16
REMARK    5  A    between atoms: C_23  and  C_24
REMARK    6  A    between atoms: C_26  and  C_27
REMARK    7  A    between atoms: C_30  and  C_31
REMARK                            x       y       z     vdW  Elec       q    Type
REMARK                         _______ _______ _______ _____ _____    ______ ____
ROOT
ATOM      1  C   UNL     1       4.176   4.512  19.379  0.00  0.00    +0.000 C 
ATOM      2  C   UNL     1       3.586   5.833  18.953  0.00  0.00    +0.000 A 
ATOM      3  C   UNL     1       2.602   6.389  19.782  0.00  0.00    +0.000 A 
ATOM      4  C   UNL     1       2.047   7.641  19.502  0.00  0.00    +0.000 A 
ATOM      5  C   UNL     1       2.435   8.390  18.378  0.00  0.00    +0.000 A 
ATOM      6  C   UNL     1       3.397   7.817  17.541  0.00  0.00    +0.000 A 
ATOM      7  C   UNL     1       3.994   6.553  17.807  0.00  0.00    +0.000 A 
ENDROOT
BRANCH   5   8
ATOM      8  C   UNL     1       1.875   9.786  18.278  0.00  0.00    +0.000 C 
ATOM      9  O   UNL     1       2.301  10.468  17.336  0.00  0.00    +0.000 OA
ATOM     10  N   UNL     1       0.868  10.324  19.099  0.00  0.00    +0.000 N 
ATOM     11  C   UNL     1       0.213  11.524  18.570  0.00  0.00    +0.000 C 
ATOM     12  C   UNL     1      -1.120  11.800  19.255  0.00  0.00    +0.000 C 
ATOM     13  C   UNL     1      -0.846  12.170  20.717  0.00  0.00    +0.000 C 
ATOM     14  C   UNL     1       0.194  11.214  21.351  0.00  0.00    +0.000 C 
ATOM     15  C   UNL     1       0.551   9.983  20.490  0.00  0.00    +0.000 C 
BRANCH  13  16
ATOM     16  C   UNL     1      -2.122  12.370  21.527  0.00  0.00    +0.000 A 
ATOM     17  C   UNL     1      -2.161  12.211  22.918  0.00  0.00    +0.000 A 
ATOM     18  C   UNL     1      -3.362  12.371  23.625  0.00  0.00    +0.000 A 
ATOM     19  C   UNL     1      -4.545  12.698  22.953  0.00  0.00    +0.000 A 
ATOM     20  C   UNL     1      -4.519  12.864  21.567  0.00  0.00    +0.000 A 
ATOM     21  C   UNL     1      -3.319  12.701  20.864  0.00  0.00    +0.000 A 
BRANCH  19  22
ATOM     22  C   UNL     1      -5.771  12.858  23.685  0.00  0.00    +0.000 C 
ATOM     23  N   UNL     1      -6.765  12.984  24.276  0.00  0.00    +0.000 NA
ENDBRANCH  19  22
ENDBRANCH  13  16
ENDBRANCH   5   8
BRANCH   7  24
ATOM     24  C   UNL     1       5.066   6.085  16.910  0.00  0.00    +0.000 A 
ATOM     25  N   UNL     1       4.866   5.357  15.754  0.00  0.00    +0.000 N 
ATOM     26  C   UNL     1       6.080   5.033  15.205  0.00  0.00    +0.000 A 
ATOM     27  N   UNL     1       7.056   5.570  15.908  0.00  0.00    +0.000 NA
ATOM     28  C   UNL     1       6.451   6.226  16.959  0.00  0.00    +0.000 A 
ATOM     29  C   UNL     1       7.298   6.914  17.965  0.00  0.00    +0.000 C 
ATOM     30  H   UNL     1       3.977   5.076  15.369  0.00  0.00    +0.000 HD
BRANCH  26  31
ATOM     31  C   UNL     1       6.238   4.218  14.051  0.00  0.00    +0.000 C 
ATOM     32  N   UNL     1       6.409   3.603  13.081  0.00  0.00    +0.000 NA
ENDBRANCH  26  31
ENDBRANCH   7  24
TORSDOF 5
ENDMDL
MODEL 2
REMARK VINA RESULT:      -8.7      1.340      1.961
REMARK  Name = 
REMARK  7 active torsions:
REMARK  status: ('A' for Active; 'I' for Inactive)
REMARK    1  A    between atoms: C_1  and  C_2
REMARK    2  A    between atoms: C_5  and  C_6
REMARK    3  A    between atoms: C_11  and  C_12
REMARK    4  A    between atoms: C_15  and  C_16
REMARK    5  A    between atoms: C_23  and  C_24
REMARK    6  A    between atoms: C_26  and  C_27
REMARK    7  A    between atoms: C_30  and  C_31
REMARK                            x       y       z     vdW  Elec       q    Type
REMARK                         _______ _______ _______ _____ _____    ______ ____
ROOT
ATOM      1  C   UNL     1       3.062   4.184  20.579  0.00  0.00    +0.000 C 
ATOM      2  C   UNL     1       2.546   5.529  20.135  0.00  0.00    +0.000 A 
ATOM      3  C   UNL     1       1.764   6.247  21.050  0.00  0.00    +0.000 A 
ATOM      4  C   UNL     1       1.298   7.530  20.750  0.00  0.00    +0.000 A 
ATOM      5  C   UNL     1       1.576   8.151  19.521  0.00  0.00    +0.000 A 
ATOM      6  C   UNL     1       2.334   7.419  18.602  0.00  0.00    +0.000 A 
ATOM      7  C   UNL     1       2.837   6.118  18.883  0.00  0.00    +0.000 A 
ENDROOT
BRANCH   5   8
ATOM      8  C   UNL     1       1.149   9.591  19.386  0.00  0.00    +0.000 C 
ATOM      9  O   UNL     1       1.734  10.244  18.512  0.00  0.00    +0.000 OA
ATOM     10  N   UNL     1       0.102  10.203  20.098  0.00  0.00    +0.000 N 
ATOM     11  C   UNL     1      -0.387  11.459  19.523  0.00  0.00    +0.000 C 
ATOM     12  C   UNL     1      -1.762  11.839  20.059  0.00  0.00    +0.000 C 
ATOM     13  C   UNL     1      -1.627  12.170  21.549  0.00  0.00    +0.000 C 
ATOM     14  C   UNL     1      -0.749  11.123  22.278  0.00  0.00    +0.000 C 
ATOM     15  C   UNL     1      -0.399   9.876  21.437  0.00  0.00    +0.000 C 
BRANCH  13  16
ATOM     16  C   UNL     1      -2.966  12.468  22.213  0.00  0.00    +0.000 A 
ATOM     17  C   UNL     1      -3.122  12.507  23.605  0.00  0.00    +0.000 A 
ATOM     18  C   UNL     1      -4.378  12.752  24.179  0.00  0.00    +0.000 A 
ATOM     19  C   UNL     1      -5.500  12.967  23.372  0.00  0.00    +0.000 A 
ATOM     20  C   UNL     1      -5.359  12.935  21.983  0.00  0.00    +0.000 A 
ATOM     21  C   UNL     1      -4.104  12.688  21.413  0.00  0.00    +0.000 A 
BRANCH  19  22
ATOM     22  C   UNL     1      -6.783  13.215  23.969  0.00  0.00    +0.000 C 
ATOM     23  N   UNL     1      -7.821  13.418  24.454  0.00  0.00    +0.000 NA
ENDBRANCH  19  22
ENDBRANCH  13  16
ENDBRANCH   5   8
BRANCH   7  24
ATOM     24  C   UNL     1       3.704   5.473  17.880  0.00  0.00    +0.000 A 
ATOM     25  N   UNL     1       4.912   5.976  17.442  0.00  0.00    +0.000 N 
ATOM     26  C   UNL     1       5.415   5.161  16.462  0.00  0.00    +0.000 A 
ATOM     27  N   UNL     1       4.629   4.118  16.287  0.00  0.00    +0.000 NA
ATOM     28  C   UNL     1       3.572   4.290  17.155  0.00  0.00    +0.000 A 
ATOM     29  C   UNL     1       2.480   3.285  17.174  0.00  0.00    +0.000 C 
ATOM     30  H   UNL     1       5.361   6.822  17.761  0.00  0.00    +0.000 HD
BRANCH  26  31
ATOM     31  C   UNL     1       6.609   5.431  15.738  0.00  0.00    +0.000 C 
ATOM     32  N   UNL     1       7.621   5.625  15.201  0.00  0.00    +0.000 NA
ENDBRANCH  26  31
ENDBRANCH   7  24
TORSDOF 5
ENDMDL
MODEL 3
REMARK VINA RESULT:      -7.9      2.902     10.590
REMARK  Name = 
REMARK  7 active torsions:
REMARK  status: ('A' for Active; 'I' for Inactive)
REMARK    1  A    between atoms: C_1  and  C_2
REMARK    2  A    between atoms: C_5  and  C_6
REMARK    3  A    between atoms: C_11  and  C_12
REMARK    4  A    between atoms: C_15  and  C_16
REMARK    5  A    between atoms: C_23  and  C_24
REMARK    6  A    between atoms: C_26  and  C_27
REMARK    7  A    between atoms: C_30  and  C_31
REMARK                            x       y       z     vdW  Elec       q    Type
REMARK                         _______ _______ _______ _____ _____    ______ ____
ROOT
ATOM      1  C   UNL     1      -1.861  13.189  19.736  0.00  0.00    +0.000 C 
ATOM      2  C   UNL     1      -1.006  11.948  19.677  0.00  0.00    +0.000 A 
ATOM      3  C   UNL     1       0.017  11.832  20.629  0.00  0.00    +0.000 A 
ATOM      4  C   UNL     1       0.816  10.687  20.693  0.00  0.00    +0.000 A 
ATOM      5  C   UNL     1       0.643   9.612  19.805  0.00  0.00    +0.000 A 
ATOM      6  C   UNL     1      -0.361   9.745  18.841  0.00  0.00    +0.000 A 
ATOM      7  C   UNL     1      -1.202  10.890  18.760  0.00  0.00    +0.000 A 
ENDROOT
BRANCH   5   8
ATOM      8  C   UNL     1       1.463   8.377  20.080  0.00  0.00    +0.000 C 
ATOM      9  O   UNL     1       1.345   7.898  21.216  0.00  0.00    +0.000 OA
ATOM     10  N   UNL     1       2.260   7.698  19.141  0.00  0.00    +0.000 N 
ATOM     11  C   UNL     1       2.628   6.330  19.515  0.00  0.00    +0.000 C 
ATOM     12  C   UNL     1       3.098   5.513  18.317  0.00  0.00    +0.000 C 
ATOM     13  C   UNL     1       4.420   6.104  17.816  0.00  0.00    +0.000 C 
ATOM     14  C   UNL     1       4.354   7.650  17.751  0.00  0.00    +0.000 C 
ATOM     15  C   UNL     1       2.946   8.246  17.967  0.00  0.00    +0.000 C 
BRANCH  13  16
ATOM     16  C   UNL     1       4.932   5.423  16.552  0.00  0.00    +0.000 A 
ATOM     17  C   UNL     1       5.213   6.133  15.378  0.00  0.00    +0.000 A 
ATOM     18  C   UNL     1       5.651   5.466  14.224  0.00  0.00    +0.000 A 
ATOM     19  C   UNL     1       5.820   4.078  14.225  0.00  0.00    +0.000 A 
ATOM     20  C   UNL     1       5.547   3.358  15.390  0.00  0.00    +0.000 A 
ATOM     21  C   UNL     1       5.107   4.025  16.540  0.00  0.00    +0.000 A 
BRANCH  19  22
ATOM     22  C   UNL     1       6.266   3.403  13.038  0.00  0.00    +0.000 C 
ATOM     23  N   UNL     1       6.626   2.854  12.078  0.00  0.00    +0.000 NA
ENDBRANCH  19  22
ENDBRANCH  13  16
ENDBRANCH   5   8
BRANCH   7  24
ATOM     24  C   UNL     1      -2.291  10.887  17.766  0.00  0.00    +0.000 A 
ATOM     25  N   UNL     1      -2.170  10.440  16.466  0.00  0.00    +0.000 N 
ATOM     26  C   UNL     1      -3.352  10.645  15.803  0.00  0.00    +0.000 A 
ATOM     27  N   UNL     1      -4.255  11.140  16.624  0.00  0.00    +0.000 NA
ATOM     28  C   UNL     1      -3.622  11.291  17.839  0.00  0.00    +0.000 A 
ATOM     29  C   UNL     1      -4.375  11.869  18.980  0.00  0.00    +0.000 C 
ATOM     30  H   UNL     1      -1.344  10.045  16.042  0.00  0.00    +0.000 HD
BRANCH  26  31
ATOM     31  C   UNL     1      -3.547  10.371  14.421  0.00  0.00    +0.000 C 
ATOM     32  N   UNL     1      -3.755  10.199  13.292  0.00  0.00    +0.000 NA
ENDBRANCH  26  31
ENDBRANCH   7  24
TORSDOF 5
ENDMDL
MODEL 4
REMARK VINA RESULT:      -7.9      0.967      1.025
REMARK  Name = 
REMARK  7 active torsions:
REMARK  status: ('A' for Active; 'I' for Inactive)
REMARK    1  A    between atoms: C_1  and  C_2
REMARK    2  A    between atoms: C_5  and  C_6
REMARK    3  A    between atoms: C_11  and  C_12
REMARK    4  A    between atoms: C_15  and  C_16
REMARK    5  A    between atoms: C_23  and  C_24
REMARK    6  A    between atoms: C_26  and  C_27
REMARK    7  A    between atoms: C_30  and  C_31
REMARK                            x       y       z     vdW  Elec       q    Type
REMARK                         _______ _______ _______ _____ _____    ______ ____
ROOT
ATOM      1  C   UNL     1       4.632   3.808  19.425  0.00  0.00    +0.000 C 
ATOM      2  C   UNL     1       4.008   5.099  18.956  0.00  0.00    +0.000 A 
ATOM      3  C   UNL     1       3.089   5.713  19.818  0.00  0.00    +0.000 A 
ATOM      4  C   UNL     1       2.511   6.945  19.497  0.00  0.00    +0.000 A 
ATOM      5  C   UNL     1       2.810   7.614  18.298  0.00  0.00    +0.000 A 
ATOM      6  C   UNL     1       3.707   6.983  17.431  0.00  0.00    +0.000 A 
ATOM      7  C   UNL     1       4.325   5.738  17.736  0.00  0.00    +0.000 A 
ENDROOT
BRANCH   5   8
ATOM      8  C   UNL     1       2.241   9.002  18.146  0.00  0.00    +0.000 C 
ATOM      9  O   UNL     1       2.529   9.587  17.094  0.00  0.00    +0.000 OA
ATOM     10  N   UNL     1       1.360   9.627  19.046  0.00  0.00    +0.000 N 
ATOM     11  C   UNL     1       0.636  10.781  18.504  0.00  0.00    +0.000 C 
ATOM     12  C   UNL     1      -0.587  11.137  19.341  0.00  0.00    +0.000 C 
ATOM     13  C   UNL     1      -0.108  11.639  20.708  0.00  0.00    +0.000 C 
ATOM     14  C   UNL     1       1.011  10.732  21.277  0.00  0.00    +0.000 C 
ATOM     15  C   UNL     1       1.243   9.422  20.494  0.00  0.00    +0.000 C 
BRANCH  13  16
ATOM     16  C   UNL     1      -1.257  11.930  21.667  0.00  0.00    +0.000 A 
ATOM     17  C   UNL     1      -1.451  11.204  22.849  0.00  0.00    +0.000 A 
ATOM     18  C   UNL     1      -2.540  11.480  23.689  0.00  0.00    +0.000 A 
ATOM     19  C   UNL     1      -3.452  12.490  23.365  0.00  0.00    +0.000 A 
ATOM     20  C   UNL     1      -3.269  13.224  22.192  0.00  0.00    +0.000 A 
ATOM     21  C   UNL     1      -2.182  12.945  21.353  0.00  0.00    +0.000 A 
BRANCH  19  22
ATOM     22  C   UNL     1      -4.565  12.763  24.231  0.00  0.00    +0.000 C 
ATOM     23  N   UNL     1      -5.467  12.981  24.932  0.00  0.00    +0.000 NA
ENDBRANCH  19  22
ENDBRANCH  13  16
ENDBRANCH   5   8
BRANCH   7  24
ATOM     24  C   UNL     1       5.327   5.207  16.793  0.00  0.00    +0.000 A 
ATOM     25  N   UNL     1       5.045   4.727  15.531  0.00  0.00    +0.000 N 
ATOM     26  C   UNL     1       6.196   4.251  14.958  0.00  0.00    +0.000 A 
ATOM     27  N   UNL     1       7.223   4.459  15.757  0.00  0.00    +0.000 NA
ATOM     28  C   UNL     1       6.708   5.052  16.890  0.00  0.00    +0.000 A 
ATOM     29  C   UNL     1       7.622   5.384  18.011  0.00  0.00    +0.000 C 
ATOM     30  H   UNL     1       4.138   4.698  15.089  0.00  0.00    +0.000 HD
BRANCH  26  31
ATOM     31  C   UNL     1       6.247   3.613  13.689  0.00  0.00    +0.000 C 
ATOM     32  N   UNL     1       6.346   3.131  12.636  0.00  0.00    +0.000 NA
ENDBRANCH  26  31
ENDBRANCH   7  24
TORSDOF 5
ENDMDL
MODEL 5
REMARK VINA RESULT:      -7.9      3.545      4.642
REMARK  Name = 
REMARK  7 active torsions:
REMARK  status: ('A' for Active; 'I' for Inactive)
REMARK    1  A    between atoms: C_1  and  C_2
REMARK    2  A    between atoms: C_5  and  C_6
REMARK    3  A    between atoms: C_11  and  C_12
REMARK    4  A    between atoms: C_15  and  C_16
REMARK    5  A    between atoms: C_23  and  C_24
REMARK    6  A    between atoms: C_26  and  C_27
REMARK    7  A    between atoms: C_30  and  C_31
REMARK                            x       y       z     vdW  Elec       q    Type
REMARK                         _______ _______ _______ _____ _____    ______ ____
ROOT
ATOM      1  C   UNL     1       4.081   2.282  17.777  0.00  0.00    +0.000 C 
ATOM      2  C   UNL     1       3.461   3.551  18.303  0.00  0.00    +0.000 A 
ATOM      3  C   UNL     1       2.285   3.423  19.055  0.00  0.00    +0.000 A 
ATOM      4  C   UNL     1       1.676   4.538  19.638  0.00  0.00    +0.000 A 
ATOM      5  C   UNL     1       2.201   5.833  19.486  0.00  0.00    +0.000 A 
ATOM      6  C   UNL     1       3.359   5.957  18.713  0.00  0.00    +0.000 A 
ATOM      7  C   UNL     1       4.012   4.840  18.121  0.00  0.00    +0.000 A 
ENDROOT
BRANCH   5   8
ATOM      8  C   UNL     1       1.539   6.922  20.292  0.00  0.00    +0.000 C 
ATOM      9  O   UNL     1       1.036   6.564  21.365  0.00  0.00    +0.000 OA
ATOM     10  N   UNL     1       1.531   8.290  19.966  0.00  0.00    +0.000 N 
ATOM     11  C   UNL     1       1.192   9.189  21.074  0.00  0.00    +0.000 C 
ATOM     12  C   UNL     1       1.615  10.626  20.797  0.00  0.00    +0.000 C 
ATOM     13  C   UNL     1       0.767  11.166  19.639  0.00  0.00    +0.000 C 
ATOM     14  C   UNL     1       0.660  10.131  18.492  0.00  0.00    +0.000 C 
ATOM     15  C   UNL     1       1.591   8.908  18.637  0.00  0.00    +0.000 C 
BRANCH  13  16
ATOM     16  C   UNL     1       1.177  12.570  19.210  0.00  0.00    +0.000 A 
ATOM     17  C   UNL     1       2.260  12.807  18.354  0.00  0.00    +0.000 A 
ATOM     18  C   UNL     1       2.627  14.116  18.008  0.00  0.00    +0.000 A 
ATOM     19  C   UNL     1       1.915  15.212  18.508  0.00  0.00    +0.000 A 
ATOM     20  C   UNL     1       0.831  14.990  19.359  0.00  0.00    +0.000 A 
ATOM     21  C   UNL     1       0.468  13.682  19.706  0.00  0.00    +0.000 A 
BRANCH  19  22
ATOM     22  C   UNL     1       2.300  16.549  18.151  0.00  0.00    +0.000 C 
ATOM     23  N   UNL     1       2.612  17.632  17.864  0.00  0.00    +0.000 NA
ENDBRANCH  19  22
ENDBRANCH  13  16
ENDBRANCH   5   8
BRANCH   7  24
ATOM     24  C   UNL     1       5.279   5.073  17.403  0.00  0.00    +0.000 A 
ATOM     25  N   UNL     1       5.420   5.066  16.030  0.00  0.00    +0.000 N 
ATOM     26  C   UNL     1       6.740   5.248  15.708  0.00  0.00    +0.000 A 
ATOM     27  N   UNL     1       7.453   5.439  16.799  0.00  0.00    +0.000 NA
ATOM     28  C   UNL     1       6.570   5.340  17.853  0.00  0.00    +0.000 A 
ATOM     29  C   UNL     1       7.080   5.476  19.240  0.00  0.00    +0.000 C 
ATOM     30  H   UNL     1       4.685   4.926  15.352  0.00  0.00    +0.000 HD
BRANCH  26  31
ATOM     31  C   UNL     1       7.246   5.213  14.380  0.00  0.00    +0.000 C 
ATOM     32  N   UNL     1       7.623   5.245  13.282  0.00  0.00    +0.000 NA
ENDBRANCH  26  31
ENDBRANCH   7  24
TORSDOF 5
ENDMDL
MODEL 6
REMARK VINA RESULT:      -7.7      1.568      2.239
REMARK  Name = 
REMARK  7 active torsions:
REMARK  status: ('A' for Active; 'I' for Inactive)
REMARK    1  A    between atoms: C_1  and  C_2
REMARK    2  A    between atoms: C_5  and  C_6
REMARK    3  A    between atoms: C_11  and  C_12
REMARK    4  A    between atoms: C_15  and  C_16
REMARK    5  A    between atoms: C_23  and  C_24
REMARK    6  A    between atoms: C_26  and  C_27
REMARK    7  A    between atoms: C_30  and  C_31
REMARK                            x       y       z     vdW  Elec       q    Type
REMARK                         _______ _______ _______ _____ _____    ______ ____
ROOT
ATOM      1  C   UNL     1       2.617   4.711  20.740  0.00  0.00    +0.000 C 
ATOM      2  C   UNL     1       2.248   6.055  20.163  0.00  0.00    +0.000 A 
ATOM      3  C   UNL     1       1.484   6.907  20.972  0.00  0.00    +0.000 A 
ATOM      4  C   UNL     1       1.151   8.197  20.548  0.00  0.00    +0.000 A 
ATOM      5  C   UNL     1       1.550   8.691  19.294  0.00  0.00    +0.000 A 
ATOM      6  C   UNL     1       2.289   7.826  18.482  0.00  0.00    +0.000 A 
ATOM      7  C   UNL     1       2.659   6.514  18.891  0.00  0.00    +0.000 A 
ENDROOT
BRANCH   5   8
ATOM      8  C   UNL     1       1.260  10.146  19.025  0.00  0.00    +0.000 C 
ATOM      9  O   UNL     1       1.911  10.660  18.106  0.00  0.00    +0.000 OA
ATOM     10  N   UNL     1       0.269  10.914  19.663  0.00  0.00    +0.000 N 
ATOM     11  C   UNL     1      -0.096  12.153  18.970  0.00  0.00    +0.000 C 
ATOM     12  C   UNL     1      -1.434  12.705  19.447  0.00  0.00    +0.000 C 
ATOM     13  C   UNL     1      -1.280  13.155  20.904  0.00  0.00    +0.000 C 
ATOM     14  C   UNL     1      -0.509  12.101  21.737  0.00  0.00    +0.000 C 
ATOM     15  C   UNL     1      -0.271  10.756  21.017  0.00  0.00    +0.000 C 
BRANCH  13  16
ATOM     16  C   UNL     1      -2.591  13.634  21.517  0.00  0.00    +0.000 A 
ATOM     17  C   UNL     1      -3.667  12.769  21.758  0.00  0.00    +0.000 A 
ATOM     18  C   UNL     1      -4.870  13.254  22.293  0.00  0.00    +0.000 A 
ATOM     19  C   UNL     1      -5.017  14.611  22.601  0.00  0.00    +0.000 A 
ATOM     20  C   UNL     1      -3.951  15.483  22.370  0.00  0.00    +0.000 A 
ATOM     21  C   UNL     1      -2.752  14.997  21.833  0.00  0.00    +0.000 A 
BRANCH  19  22
ATOM     22  C   UNL     1      -6.254  15.098  23.145  0.00  0.00    +0.000 C 
ATOM     23  N   UNL     1      -7.253  15.496  23.588  0.00  0.00    +0.000 NA
ENDBRANCH  19  22
ENDBRANCH  13  16
ENDBRANCH   5   8
BRANCH   7  24
ATOM     24  C   UNL     1       3.518   5.720  17.995  0.00  0.00    +0.000 A 
ATOM     25  N   UNL     1       4.784   6.088  17.586  0.00  0.00    +0.000 N 
ATOM     26  C   UNL     1       5.267   5.154  16.706  0.00  0.00    +0.000 A 
ATOM     27  N   UNL     1       4.408   4.165  16.574  0.00  0.00    +0.000 NA
ATOM     28  C   UNL     1       3.327   4.493  17.364  0.00  0.00    +0.000 A 
ATOM     29  C   UNL     1       2.157   3.580  17.403  0.00  0.00    +0.000 C 
ATOM     30  H   UNL     1       5.285   6.921  17.860  0.00  0.00    +0.000 HD
BRANCH  26  31
ATOM     31  C   UNL     1       6.513   5.268  16.031  0.00  0.00    +0.000 C 
ATOM     32  N   UNL     1       7.495   5.379  15.421  0.00  0.00    +0.000 NA
ENDBRANCH  26  31
ENDBRANCH   7  24
TORSDOF 5
ENDMDL
MODEL 7
REMARK VINA RESULT:      -7.5      1.160      1.492
REMARK  Name = 
REMARK  7 active torsions:
REMARK  status: ('A' for Active; 'I' for Inactive)
REMARK    1  A    between atoms: C_1  and  C_2
REMARK    2  A    between atoms: C_5  and  C_6
REMARK    3  A    between atoms: C_11  and  C_12
REMARK    4  A    between atoms: C_15  and  C_16
REMARK    5  A    between atoms: C_23  and  C_24
REMARK    6  A    between atoms: C_26  and  C_27
REMARK    7  A    between atoms: C_30  and  C_31
REMARK                            x       y       z     vdW  Elec       q    Type
REMARK                         _______ _______ _______ _____ _____    ______ ____
ROOT
ATOM      1  C   UNL     1       3.599   4.279  19.680  0.00  0.00    +0.000 C 
ATOM      2  C   UNL     1       3.191   5.646  19.191  0.00  0.00    +0.000 A 
ATOM      3  C   UNL     1       2.188   6.309  19.912  0.00  0.00    +0.000 A 
ATOM      4  C   UNL     1       1.792   7.606  19.572  0.00  0.00    +0.000 A 
ATOM      5  C   UNL     1       2.365   8.295  18.490  0.00  0.00    +0.000 A 
ATOM      6  C   UNL     1       3.345   7.618  17.758  0.00  0.00    +0.000 A 
ATOM      7  C   UNL     1       3.782   6.305  18.089  0.00  0.00    +0.000 A 
ENDROOT
BRANCH   5   8
ATOM      8  C   UNL     1       1.961   9.739  18.327  0.00  0.00    +0.000 C 
ATOM      9  O   UNL     1       2.727  10.436  17.650  0.00  0.00    +0.000 OA
ATOM     10  N   UNL     1       0.766  10.312  18.799  0.00  0.00    +0.000 N 
ATOM     11  C   UNL     1       0.410  11.594  18.185  0.00  0.00    +0.000 C 
ATOM     12  C   UNL     1      -1.059  11.944  18.396  0.00  0.00    +0.000 C 
ATOM     13  C   UNL     1      -1.286  12.199  19.890  0.00  0.00    +0.000 C 
ATOM     14  C   UNL     1      -0.590  11.118  20.755  0.00  0.00    +0.000 C 
ATOM     15  C   UNL     1      -0.033   9.916  19.963  0.00  0.00    +0.000 C 
BRANCH  13  16
ATOM     16  C   UNL     1      -2.749  12.460  20.230  0.00  0.00    +0.000 A 
ATOM     17  C   UNL     1      -3.800  11.984  19.436  0.00  0.00    +0.000 A 
ATOM     18  C   UNL     1      -5.133  12.273  19.764  0.00  0.00    +0.000 A 
ATOM     19  C   UNL     1      -5.439  13.039  20.894  0.00  0.00    +0.000 A 
ATOM     20  C   UNL     1      -4.401  13.516  21.697  0.00  0.00    +0.000 A 
ATOM     21  C   UNL     1      -3.070  13.228  21.366  0.00  0.00    +0.000 A 
BRANCH  19  22
ATOM     22  C   UNL     1      -6.807  13.332  21.220  0.00  0.00    +0.000 C 
ATOM     23  N   UNL     1      -7.915  13.566  21.484  0.00  0.00    +0.000 NA
ENDBRANCH  19  22
ENDBRANCH  13  16
ENDBRANCH   5   8
BRANCH   7  24
ATOM     24  C   UNL     1       4.888   5.721  17.309  0.00  0.00    +0.000 A 
ATOM     25  N   UNL     1       4.804   5.343  15.984  0.00  0.00    +0.000 N 
ATOM     26  C   UNL     1       5.991   4.777  15.597  0.00  0.00    +0.000 A 
ATOM     27  N   UNL     1       6.864   4.828  16.583  0.00  0.00    +0.000 NA
ATOM     28  C   UNL     1       6.204   5.410  17.644  0.00  0.00    +0.000 A 
ATOM     29  C   UNL     1       6.918   5.579  18.934  0.00  0.00    +0.000 C 
ATOM     30  H   UNL     1       3.999   5.438  15.383  0.00  0.00    +0.000 HD
BRANCH  26  31
ATOM     31  C   UNL     1       6.219   4.207  14.314  0.00  0.00    +0.000 C 
ATOM     32  N   UNL     1       6.344   3.770  13.245  0.00  0.00    +0.000 NA
ENDBRANCH  26  31
ENDBRANCH   7  24
TORSDOF 5
ENDMDL
MODEL 8
REMARK VINA RESULT:      -7.5      3.650      4.911
REMARK  Name = 
REMARK  7 active torsions:
REMARK  status: ('A' for Active; 'I' for Inactive)
REMARK    1  A    between atoms: C_1  and  C_2
REMARK    2  A    between atoms: C_5  and  C_6
REMARK    3  A    between atoms: C_11  and  C_12
REMARK    4  A    between atoms: C_15  and  C_16
REMARK    5  A    between atoms: C_23  and  C_24
REMARK    6  A    between atoms: C_26  and  C_27
REMARK    7  A    between atoms: C_30  and  C_31
REMARK                            x       y       z     vdW  Elec       q    Type
REMARK                         _______ _______ _______ _____ _____    ______ ____
ROOT
ATOM      1  C   UNL     1       4.830   2.377  19.606  0.00  0.00    +0.000 C 
ATOM      2  C   UNL     1       3.931   3.584  19.706  0.00  0.00    +0.000 A 
ATOM      3  C   UNL     1       2.850   3.503  20.594  0.00  0.00    +0.000 A 
ATOM      4  C   UNL     1       2.003   4.596  20.802  0.00  0.00    +0.000 A 
ATOM      5  C   UNL     1       2.186   5.813  20.125  0.00  0.00    +0.000 A 
ATOM      6  C   UNL     1       3.250   5.879  19.221  0.00  0.00    +0.000 A 
ATOM      7  C   UNL     1       4.139   4.791  18.999  0.00  0.00    +0.000 A 
ENDROOT
BRANCH   5   8
ATOM      8  C   UNL     1       1.302   6.957  20.554  0.00  0.00    +0.000 C 
ATOM      9  O   UNL     1       0.447   6.682  21.407  0.00  0.00    +0.000 OA
ATOM     10  N   UNL     1       1.433   8.293  20.137  0.00  0.00    +0.000 N 
ATOM     11  C   UNL     1       0.742   9.276  20.977  0.00  0.00    +0.000 C 
ATOM     12  C   UNL     1       1.260  10.691  20.751  0.00  0.00    +0.000 C 
ATOM     13  C   UNL     1       0.884  11.124  19.329  0.00  0.00    +0.000 C 
ATOM     14  C   UNL     1       1.169   9.996  18.306  0.00  0.00    +0.000 C 
ATOM     15  C   UNL     1       1.968   8.800  18.869  0.00  0.00    +0.000 C 
BRANCH  13  16
ATOM     16  C   UNL     1       1.443  12.492  18.960  0.00  0.00    +0.000 A 
ATOM     17  C   UNL     1       0.827  13.687  19.356  0.00  0.00    +0.000 A 
ATOM     18  C   UNL     1       1.354  14.928  18.968  0.00  0.00    +0.000 A 
ATOM     19  C   UNL     1       2.508  14.997  18.181  0.00  0.00    +0.000 A 
ATOM     20  C   UNL     1       3.134  13.814  17.782  0.00  0.00    +0.000 A 
ATOM     21  C   UNL     1       2.605  12.577  18.168  0.00  0.00    +0.000 A 
BRANCH  19  22
ATOM     22  C   UNL     1       3.038  16.272  17.786  0.00  0.00    +0.000 C 
ATOM     23  N   UNL     1       3.466  17.307  17.468  0.00  0.00    +0.000 NA
ENDBRANCH  19  22
ENDBRANCH  13  16
ENDBRANCH   5   8
BRANCH   7  24
ATOM     24  C   UNL     1       5.284   4.998  18.094  0.00  0.00    +0.000 A 
ATOM     25  N   UNL     1       5.249   4.821  16.725  0.00  0.00    +0.000 N 
ATOM     26  C   UNL     1       6.501   5.033  16.208  0.00  0.00    +0.000 A 
ATOM     27  N   UNL     1       7.331   5.404  17.160  0.00  0.00    +0.000 NA
ATOM     28  C   UNL     1       6.599   5.394  18.328  0.00  0.00    +0.000 A 
ATOM     29  C   UNL     1       7.271   5.737  19.606  0.00  0.00    +0.000 C 
ATOM     30  H   UNL     1       4.446   4.554  16.175  0.00  0.00    +0.000 HD
BRANCH  26  31
ATOM     31  C   UNL     1       6.834   4.854  14.837  0.00  0.00    +0.000 C 
ATOM     32  N   UNL     1       7.131   4.776  13.717  0.00  0.00    +0.000 NA
ENDBRANCH  26  31
ENDBRANCH   7  24
TORSDOF 5
ENDMDL
MODEL 9
REMARK VINA RESULT:      -7.4      2.177      2.765
REMARK  Name = 
REMARK  7 active torsions:
REMARK  status: ('A' for Active; 'I' for Inactive)
REMARK    1  A    between atoms: C_1  and  C_2
REMARK    2  A    between atoms: C_5  and  C_6
REMARK    3  A    between atoms: C_11  and  C_12
REMARK    4  A    between atoms: C_15  and  C_16
REMARK    5  A    between atoms: C_23  and  C_24
REMARK    6  A    between atoms: C_26  and  C_27
REMARK    7  A    between atoms: C_30  and  C_31
REMARK                            x       y       z     vdW  Elec       q    Type
REMARK                         _______ _______ _______ _____ _____    ______ ____
ROOT
ATOM      1  C   UNL     1       2.247   4.997  20.978  0.00  0.00    +0.000 C 
ATOM      2  C   UNL     1       2.069   6.300  20.240  0.00  0.00    +0.000 A 
ATOM      3  C   UNL     1       1.316   7.296  20.877  0.00  0.00    +0.000 A 
ATOM      4  C   UNL     1       1.154   8.558  20.298  0.00  0.00    +0.000 A 
ATOM      5  C   UNL     1       1.721   8.881  19.053  0.00  0.00    +0.000 A 
ATOM      6  C   UNL     1       2.448   7.874  18.411  0.00  0.00    +0.000 A 
ATOM      7  C   UNL     1       2.645   6.585  18.981  0.00  0.00    +0.000 A 
ENDROOT
BRANCH   5   8
ATOM      8  C   UNL     1       1.602  10.319  18.617  0.00  0.00    +0.000 C 
ATOM      9  O   UNL     1       2.187  10.609  17.565  0.00  0.00    +0.000 OA
ATOM     10  N   UNL     1       0.824  11.305  19.250  0.00  0.00    +0.000 N 
ATOM     11  C   UNL     1       0.545  12.491  18.437  0.00  0.00    +0.000 C 
ATOM     12  C   UNL     1      -0.626  13.300  18.983  0.00  0.00    +0.000 C 
ATOM     13  C   UNL     1      -0.214  13.895  20.335  0.00  0.00    +0.000 C 
ATOM     14  C   UNL     1       0.509  12.844  21.213  0.00  0.00    +0.000 C 
ATOM     15  C   UNL     1       0.457  11.400  20.667  0.00  0.00    +0.000 C 
BRANCH  13  16
ATOM     16  C   UNL     1      -1.350  14.644  21.022  0.00  0.00    +0.000 A 
ATOM     17  C   UNL     1      -1.984  14.156  22.171  0.00  0.00    +0.000 A 
ATOM     18  C   UNL     1      -3.048  14.858  22.757  0.00  0.00    +0.000 A 
ATOM     19  C   UNL     1      -3.494  16.064  22.205  0.00  0.00    +0.000 A 
ATOM     20  C   UNL     1      -2.868  16.565  21.062  0.00  0.00    +0.000 A 
ATOM     21  C   UNL     1      -1.808  15.860  20.478  0.00  0.00    +0.000 A 
BRANCH  19  22
ATOM     22  C   UNL     1      -4.586  16.775  22.810  0.00  0.00    +0.000 C 
ATOM     23  N   UNL     1      -5.470  17.349  23.302  0.00  0.00    +0.000 NA
ENDBRANCH  19  22
ENDBRANCH  13  16
ENDBRANCH   5   8
BRANCH   7  24
ATOM     24  C   UNL     1       3.507   5.629  18.263  0.00  0.00    +0.000 A 
ATOM     25  N   UNL     1       4.867   5.776  18.081  0.00  0.00    +0.000 N 
ATOM     26  C   UNL     1       5.337   4.742  17.313  0.00  0.00    +0.000 A 
ATOM     27  N   UNL     1       4.364   3.896  17.043  0.00  0.00    +0.000 NA
ATOM     28  C   UNL     1       3.231   4.422  17.623  0.00  0.00    +0.000 A 
ATOM     29  C   UNL     1       1.939   3.709  17.465  0.00  0.00    +0.000 C 
ATOM     30  H   UNL     1       5.441   6.529  18.429  0.00  0.00    +0.000 HD
BRANCH  26  31
ATOM     31  C   UNL     1       6.683   4.630  16.870  0.00  0.00    +0.000 C 
ATOM     32  N   UNL     1       7.758   4.518  16.443  0.00  0.00    +0.000 NA
ENDBRANCH  26  31
ENDBRANCH   7  24
TORSDOF 5
ENDMDL
