MODEL 1
REMARK VINA RESULT:      -7.2      0.000      0.000
REMARK  Name = 
REMARK  4 active torsions:
REMARK  status: ('A' for Active; 'I' for Inactive)
REMARK    1  A    between atoms: C_1  and  C_2
REMARK    2  A    between atoms: C_5  and  C_6
REMARK    3  A    between atoms: C_7  and  C_8
REMARK    4  A    between atoms: C_10  and  N_11
REMARK                            x       y       z     vdW  Elec       q    Type
REMARK                         _______ _______ _______ _____ _____    ______ ____
ROOT
ATOM      1  C   UNL     1       3.485   5.840  18.987  0.00  0.00    +0.000 A 
ATOM      2  C   UNL     1       4.765   5.592  18.443  0.00  0.00    +0.000 A 
ATOM      3  C   UNL     1       5.402   4.363  18.690  0.00  0.00    +0.000 A 
ATOM      4  N   UNL     1       4.854   3.388  19.443  0.00  0.00    +0.000 NA
ATOM      5  C   UNL     1       3.655   3.657  19.975  0.00  0.00    +0.000 A 
ATOM      6  C   UNL     1       2.942   4.836  19.787  0.00  0.00    +0.000 A 
ATOM      7  C   UNL     1       1.597   4.732  20.442  0.00  0.00    +0.000 C 
ATOM      8  C   UNL     1       1.787   3.531  21.383  0.00  0.00    +0.000 C 
ATOM      9  C   UNL     1       2.863   2.645  20.754  0.00  0.00    +0.000 C 
ENDROOT
BRANCH   1  14
ATOM     10  C   UNL     1       0.879   9.703  20.227  0.00  0.00    +0.000 C 
ATOM     11  C   UNL     1       1.561   8.835  19.247  0.00  0.00    +0.000 A 
ATOM     12  C   UNL     1       1.716   8.899  17.881  0.00  0.00    +0.000 A 
ATOM     13  C   UNL     1       2.461   7.755  17.515  0.00  0.00    +0.000 A 
ATOM     14  C   UNL     1       2.740   7.064  18.679  0.00  0.00    +0.000 A 
ATOM     15  O   UNL     1       2.184   7.726  19.739  0.00  0.00    +0.000 OA
ENDBRANCH   1  14
BRANCH   3  16
ATOM     16  N   UNL     1       6.612   4.011  18.090  0.00  0.00    +0.000 N 
ATOM     17  H   UNL     1       6.594   4.028  17.076  0.00  0.00    +0.000 HD
ATOM     18  H   UNL     1       7.337   4.610  18.478  0.00  0.00    +0.000 HD
ENDBRANCH   3  16
BRANCH   2  19
ATOM     19  C   UNL     1       5.456   6.571  17.656  0.00  0.00    +0.000 C 
ATOM     20  N   UNL     1       6.030   7.352  17.017  0.00  0.00    +0.000 NA
ENDBRANCH   2  19
TORSDOF 3
ENDMDL
MODEL 2
REMARK VINA RESULT:      -7.0      1.312      1.312
REMARK  Name = 
REMARK  4 active torsions:
REMARK  status: ('A' for Active; 'I' for Inactive)
REMARK    1  A    between atoms: C_1  and  C_2
REMARK    2  A    between atoms: C_5  and  C_6
REMARK    3  A    between atoms: C_7  and  C_8
REMARK    4  A    between atoms: C_10  and  N_11
REMARK                            x       y       z     vdW  Elec       q    Type
REMARK                         _______ _______ _______ _____ _____    ______ ____
ROOT
ATOM      1  C   UNL     1       3.013   5.380  18.342  0.00  0.00    +0.000 A 
ATOM      2  C   UNL     1       4.146   5.138  17.532  0.00  0.00    +0.000 A 
ATOM      3  C   UNL     1       4.544   3.815  17.269  0.00  0.00    +0.000 A 
ATOM      4  N   UNL     1       3.901   2.739  17.764  0.00  0.00    +0.000 NA
ATOM      5  C   UNL     1       2.851   2.993  18.555  0.00  0.00    +0.000 A 
ATOM      6  C   UNL     1       2.374   4.261  18.871  0.00  0.00    +0.000 A 
ATOM      7  C   UNL     1       1.121   4.149  19.687  0.00  0.00    +0.000 C 
ATOM      8  C   UNL     1       1.171   2.687  20.159  0.00  0.00    +0.000 C 
ATOM      9  C   UNL     1       1.966   1.912  19.108  0.00  0.00    +0.000 C 
ENDROOT
BRANCH   1  14
ATOM     10  C   UNL     1       1.312   8.915  21.145  0.00  0.00    +0.000 C 
ATOM     11  C   UNL     1       1.737   8.354  19.848  0.00  0.00    +0.000 A 
ATOM     12  C   UNL     1       1.800   8.871  18.575  0.00  0.00    +0.000 A 
ATOM     13  C   UNL     1       2.277   7.828  17.749  0.00  0.00    +0.000 A 
ATOM     14  C   UNL     1       2.501   6.735  18.565  0.00  0.00    +0.000 A 
ATOM     15  O   UNL     1       2.166   7.059  19.851  0.00  0.00    +0.000 OA
ENDBRANCH   1  14
BRANCH   3  16
ATOM     16  N   UNL     1       5.581   3.506  16.387  0.00  0.00    +0.000 N 
ATOM     17  H   UNL     1       5.735   2.512  16.257  0.00  0.00    +0.000 HD
ATOM     18  H   UNL     1       5.399   3.991  15.512  0.00  0.00    +0.000 HD
ENDBRANCH   3  16
BRANCH   2  19
ATOM     19  C   UNL     1       4.925   6.207  16.980  0.00  0.00    +0.000 C 
ATOM     20  N   UNL     1       5.564   7.061  16.521  0.00  0.00    +0.000 NA
ENDBRANCH   2  19
TORSDOF 3
ENDMDL
MODEL 3
REMARK VINA RESULT:      -7.0      2.411      5.244
REMARK  Name = 
REMARK  4 active torsions:
REMARK  status: ('A' for Active; 'I' for Inactive)
REMARK    1  A    between atoms: C_1  and  C_2
REMARK    2  A    between atoms: C_5  and  C_6
REMARK    3  A    between atoms: C_7  and  C_8
REMARK    4  A    between atoms: C_10  and  N_11
REMARK                            x       y       z     vdW  Elec       q    Type
REMARK                         _______ _______ _______ _____ _____    ______ ____
ROOT
ATOM      1  C   UNL     1       4.189   5.205  18.577  0.00  0.00    +0.000 A 
ATOM      2  C   UNL     1       3.741   4.323  19.587  0.00  0.00    +0.000 A 
ATOM      3  C   UNL     1       2.616   4.662  20.360  0.00  0.00    +0.000 A 
ATOM      4  N   UNL     1       1.930   5.811  20.198  0.00  0.00    +0.000 NA
ATOM      5  C   UNL     1       2.391   6.646  19.258  0.00  0.00    +0.000 A 
ATOM      6  C   UNL     1       3.488   6.402  18.438  0.00  0.00    +0.000 A 
ATOM      7  C   UNL     1       3.636   7.507  17.436  0.00  0.00    +0.000 C 
ATOM      8  C   UNL     1       2.761   8.615  18.044  0.00  0.00    +0.000 C 
ATOM      9  C   UNL     1       1.688   7.919  18.882  0.00  0.00    +0.000 C 
ENDROOT
BRANCH   1  14
ATOM     10  C   UNL     1       5.993   3.846  14.317  0.00  0.00    +0.000 C 
ATOM     11  C   UNL     1       6.119   4.246  15.733  0.00  0.00    +0.000 A 
ATOM     12  C   UNL     1       7.198   4.418  16.568  0.00  0.00    +0.000 A 
ATOM     13  C   UNL     1       6.668   4.795  17.824  0.00  0.00    +0.000 A 
ATOM     14  C   UNL     1       5.294   4.854  17.682  0.00  0.00    +0.000 A 
ATOM     15  O   UNL     1       4.960   4.513  16.400  0.00  0.00    +0.000 OA
ENDBRANCH   1  14
BRANCH   3  16
ATOM     16  N   UNL     1       2.056   3.787  21.292  0.00  0.00    +0.000 N 
ATOM     17  H   UNL     1       1.226   3.305  20.964  0.00  0.00    +0.000 HD
ATOM     18  H   UNL     1       2.785   3.147  21.595  0.00  0.00    +0.000 HD
ENDBRANCH   3  16
BRANCH   2  19
ATOM     19  C   UNL     1       4.415   3.090  19.869  0.00  0.00    +0.000 C 
ATOM     20  N   UNL     1       4.954   2.092  20.114  0.00  0.00    +0.000 NA
ENDBRANCH   2  19
TORSDOF 3
ENDMDL
MODEL 4
REMARK VINA RESULT:      -6.9      2.047      3.968
REMARK  Name = 
REMARK  4 active torsions:
REMARK  status: ('A' for Active; 'I' for Inactive)
REMARK    1  A    between atoms: C_1  and  C_2
REMARK    2  A    between atoms: C_5  and  C_6
REMARK    3  A    between atoms: C_7  and  C_8
REMARK    4  A    between atoms: C_10  and  N_11
REMARK                            x       y       z     vdW  Elec       q    Type
REMARK                         _______ _______ _______ _____ _____    ______ ____
ROOT
ATOM      1  C   UNL     1       3.070   5.207  18.160  0.00  0.00    +0.000 A 
ATOM      2  C   UNL     1       2.584   3.935  18.538  0.00  0.00    +0.000 A 
ATOM      3  C   UNL     1       3.160   2.776  17.986  0.00  0.00    +0.000 A 
ATOM      4  N   UNL     1       4.164   2.809  17.088  0.00  0.00    +0.000 NA
ATOM      5  C   UNL     1       4.587   4.025  16.720  0.00  0.00    +0.000 A 
ATOM      6  C   UNL     1       4.089   5.228  17.210  0.00  0.00    +0.000 A 
ATOM      7  C   UNL     1       4.879   6.375  16.653  0.00  0.00    +0.000 C 
ATOM      8  C   UNL     1       5.606   5.722  15.466  0.00  0.00    +0.000 C 
ATOM      9  C   UNL     1       5.760   4.239  15.806  0.00  0.00    +0.000 C 
ENDROOT
BRANCH   1  14
ATOM     10  C   UNL     1       1.364   9.713  17.977  0.00  0.00    +0.000 C 
ATOM     11  C   UNL     1       1.779   8.491  18.694  0.00  0.00    +0.000 A 
ATOM     12  C   UNL     1       1.808   8.146  20.025  0.00  0.00    +0.000 A 
ATOM     13  C   UNL     1       2.329   6.833  20.081  0.00  0.00    +0.000 A 
ATOM     14  C   UNL     1       2.570   6.438  18.778  0.00  0.00    +0.000 A 
ATOM     15  O   UNL     1       2.235   7.458  17.931  0.00  0.00    +0.000 OA
ENDBRANCH   1  14
BRANCH   3  16
ATOM     16  N   UNL     1       2.805   1.492  18.402  0.00  0.00    +0.000 N 
ATOM     17  H   UNL     1       3.593   0.897  18.633  0.00  0.00    +0.000 HD
ATOM     18  H   UNL     1       2.148   1.585  19.172  0.00  0.00    +0.000 HD
ENDBRANCH   3  16
BRANCH   2  19
ATOM     19  C   UNL     1       1.497   3.783  19.460  0.00  0.00    +0.000 C 
ATOM     20  N   UNL     1       0.626   3.645  20.214  0.00  0.00    +0.000 NA
ENDBRANCH   2  19
TORSDOF 3
ENDMDL
MODEL 5
REMARK VINA RESULT:      -6.9      1.983      3.840
REMARK  Name = 
REMARK  4 active torsions:
REMARK  status: ('A' for Active; 'I' for Inactive)
REMARK    1  A    between atoms: C_1  and  C_2
REMARK    2  A    between atoms: C_5  and  C_6
REMARK    3  A    between atoms: C_7  and  C_8
REMARK    4  A    between atoms: C_10  and  N_11
REMARK                            x       y       z     vdW  Elec       q    Type
REMARK                         _______ _______ _______ _____ _____    ______ ____
ROOT
ATOM      1  C   UNL     1       3.102   5.319  18.012  0.00  0.00    +0.000 A 
ATOM      2  C   UNL     1       2.628   4.084  18.509  0.00  0.00    +0.000 A 
ATOM      3  C   UNL     1       3.250   2.887  18.110  0.00  0.00    +0.000 A 
ATOM      4  N   UNL     1       4.290   2.847  17.254  0.00  0.00    +0.000 NA
ATOM      5  C   UNL     1       4.702   4.026  16.771  0.00  0.00    +0.000 A 
ATOM      6  C   UNL     1       4.159   5.262  17.106  0.00  0.00    +0.000 A 
ATOM      7  C   UNL     1       4.948   6.360  16.458  0.00  0.00    +0.000 C 
ATOM      8  C   UNL     1       5.737   5.600  15.379  0.00  0.00    +0.000 C 
ATOM      9  C   UNL     1       5.908   4.168  15.886  0.00  0.00    +0.000 C 
ENDROOT
BRANCH   1  14
ATOM     10  C   UNL     1       1.495   8.317  21.429  0.00  0.00    +0.000 C 
ATOM     11  C   UNL     1       1.830   7.971  20.033  0.00  0.00    +0.000 A 
ATOM     12  C   UNL     1       1.761   8.667  18.849  0.00  0.00    +0.000 A 
ATOM     13  C   UNL     1       2.211   7.781  17.844  0.00  0.00    +0.000 A 
ATOM     14  C   UNL     1       2.552   6.597  18.471  0.00  0.00    +0.000 A 
ATOM     15  O   UNL     1       2.314   6.715  19.813  0.00  0.00    +0.000 OA
ENDBRANCH   1  14
BRANCH   3  16
ATOM     16  N   UNL     1       2.905   1.647  18.651  0.00  0.00    +0.000 N 
ATOM     17  H   UNL     1       2.695   0.935  17.960  0.00  0.00    +0.000 HD
ATOM     18  H   UNL     1       3.648   1.368  19.286  0.00  0.00    +0.000 HD
ENDBRANCH   3  16
BRANCH   2  19
ATOM     19  C   UNL     1       1.507   4.006  19.398  0.00  0.00    +0.000 C 
ATOM     20  N   UNL     1       0.607   3.928  20.127  0.00  0.00    +0.000 NA
ENDBRANCH   2  19
TORSDOF 3
ENDMDL
MODEL 6
REMARK VINA RESULT:      -6.8      1.338      3.528
REMARK  Name = 
REMARK  4 active torsions:
REMARK  status: ('A' for Active; 'I' for Inactive)
REMARK    1  A    between atoms: C_1  and  C_2
REMARK    2  A    between atoms: C_5  and  C_6
REMARK    3  A    between atoms: C_7  and  C_8
REMARK    4  A    between atoms: C_10  and  N_11
REMARK                            x       y       z     vdW  Elec       q    Type
REMARK                         _______ _______ _______ _____ _____    ______ ____
ROOT
ATOM      1  C   UNL     1       3.775   5.837  18.686  0.00  0.00    +0.000 A 
ATOM      2  C   UNL     1       3.364   4.661  19.355  0.00  0.00    +0.000 A 
ATOM      3  C   UNL     1       4.268   3.595  19.510  0.00  0.00    +0.000 A 
ATOM      4  N   UNL     1       5.531   3.625  19.037  0.00  0.00    +0.000 NA
ATOM      5  C   UNL     1       5.888   4.736  18.380  0.00  0.00    +0.000 A 
ATOM      6  C   UNL     1       5.073   5.844  18.178  0.00  0.00    +0.000 A 
ATOM      7  C   UNL     1       5.848   6.935  17.501  0.00  0.00    +0.000 C 
ATOM      8  C   UNL     1       7.069   6.175  16.958  0.00  0.00    +0.000 C 
ATOM      9  C   UNL     1       7.284   4.973  17.878  0.00  0.00    +0.000 C 
ENDROOT
BRANCH   1  14
ATOM     10  C   UNL     1       0.939   9.250  20.572  0.00  0.00    +0.000 C 
ATOM     11  C   UNL     1       1.619   8.577  19.448  0.00  0.00    +0.000 A 
ATOM     12  C   UNL     1       1.663   8.820  18.094  0.00  0.00    +0.000 A 
ATOM     13  C   UNL     1       2.476   7.806  17.538  0.00  0.00    +0.000 A 
ATOM     14  C   UNL     1       2.903   7.010  18.585  0.00  0.00    +0.000 A 
ATOM     15  O   UNL     1       2.373   7.483  19.754  0.00  0.00    +0.000 OA
ENDBRANCH   1  14
BRANCH   3  16
ATOM     16  N   UNL     1       3.964   2.456  20.257  0.00  0.00    +0.000 N 
ATOM     17  H   UNL     1       4.355   2.455  21.192  0.00  0.00    +0.000 HD
ATOM     18  H   UNL     1       2.953   2.345  20.255  0.00  0.00    +0.000 HD
ENDBRANCH   3  16
BRANCH   2  19
ATOM     19  C   UNL     1       2.035   4.507  19.867  0.00  0.00    +0.000 C 
ATOM     20  N   UNL     1       0.963   4.365  20.289  0.00  0.00    +0.000 NA
ENDBRANCH   2  19
TORSDOF 3
ENDMDL
MODEL 7
REMARK VINA RESULT:      -6.7      1.414      1.680
REMARK  Name = 
REMARK  4 active torsions:
REMARK  status: ('A' for Active; 'I' for Inactive)
REMARK    1  A    between atoms: C_1  and  C_2
REMARK    2  A    between atoms: C_5  and  C_6
REMARK    3  A    between atoms: C_7  and  C_8
REMARK    4  A    between atoms: C_10  and  N_11
REMARK                            x       y       z     vdW  Elec       q    Type
REMARK                         _______ _______ _______ _____ _____    ______ ____
ROOT
ATOM      1  C   UNL     1       2.953   5.295  18.710  0.00  0.00    +0.000 A 
ATOM      2  C   UNL     1       4.090   5.139  17.885  0.00  0.00    +0.000 A 
ATOM      3  C   UNL     1       4.460   3.855  17.444  0.00  0.00    +0.000 A 
ATOM      4  N   UNL     1       3.785   2.738  17.778  0.00  0.00    +0.000 NA
ATOM      5  C   UNL     1       2.731   2.906  18.587  0.00  0.00    +0.000 A 
ATOM      6  C   UNL     1       2.281   4.129  19.072  0.00  0.00    +0.000 A 
ATOM      7  C   UNL     1       1.015   3.936  19.853  0.00  0.00    +0.000 C 
ATOM      8  C   UNL     1       1.024   2.422  20.117  0.00  0.00    +0.000 C 
ATOM      9  C   UNL     1       1.814   1.781  18.975  0.00  0.00    +0.000 C 
ENDROOT
BRANCH   1  14
ATOM     10  C   UNL     1       1.547   9.814  17.793  0.00  0.00    +0.000 C 
ATOM     11  C   UNL     1       1.816   8.677  18.695  0.00  0.00    +0.000 A 
ATOM     12  C   UNL     1       1.694   8.507  20.055  0.00  0.00    +0.000 A 
ATOM     13  C   UNL     1       2.128   7.189  20.327  0.00  0.00    +0.000 A 
ATOM     14  C   UNL     1       2.471   6.617  19.115  0.00  0.00    +0.000 A 
ATOM     15  O   UNL     1       2.282   7.533  18.117  0.00  0.00    +0.000 OA
ENDBRANCH   1  14
BRANCH   3  16
ATOM     16  N   UNL     1       5.500   3.646  16.537  0.00  0.00    +0.000 N 
ATOM     17  H   UNL     1       5.484   2.738  16.087  0.00  0.00    +0.000 HD
ATOM     18  H   UNL     1       5.490   4.413  15.870  0.00  0.00    +0.000 HD
ENDBRANCH   3  16
BRANCH   2  19
ATOM     19  C   UNL     1       4.901   6.254  17.495  0.00  0.00    +0.000 C 
ATOM     20  N   UNL     1       5.568   7.146  17.168  0.00  0.00    +0.000 NA
ENDBRANCH   2  19
TORSDOF 3
ENDMDL
MODEL 8
REMARK VINA RESULT:      -6.6      2.455      5.012
REMARK  Name = 
REMARK  4 active torsions:
REMARK  status: ('A' for Active; 'I' for Inactive)
REMARK    1  A    between atoms: C_1  and  C_2
REMARK    2  A    between atoms: C_5  and  C_6
REMARK    3  A    between atoms: C_7  and  C_8
REMARK    4  A    between atoms: C_10  and  N_11
REMARK                            x       y       z     vdW  Elec       q    Type
REMARK                         _______ _______ _______ _____ _____    ______ ____
ROOT
ATOM      1  C   UNL     1       3.969   4.628  19.247  0.00  0.00    +0.000 A 
ATOM      2  C   UNL     1       3.669   3.547  20.106  0.00  0.00    +0.000 A 
ATOM      3  C   UNL     1       2.563   3.630  20.972  0.00  0.00    +0.000 A 
ATOM      4  N   UNL     1       1.759   4.711  21.038  0.00  0.00    +0.000 NA
ATOM      5  C   UNL     1       2.081   5.735  20.238  0.00  0.00    +0.000 A 
ATOM      6  C   UNL     1       3.148   5.749  19.345  0.00  0.00    +0.000 A 
ATOM      7  C   UNL     1       3.128   7.016  18.543  0.00  0.00    +0.000 C 
ATOM      8  C   UNL     1       2.186   7.908  19.368  0.00  0.00    +0.000 C 
ATOM      9  C   UNL     1       1.236   6.971  20.116  0.00  0.00    +0.000 C 
ENDROOT
BRANCH   1  14
ATOM     10  C   UNL     1       5.662   3.955  14.783  0.00  0.00    +0.000 C 
ATOM     11  C   UNL     1       5.821   4.257  16.219  0.00  0.00    +0.000 A 
ATOM     12  C   UNL     1       6.913   4.550  17.002  0.00  0.00    +0.000 A 
ATOM     13  C   UNL     1       6.420   4.725  18.316  0.00  0.00    +0.000 A 
ATOM     14  C   UNL     1       5.049   4.551  18.260  0.00  0.00    +0.000 A 
ATOM     15  O   UNL     1       4.686   4.260  16.974  0.00  0.00    +0.000 OA
ENDBRANCH   1  14
BRANCH   3  16
ATOM     16  N   UNL     1       2.146   2.557  21.761  0.00  0.00    +0.000 N 
ATOM     17  H   UNL     1       2.103   2.762  22.753  0.00  0.00    +0.000 HD
ATOM     18  H   UNL     1       1.259   2.226  21.391  0.00  0.00    +0.000 HD
ENDBRANCH   3  16
BRANCH   2  19
ATOM     19  C   UNL     1       4.476   2.363  20.144  0.00  0.00    +0.000 C 
ATOM     20  N   UNL     1       5.130   1.405  20.193  0.00  0.00    +0.000 NA
ENDBRANCH   2  19
TORSDOF 3
ENDMDL
MODEL 9
REMARK VINA RESULT:      -6.5      1.998      3.683
REMARK  Name = 
REMARK  4 active torsions:
REMARK  status: ('A' for Active; 'I' for Inactive)
REMARK    1  A    between atoms: C_1  and  C_2
REMARK    2  A    between atoms: C_5  and  C_6
REMARK    3  A    between atoms: C_7  and  C_8
REMARK    4  A    between atoms: C_10  and  N_11
REMARK                            x       y       z     vdW  Elec       q    Type
REMARK                         _______ _______ _______ _____ _____    ______ ____
ROOT
ATOM      1  C   UNL     1       3.907   5.904  17.876  0.00  0.00    +0.000 A 
ATOM      2  C   UNL     1       3.444   4.575  17.747  0.00  0.00    +0.000 A 
ATOM      3  C   UNL     1       4.361   3.538  17.496  0.00  0.00    +0.000 A 
ATOM      4  N   UNL     1       5.686   3.743  17.359  0.00  0.00    +0.000 NA
ATOM      5  C   UNL     1       6.099   5.014  17.454  0.00  0.00    +0.000 A 
ATOM      6  C   UNL     1       5.276   6.107  17.704  0.00  0.00    +0.000 A 
ATOM      7  C   UNL     1       6.103   7.348  17.852  0.00  0.00    +0.000 C 
ATOM      8  C   UNL     1       7.445   6.918  17.238  0.00  0.00    +0.000 C 
ATOM      9  C   UNL     1       7.549   5.404  17.424  0.00  0.00    +0.000 C 
ENDROOT
BRANCH   1  14
ATOM     10  C   UNL     1       1.190   8.383  20.993  0.00  0.00    +0.000 C 
ATOM     11  C   UNL     1       1.776   8.143  19.660  0.00  0.00    +0.000 A 
ATOM     12  C   UNL     1       1.691   8.811  18.461  0.00  0.00    +0.000 A 
ATOM     13  C   UNL     1       2.470   8.072  17.541  0.00  0.00    +0.000 A 
ATOM     14  C   UNL     1       3.007   7.003  18.233  0.00  0.00    +0.000 A 
ATOM     15  O   UNL     1       2.577   7.047  19.531  0.00  0.00    +0.000 OA
ENDBRANCH   1  14
BRANCH   3  16
ATOM     16  N   UNL     1       3.984   2.194  17.471  0.00  0.00    +0.000 N 
ATOM     17  H   UNL     1       3.186   1.996  16.877  0.00  0.00    +0.000 HD
ATOM     18  H   UNL     1       4.803   1.647  17.221  0.00  0.00    +0.000 HD
ENDBRANCH   3  16
BRANCH   2  19
ATOM     19  C   UNL     1       2.052   4.246  17.841  0.00  0.00    +0.000 C 
ATOM     20  N   UNL     1       0.927   3.980  17.935  0.00  0.00    +0.000 NA
ENDBRANCH   2  19
TORSDOF 3
ENDMDL
