MODEL 1
REMARK VINA RESULT:      -7.2      0.000      0.000
REMARK  Name = 
REMARK  4 active torsions:
REMARK  status: ('A' for Active; 'I' for Inactive)
REMARK    1  A    between atoms: C_1  and  C_2
REMARK    2  A    between atoms: C_11  and  C_12
REMARK    3  A    between atoms: C_13  and  O_14
REMARK    4  A    between atoms: C_15  and  O_16
REMARK                            x       y       z     vdW  Elec       q    Type
REMARK                         _______ _______ _______ _____ _____    ______ ____
ROOT
ATOM      1  C   UNL     1       7.111   5.122  15.540  0.00  0.00    +0.000 C 
ATOM      2  C   UNL     1       6.123   4.998  16.669  0.00  0.00    +0.000 A 
ATOM      3  C   UNL     1       4.932   4.283  16.461  0.00  0.00    +0.000 A 
ATOM      4  C   UNL     1       4.013   4.071  17.476  0.00  0.00    +0.000 A 
ATOM      5  N   UNL     1       2.915   3.316  17.215  0.00  0.00    +0.000 NA
ATOM      6  C   UNL     1       2.170   3.177  18.299  0.00  0.00    +0.000 A 
ATOM      7  C   UNL     1       2.418   3.697  19.511  0.00  0.00    +0.000 A 
ATOM      8  N   UNL     1       3.453   4.447  19.847  0.00  0.00    +0.000 NA
ATOM      9  C   UNL     1       4.281   4.635  18.786  0.00  0.00    +0.000 A 
ATOM     10  C   UNL     1       5.446   5.363  18.969  0.00  0.00    +0.000 A 
ATOM     11  C   UNL     1       6.384   5.544  17.937  0.00  0.00    +0.000 A 
ATOM     12  C   UNL     1       7.663   6.281  18.230  0.00  0.00    +0.000 C 
ATOM     13  C   UNL     1       1.252   3.020  20.058  0.00  0.00    +0.000 C 
ATOM     14  C   UNL     1       0.998   2.485  18.816  0.00  0.00    +0.000 C 
ENDROOT
BRANCH  13  15
ATOM     15  O   UNL     1       0.763   2.980  21.236  0.00  0.00    +0.000 OA
ATOM     16  H   UNL     1       0.265   3.796  21.414  0.00  0.00    +0.000 HD
ENDBRANCH  13  15
BRANCH  14  17
ATOM     17  O   UNL     1       0.158   1.700  18.262  0.00  0.00    +0.000 OA
ATOM     18  H   UNL     1      -0.247   2.140  17.497  0.00  0.00    +0.000 HD
ENDBRANCH  14  17
TORSDOF 2
ENDMDL
MODEL 2
REMARK VINA RESULT:      -7.1      0.256      2.350
REMARK  Name = 
REMARK  4 active torsions:
REMARK  status: ('A' for Active; 'I' for Inactive)
REMARK    1  A    between atoms: C_1  and  C_2
REMARK    2  A    between atoms: C_11  and  C_12
REMARK    3  A    between atoms: C_13  and  O_14
REMARK    4  A    between atoms: C_15  and  O_16
REMARK                            x       y       z     vdW  Elec       q    Type
REMARK                         _______ _______ _______ _____ _____    ______ ____
ROOT
ATOM      1  C   UNL     1       7.543   6.472  17.950  0.00  0.00    +0.000 C 
ATOM      2  C   UNL     1       6.403   5.506  17.772  0.00  0.00    +0.000 A 
ATOM      3  C   UNL     1       5.560   5.235  18.862  0.00  0.00    +0.000 A 
ATOM      4  C   UNL     1       4.450   4.411  18.749  0.00  0.00    +0.000 A 
ATOM      5  N   UNL     1       3.646   4.246  19.831  0.00  0.00    +0.000 NA
ATOM      6  C   UNL     1       2.617   3.471  19.539  0.00  0.00    +0.000 A 
ATOM      7  C   UNL     1       2.361   2.894  18.354  0.00  0.00    +0.000 A 
ATOM      8  N   UNL     1       3.093   2.993  17.258  0.00  0.00    +0.000 NA
ATOM      9  C   UNL     1       4.175   3.787  17.468  0.00  0.00    +0.000 A 
ATOM     10  C   UNL     1       5.033   4.041  16.409  0.00  0.00    +0.000 A 
ATOM     11  C   UNL     1       6.137   4.902  16.531  0.00  0.00    +0.000 A 
ATOM     12  C   UNL     1       6.980   5.191  15.319  0.00  0.00    +0.000 C 
ATOM     13  C   UNL     1       1.106   2.363  18.865  0.00  0.00    +0.000 C 
ATOM     14  C   UNL     1       1.366   2.955  20.079  0.00  0.00    +0.000 C 
ENDROOT
BRANCH  13  15
ATOM     15  O   UNL     1       0.190   1.664  18.317  0.00  0.00    +0.000 OA
ATOM     16  H   UNL     1      -0.181   1.040  18.964  0.00  0.00    +0.000 HD
ENDBRANCH  13  15
BRANCH  14  17
ATOM     17  O   UNL     1       0.815   3.083  21.223  0.00  0.00    +0.000 OA
ATOM     18  H   UNL     1       1.478   2.960  21.922  0.00  0.00    +0.000 HD
ENDBRANCH  14  17
TORSDOF 2
ENDMDL
MODEL 3
REMARK VINA RESULT:      -7.1      3.301      5.516
REMARK  Name = 
REMARK  4 active torsions:
REMARK  status: ('A' for Active; 'I' for Inactive)
REMARK    1  A    between atoms: C_1  and  C_2
REMARK    2  A    between atoms: C_11  and  C_12
REMARK    3  A    between atoms: C_13  and  O_14
REMARK    4  A    between atoms: C_15  and  O_16
REMARK                            x       y       z     vdW  Elec       q    Type
REMARK                         _______ _______ _______ _____ _____    ______ ____
ROOT
ATOM      1  C   UNL     1       0.753   2.238  18.531  0.00  0.00    +0.000 C 
ATOM      2  C   UNL     1       2.016   3.003  18.822  0.00  0.00    +0.000 A 
ATOM      3  C   UNL     1       2.929   3.238  17.781  0.00  0.00    +0.000 A 
ATOM      4  C   UNL     1       4.076   3.995  17.963  0.00  0.00    +0.000 A 
ATOM      5  N   UNL     1       4.879   4.231  16.894  0.00  0.00    +0.000 NA
ATOM      6  C   UNL     1       5.898   5.002  17.231  0.00  0.00    +0.000 A 
ATOM      7  C   UNL     1       6.154   5.500  18.451  0.00  0.00    +0.000 A 
ATOM      8  N   UNL     1       5.434   5.312  19.543  0.00  0.00    +0.000 NA
ATOM      9  C   UNL     1       4.352   4.532  19.282  0.00  0.00    +0.000 A 
ATOM     10  C   UNL     1       3.457   4.267  20.307  0.00  0.00    +0.000 A 
ATOM     11  C   UNL     1       2.283   3.523  20.100  0.00  0.00    +0.000 A 
ATOM     12  C   UNL     1       1.319   3.341  21.241  0.00  0.00    +0.000 C 
ATOM     13  C   UNL     1       7.296   6.236  17.929  0.00  0.00    +0.000 C 
ATOM     14  C   UNL     1       7.034   5.727  16.678  0.00  0.00    +0.000 C 
ENDROOT
BRANCH  13  15
ATOM     15  O   UNL     1       8.127   7.029  18.485  0.00  0.00    +0.000 OA
ATOM     16  H   UNL     1       8.897   7.159  17.907  0.00  0.00    +0.000 HD
ENDBRANCH  13  15
BRANCH  14  17
ATOM     17  O   UNL     1       7.496   5.810  15.491  0.00  0.00    +0.000 OA
ATOM     18  H   UNL     1       8.032   6.614  15.403  0.00  0.00    +0.000 HD
ENDBRANCH  14  17
TORSDOF 2
ENDMDL
MODEL 4
REMARK VINA RESULT:      -7.1      3.265      5.974
REMARK  Name = 
REMARK  4 active torsions:
REMARK  status: ('A' for Active; 'I' for Inactive)
REMARK    1  A    between atoms: C_1  and  C_2
REMARK    2  A    between atoms: C_11  and  C_12
REMARK    3  A    between atoms: C_13  and  O_14
REMARK    4  A    between atoms: C_15  and  O_16
REMARK                            x       y       z     vdW  Elec       q    Type
REMARK                         _______ _______ _______ _____ _____    ______ ____
ROOT
ATOM      1  C   UNL     1       1.421   2.897  21.359  0.00  0.00    +0.000 C 
ATOM      2  C   UNL     1       2.232   3.368  20.181  0.00  0.00    +0.000 A 
ATOM      3  C   UNL     1       3.371   4.158  20.406  0.00  0.00    +0.000 A 
ATOM      4  C   UNL     1       4.201   4.566  19.374  0.00  0.00    +0.000 A 
ATOM      5  N   UNL     1       5.319   5.275  19.676  0.00  0.00    +0.000 NA
ATOM      6  C   UNL     1       6.016   5.543  18.586  0.00  0.00    +0.000 A 
ATOM      7  C   UNL     1       5.701   5.192  17.330  0.00  0.00    +0.000 A 
ATOM      8  N   UNL     1       4.633   4.515  16.948  0.00  0.00    +0.000 NA
ATOM      9  C   UNL     1       3.859   4.188  18.016  0.00  0.00    +0.000 A 
ATOM     10  C   UNL     1       2.716   3.432  17.806  0.00  0.00    +0.000 A 
ATOM     11  C   UNL     1       1.900   3.000  18.866  0.00  0.00    +0.000 A 
ATOM     12  C   UNL     1       0.717   2.119  18.569  0.00  0.00    +0.000 C 
ATOM     13  C   UNL     1       6.950   5.757  16.841  0.00  0.00    +0.000 C 
ATOM     14  C   UNL     1       7.275   6.115  18.129  0.00  0.00    +0.000 C 
ENDROOT
BRANCH  13  15
ATOM     15  O   UNL     1       7.459   5.818  15.672  0.00  0.00    +0.000 OA
ATOM     16  H   UNL     1       7.243   5.011  15.176  0.00  0.00    +0.000 HD
ENDBRANCH  13  15
BRANCH  14  17
ATOM     17  O   UNL     1       8.235   6.675  18.757  0.00  0.00    +0.000 OA
ATOM     18  H   UNL     1       9.054   6.599  18.240  0.00  0.00    +0.000 HD
ENDBRANCH  14  17
TORSDOF 2
ENDMDL
MODEL 5
REMARK VINA RESULT:      -7.1      3.411      5.993
REMARK  Name = 
REMARK  4 active torsions:
REMARK  status: ('A' for Active; 'I' for Inactive)
REMARK    1  A    between atoms: C_1  and  C_2
REMARK    2  A    between atoms: C_11  and  C_12
REMARK    3  A    between atoms: C_13  and  O_14
REMARK    4  A    between atoms: C_15  and  O_16
REMARK                            x       y       z     vdW  Elec       q    Type
REMARK                         _______ _______ _______ _____ _____    ______ ____
ROOT
ATOM      1  C   UNL     1       1.123   4.333  20.707  0.00  0.00    +0.000 C 
ATOM      2  C   UNL     1       2.019   4.270  19.500  0.00  0.00    +0.000 A 
ATOM      3  C   UNL     1       3.061   5.204  19.371  0.00  0.00    +0.000 A 
ATOM      4  C   UNL     1       3.965   5.160  18.322  0.00  0.00    +0.000 A 
ATOM      5  N   UNL     1       4.983   6.059  18.299  0.00  0.00    +0.000 NA
ATOM      6  C   UNL     1       5.774   5.848  17.261  0.00  0.00    +0.000 A 
ATOM      7  C   UNL     1       5.629   4.897  16.326  0.00  0.00    +0.000 A 
ATOM      8  N   UNL     1       4.667   3.993  16.267  0.00  0.00    +0.000 NA
ATOM      9  C   UNL     1       3.807   4.132  17.310  0.00  0.00    +0.000 A 
ATOM     10  C   UNL     1       2.757   3.235  17.435  0.00  0.00    +0.000 A 
ATOM     11  C   UNL     1       1.866   3.274  18.521  0.00  0.00    +0.000 A 
ATOM     12  C   UNL     1       0.796   2.221  18.630  0.00  0.00    +0.000 C 
ATOM     13  C   UNL     1       6.876   5.304  15.695  0.00  0.00    +0.000 C 
ATOM     14  C   UNL     1       7.027   6.278  16.655  0.00  0.00    +0.000 C 
ENDROOT
BRANCH  13  15
ATOM     15  O   UNL     1       7.505   4.853  14.680  0.00  0.00    +0.000 OA
ATOM     16  H   UNL     1       8.290   4.359  14.972  0.00  0.00    +0.000 HD
ENDBRANCH  13  15
BRANCH  14  17
ATOM     17  O   UNL     1       7.864   7.185  16.980  0.00  0.00    +0.000 OA
ATOM     18  H   UNL     1       7.397   8.023  17.130  0.00  0.00    +0.000 HD
ENDBRANCH  14  17
TORSDOF 2
ENDMDL
MODEL 6
REMARK VINA RESULT:      -6.7      3.296      5.404
REMARK  Name = 
REMARK  4 active torsions:
REMARK  status: ('A' for Active; 'I' for Inactive)
REMARK    1  A    between atoms: C_1  and  C_2
REMARK    2  A    between atoms: C_11  and  C_12
REMARK    3  A    between atoms: C_13  and  O_14
REMARK    4  A    between atoms: C_15  and  O_16
REMARK                            x       y       z     vdW  Elec       q    Type
REMARK                         _______ _______ _______ _____ _____    ______ ____
ROOT
ATOM      1  C   UNL     1       0.575   3.141  19.673  0.00  0.00    +0.000 C 
ATOM      2  C   UNL     1       1.866   3.763  19.212  0.00  0.00    +0.000 A 
ATOM      3  C   UNL     1       2.530   3.216  18.102  0.00  0.00    +0.000 A 
ATOM      4  C   UNL     1       3.684   3.781  17.581  0.00  0.00    +0.000 A 
ATOM      5  N   UNL     1       4.235   3.232  16.468  0.00  0.00    +0.000 NA
ATOM      6  C   UNL     1       5.298   3.917  16.082  0.00  0.00    +0.000 A 
ATOM      7  C   UNL     1       5.807   5.006  16.679  0.00  0.00    +0.000 A 
ATOM      8  N   UNL     1       5.342   5.596  17.765  0.00  0.00    +0.000 NA
ATOM      9  C   UNL     1       4.235   4.958  18.228  0.00  0.00    +0.000 A 
ATOM     10  C   UNL     1       3.584   5.469  19.340  0.00  0.00    +0.000 A 
ATOM     11  C   UNL     1       2.398   4.903  19.838  0.00  0.00    +0.000 A 
ATOM     12  C   UNL     1       1.705   5.557  21.003  0.00  0.00    +0.000 C 
ATOM     13  C   UNL     1       6.804   5.136  15.626  0.00  0.00    +0.000 C 
ATOM     14  C   UNL     1       6.281   4.021  15.013  0.00  0.00    +0.000 C 
ENDROOT
BRANCH  13  15
ATOM     15  O   UNL     1       7.729   5.993  15.429  0.00  0.00    +0.000 OA
ATOM     16  H   UNL     1       8.575   5.648  15.762  0.00  0.00    +0.000 HD
ENDBRANCH  13  15
BRANCH  14  17
ATOM     17  O   UNL     1       6.476   3.323  13.962  0.00  0.00    +0.000 OA
ATOM     18  H   UNL     1       6.599   3.908  13.197  0.00  0.00    +0.000 HD
ENDBRANCH  14  17
TORSDOF 2
ENDMDL
MODEL 7
REMARK VINA RESULT:      -6.7      3.925      4.934
REMARK  Name = 
REMARK  4 active torsions:
REMARK  status: ('A' for Active; 'I' for Inactive)
REMARK    1  A    between atoms: C_1  and  C_2
REMARK    2  A    between atoms: C_11  and  C_12
REMARK    3  A    between atoms: C_13  and  O_14
REMARK    4  A    between atoms: C_15  and  O_16
REMARK                            x       y       z     vdW  Elec       q    Type
REMARK                         _______ _______ _______ _____ _____    ______ ____
ROOT
ATOM      1  C   UNL     1       1.271  10.340  18.350  0.00  0.00    +0.000 C 
ATOM      2  C   UNL     1       1.705   8.968  18.790  0.00  0.00    +0.000 A 
ATOM      3  C   UNL     1       2.498   8.192  17.927  0.00  0.00    +0.000 A 
ATOM      4  C   UNL     1       2.991   6.950  18.297  0.00  0.00    +0.000 A 
ATOM      5  N   UNL     1       3.802   6.286  17.434  0.00  0.00    +0.000 NA
ATOM      6  C   UNL     1       4.217   5.147  17.959  0.00  0.00    +0.000 A 
ATOM      7  C   UNL     1       3.901   4.663  19.170  0.00  0.00    +0.000 A 
ATOM      8  N   UNL     1       3.115   5.236  20.064  0.00  0.00    +0.000 NA
ATOM      9  C   UNL     1       2.648   6.428  19.606  0.00  0.00    +0.000 A 
ATOM     10  C   UNL     1       1.841   7.192  20.435  0.00  0.00    +0.000 A 
ATOM     11  C   UNL     1       1.373   8.463  20.058  0.00  0.00    +0.000 A 
ATOM     12  C   UNL     1       0.565   9.268  21.039  0.00  0.00    +0.000 C 
ATOM     13  C   UNL     1       4.790   3.529  18.967  0.00  0.00    +0.000 C 
ATOM     14  C   UNL     1       5.116   4.025  17.726  0.00  0.00    +0.000 C 
ENDROOT
BRANCH  13  15
ATOM     15  O   UNL     1       5.097   2.541  19.715  0.00  0.00    +0.000 OA
ATOM     16  H   UNL     1       5.635   1.904  19.215  0.00  0.00    +0.000 HD
ENDBRANCH  13  15
BRANCH  14  17
ATOM     17  O   UNL     1       5.875   3.731  16.743  0.00  0.00    +0.000 OA
ATOM     18  H   UNL     1       6.726   3.397  17.074  0.00  0.00    +0.000 HD
ENDBRANCH  14  17
TORSDOF 2
ENDMDL
MODEL 8
REMARK VINA RESULT:      -6.6      3.218      5.898
REMARK  Name = 
REMARK  4 active torsions:
REMARK  status: ('A' for Active; 'I' for Inactive)
REMARK    1  A    between atoms: C_1  and  C_2
REMARK    2  A    between atoms: C_11  and  C_12
REMARK    3  A    between atoms: C_13  and  O_14
REMARK    4  A    between atoms: C_15  and  O_16
REMARK                            x       y       z     vdW  Elec       q    Type
REMARK                         _______ _______ _______ _____ _____    ______ ____
ROOT
ATOM      1  C   UNL     1       1.565   2.632  21.487  0.00  0.00    +0.000 C 
ATOM      2  C   UNL     1       2.234   3.039  20.201  0.00  0.00    +0.000 A 
ATOM      3  C   UNL     1       3.591   3.402  20.220  0.00  0.00    +0.000 A 
ATOM      4  C   UNL     1       4.286   3.719  19.064  0.00  0.00    +0.000 A 
ATOM      5  N   UNL     1       5.611   3.998  19.154  0.00  0.00    +0.000 NA
ATOM      6  C   UNL     1       6.126   4.233  17.960  0.00  0.00    +0.000 A 
ATOM      7  C   UNL     1       5.469   4.219  16.790  0.00  0.00    +0.000 A 
ATOM      8  N   UNL     1       4.184   3.967  16.613  0.00  0.00    +0.000 NA
ATOM      9  C   UNL     1       3.574   3.704  17.799  0.00  0.00    +0.000 A 
ATOM     10  C   UNL     1       2.228   3.372  17.799  0.00  0.00    +0.000 A 
ATOM     11  C   UNL     1       1.544   3.024  18.977  0.00  0.00    +0.000 A 
ATOM     12  C   UNL     1       0.103   2.601  18.890  0.00  0.00    +0.000 C 
ATOM     13  C   UNL     1       6.711   4.462  16.071  0.00  0.00    +0.000 C 
ATOM     14  C   UNL     1       7.385   4.475  17.269  0.00  0.00    +0.000 C 
ENDROOT
BRANCH  13  15
ATOM     15  O   UNL     1       6.968   4.573  14.825  0.00  0.00    +0.000 OA
ATOM     16  H   UNL     1       7.929   4.554  14.684  0.00  0.00    +0.000 HD
ENDBRANCH  13  15
BRANCH  14  17
ATOM     17  O   UNL     1       8.581   4.604  17.698  0.00  0.00    +0.000 OA
ATOM     18  H   UNL     1       9.207   4.304  17.019  0.00  0.00    +0.000 HD
ENDBRANCH  14  17
TORSDOF 2
ENDMDL
MODEL 9
REMARK VINA RESULT:      -6.6      3.897      5.280
REMARK  Name = 
REMARK  4 active torsions:
REMARK  status: ('A' for Active; 'I' for Inactive)
REMARK    1  A    between atoms: C_1  and  C_2
REMARK    2  A    between atoms: C_11  and  C_12
REMARK    3  A    between atoms: C_13  and  O_14
REMARK    4  A    between atoms: C_15  and  O_16
REMARK                            x       y       z     vdW  Elec       q    Type
REMARK                         _______ _______ _______ _____ _____    ______ ____
ROOT
ATOM      1  C   UNL     1       0.350   9.128  20.890  0.00  0.00    +0.000 C 
ATOM      2  C   UNL     1       1.330   8.431  19.984  0.00  0.00    +0.000 A 
ATOM      3  C   UNL     1       1.924   7.232  20.411  0.00  0.00    +0.000 A 
ATOM      4  C   UNL     1       2.779   6.503  19.600  0.00  0.00    +0.000 A 
ATOM      5  N   UNL     1       3.265   5.321  20.059  0.00  0.00    +0.000 NA
ATOM      6  C   UNL     1       4.023   4.737  19.147  0.00  0.00    +0.000 A 
ATOM      7  C   UNL     1       4.312   5.212  17.925  0.00  0.00    +0.000 A 
ATOM      8  N   UNL     1       3.892   6.352  17.406  0.00  0.00    +0.000 NA
ATOM      9  C   UNL     1       3.091   7.017  18.279  0.00  0.00    +0.000 A 
ATOM     10  C   UNL     1       2.521   8.217  17.883  0.00  0.00    +0.000 A 
ATOM     11  C   UNL     1       1.632   8.930  18.705  0.00  0.00    +0.000 A 
ATOM     12  C   UNL     1       0.991  10.185  18.179  0.00  0.00    +0.000 C 
ATOM     13  C   UNL     1       5.048   3.996  17.610  0.00  0.00    +0.000 C 
ATOM     14  C   UNL     1       4.751   3.509  18.861  0.00  0.00    +0.000 C 
ENDROOT
BRANCH  13  15
ATOM     15  O   UNL     1       5.661   3.620  16.555  0.00  0.00    +0.000 OA
ATOM     16  H   UNL     1       6.211   2.844  16.753  0.00  0.00    +0.000 HD
ENDBRANCH  13  15
BRANCH  14  17
ATOM     17  O   UNL     1       4.949   2.454  19.553  0.00  0.00    +0.000 OA
ATOM     18  H   UNL     1       4.098   2.095  19.854  0.00  0.00    +0.000 HD
ENDBRANCH  14  17
TORSDOF 2
ENDMDL
