MODEL 1
REMARK VINA RESULT:      -8.1      0.000      0.000
REMARK  Name = 
REMARK  16 active torsions:
REMARK  status: ('A' for Active; 'I' for Inactive)
REMARK    1  A    between atoms: C_1  and  C_2
REMARK    2  A    between atoms: C_2  and  C_3
REMARK    3  A    between atoms: C_4  and  C_5
REMARK    4  A    between atoms: C_5  and  C_6
REMARK    5  A    between atoms: C_9  and  O_10
REMARK    6  A    between atoms: C_9  and  C_11
REMARK    7  A    between atoms: C_12  and  C_13
REMARK    8  A    between atoms: C_16  and  O_17
REMARK    9  A    between atoms: C_22  and  C_23
REMARK   10  A    between atoms: C_22  and  C_28
REMARK   11  A    between atoms: C_23  and  C_24
REMARK   12  A    between atoms: C_25  and  C_26
REMARK   13  A    between atoms: C_25  and  C_27
REMARK   14  A    between atoms: C_28  and  C_29
REMARK   15  A    between atoms: C_30  and  C_31
REMARK   16  A    between atoms: C_30  and  C_32
REMARK                            x       y       z     vdW  Elec       q    Type
REMARK                         _______ _______ _______ _____ _____    ______ ____
ROOT
ATOM      1  C   UNL     1      -0.841  10.614  18.925  0.00  0.00    +0.000 C 
ATOM      2  C   UNL     1      -0.089   9.602  19.380  0.00  0.00    +0.000 C 
ATOM      3  C   UNL     1       0.524   9.548  20.691  0.00  0.00    +0.000 C 
ATOM      4  C   UNL     1       1.292   8.516  21.116  0.00  0.00    +0.000 C 
ATOM      5  C   UNL     1       0.310  10.698  21.630  0.00  0.00    +0.000 C 
ATOM      6  O   UNL     1       0.830  10.666  22.753  0.00  0.00    +0.000 OA
ATOM      7  C   UNL     1      -0.567  11.862  21.193  0.00  0.00    +0.000 C 
ATOM      8  C   UNL     1      -1.061  11.819  19.756  0.00  0.00    +0.000 C 
ATOM      9  O   UNL     1      -1.686  12.764  19.272  0.00  0.00    +0.000 OA
ENDROOT
BRANCH   4  10
ATOM     10  O   UNL     1       1.882   8.434  22.363  0.00  0.00    +0.000 OA
ATOM     11  H   UNL     1       2.724   7.935  22.276  0.00  0.00    +0.000 HD
ENDBRANCH   4  10
BRANCH   4  12
ATOM     12  C   UNL     1       1.561   7.329  20.334  0.00  0.00    +0.000 C 
ATOM     13  C   UNL     1       1.479   6.082  20.828  0.00  0.00    +0.000 C 
BRANCH  13  14
ATOM     14  C   UNL     1       1.710   4.941  19.950  0.00  0.00    +0.000 A 
ATOM     15  C   UNL     1       2.273   5.124  18.681  0.00  0.00    +0.000 A 
ATOM     16  C   UNL     1       2.406   4.040  17.812  0.00  0.00    +0.000 A 
ATOM     17  C   UNL     1       1.973   2.780  18.218  0.00  0.00    +0.000 A 
ATOM     18  C   UNL     1       1.426   2.585  19.480  0.00  0.00    +0.000 A 
ATOM     19  C   UNL     1       1.292   3.667  20.348  0.00  0.00    +0.000 A 
BRANCH  17  20
ATOM     20  O   UNL     1       2.061   1.699  17.392  0.00  0.00    +0.000 OA
ATOM     21  H   UNL     1       2.998   1.528  17.204  0.00  0.00    +0.000 HD
ENDBRANCH  17  20
ENDBRANCH  13  14
ENDBRANCH   4  12
BRANCH   1  22
ATOM     22  C   UNL     1      -1.491  10.606  17.563  0.00  0.00    +0.000 C 
BRANCH  22  26
ATOM     23  C   UNL     1      -5.245  11.479  16.894  0.00  0.00    +0.000 C 
ATOM     24  C   UNL     1      -3.823  11.057  16.644  0.00  0.00    +0.000 C 
ATOM     25  C   UNL     1      -3.448  10.700  15.234  0.00  0.00    +0.000 C 
ATOM     26  C   UNL     1      -2.937  11.019  17.658  0.00  0.00    +0.000 C 
ENDBRANCH  22  26
ENDBRANCH   1  22
BRANCH   7  27
ATOM     27  C   UNL     1      -1.870  11.846  22.050  0.00  0.00    +0.000 C 
BRANCH  27  28
ATOM     28  C   UNL     1      -1.997  12.929  23.094  0.00  0.00    +0.000 C 
ATOM     29  C   UNL     1      -3.127  13.400  23.653  0.00  0.00    +0.000 C 
ATOM     30  C   UNL     1      -4.518  12.980  23.276  0.00  0.00    +0.000 C 
ATOM     31  C   UNL     1      -3.049  14.441  24.741  0.00  0.00    +0.000 C 
ENDBRANCH  27  28
ENDBRANCH   7  27
BRANCH   7  32
ATOM     32  C   UNL     1       0.210  13.189  21.376  0.00  0.00    +0.000 C 
BRANCH  32  33
ATOM     33  C   UNL     1       1.511  13.282  20.614  0.00  0.00    +0.000 C 
ATOM     34  C   UNL     1       1.786  14.110  19.586  0.00  0.00    +0.000 C 
ATOM     35  C   UNL     1       0.861  15.170  19.046  0.00  0.00    +0.000 C 
ATOM     36  C   UNL     1       3.093  14.004  18.845  0.00  0.00    +0.000 C 
ENDBRANCH  32  33
ENDBRANCH   7  32
TORSDOF 10
ENDMDL
MODEL 2
REMARK VINA RESULT:      -7.9      4.848     10.481
REMARK  Name = 
REMARK  16 active torsions:
REMARK  status: ('A' for Active; 'I' for Inactive)
REMARK    1  A    between atoms: C_1  and  C_2
REMARK    2  A    between atoms: C_2  and  C_3
REMARK    3  A    between atoms: C_4  and  C_5
REMARK    4  A    between atoms: C_5  and  C_6
REMARK    5  A    between atoms: C_9  and  O_10
REMARK    6  A    between atoms: C_9  and  C_11
REMARK    7  A    between atoms: C_12  and  C_13
REMARK    8  A    between atoms: C_16  and  O_17
REMARK    9  A    between atoms: C_22  and  C_23
REMARK   10  A    between atoms: C_22  and  C_28
REMARK   11  A    between atoms: C_23  and  C_24
REMARK   12  A    between atoms: C_25  and  C_26
REMARK   13  A    between atoms: C_25  and  C_27
REMARK   14  A    between atoms: C_28  and  C_29
REMARK   15  A    between atoms: C_30  and  C_31
REMARK   16  A    between atoms: C_30  and  C_32
REMARK                            x       y       z     vdW  Elec       q    Type
REMARK                         _______ _______ _______ _____ _____    ______ ____
ROOT
ATOM      1  C   UNL     1       3.856   6.627  17.831  0.00  0.00    +0.000 C 
ATOM      2  C   UNL     1       5.128   6.928  18.125  0.00  0.00    +0.000 C 
ATOM      3  C   UNL     1       6.225   5.983  18.127  0.00  0.00    +0.000 C 
ATOM      4  C   UNL     1       7.499   6.316  18.444  0.00  0.00    +0.000 C 
ATOM      5  C   UNL     1       5.941   4.554  17.768  0.00  0.00    +0.000 C 
ATOM      6  O   UNL     1       6.868   3.736  17.767  0.00  0.00    +0.000 OA
ATOM      7  C   UNL     1       4.524   4.152  17.384  0.00  0.00    +0.000 C 
ATOM      8  C   UNL     1       3.465   5.233  17.522  0.00  0.00    +0.000 C 
ATOM      9  O   UNL     1       2.273   4.980  17.340  0.00  0.00    +0.000 OA
ENDROOT
BRANCH   4  10
ATOM     10  O   UNL     1       8.567   5.438  18.445  0.00  0.00    +0.000 OA
ATOM     11  H   UNL     1       8.901   5.357  19.366  0.00  0.00    +0.000 HD
ENDBRANCH   4  10
BRANCH   4  12
ATOM     12  C   UNL     1       7.928   7.657  18.779  0.00  0.00    +0.000 C 
ATOM     13  C   UNL     1       8.250   8.583  17.862  0.00  0.00    +0.000 C 
BRANCH  13  14
ATOM     14  C   UNL     1       8.616   9.929  18.291  0.00  0.00    +0.000 A 
ATOM     15  C   UNL     1       8.313  11.035  17.490  0.00  0.00    +0.000 A 
ATOM     16  C   UNL     1       8.748  12.308  17.863  0.00  0.00    +0.000 A 
ATOM     17  C   UNL     1       9.484  12.464  19.034  0.00  0.00    +0.000 A 
ATOM     18  C   UNL     1       9.778  11.374  19.844  0.00  0.00    +0.000 A 
ATOM     19  C   UNL     1       9.345  10.102  19.471  0.00  0.00    +0.000 A 
BRANCH  17  20
ATOM     20  O   UNL     1       9.950  13.685  19.423  0.00  0.00    +0.000 OA
ATOM     21  H   UNL     1      10.817  13.566  19.843  0.00  0.00    +0.000 HD
ENDBRANCH  17  20
ENDBRANCH  13  14
ENDBRANCH   4  12
BRANCH   1  22
ATOM     22  C   UNL     1       2.753   7.658  17.806  0.00  0.00    +0.000 C 
BRANCH  22  26
ATOM     23  C   UNL     1       0.892   8.946  20.996  0.00  0.00    +0.000 C 
ATOM     24  C   UNL     1       1.412   8.891  19.586  0.00  0.00    +0.000 C 
ATOM     25  C   UNL     1       1.054  10.030  18.674  0.00  0.00    +0.000 C 
ATOM     26  C   UNL     1       2.175   7.856  19.184  0.00  0.00    +0.000 C 
ENDBRANCH  22  26
ENDBRANCH   1  22
BRANCH   7  27
ATOM     27  C   UNL     1       4.510   3.789  15.867  0.00  0.00    +0.000 C 
BRANCH  27  28
ATOM     28  C   UNL     1       5.713   4.219  15.064  0.00  0.00    +0.000 C 
ATOM     29  C   UNL     1       5.897   4.103  13.736  0.00  0.00    +0.000 C 
ATOM     30  C   UNL     1       4.947   3.432  12.788  0.00  0.00    +0.000 C 
ATOM     31  C   UNL     1       7.143   4.663  13.099  0.00  0.00    +0.000 C 
ENDBRANCH  27  28
ENDBRANCH   7  27
BRANCH   7  32
ATOM     32  C   UNL     1       4.077   2.951  18.254  0.00  0.00    +0.000 C 
BRANCH  32  33
ATOM     33  C   UNL     1       3.712   3.291  19.680  0.00  0.00    +0.000 C 
ATOM     34  C   UNL     1       2.511   3.121  20.266  0.00  0.00    +0.000 C 
ATOM     35  C   UNL     1       1.308   2.478  19.626  0.00  0.00    +0.000 C 
ATOM     36  C   UNL     1       2.264   3.621  21.666  0.00  0.00    +0.000 C 
ENDBRANCH  32  33
ENDBRANCH   7  32
TORSDOF 10
ENDMDL
MODEL 3
REMARK VINA RESULT:      -7.8      1.450      1.850
REMARK  Name = 
REMARK  16 active torsions:
REMARK  status: ('A' for Active; 'I' for Inactive)
REMARK    1  A    between atoms: C_1  and  C_2
REMARK    2  A    between atoms: C_2  and  C_3
REMARK    3  A    between atoms: C_4  and  C_5
REMARK    4  A    between atoms: C_5  and  C_6
REMARK    5  A    between atoms: C_9  and  O_10
REMARK    6  A    between atoms: C_9  and  C_11
REMARK    7  A    between atoms: C_12  and  C_13
REMARK    8  A    between atoms: C_16  and  O_17
REMARK    9  A    between atoms: C_22  and  C_23
REMARK   10  A    between atoms: C_22  and  C_28
REMARK   11  A    between atoms: C_23  and  C_24
REMARK   12  A    between atoms: C_25  and  C_26
REMARK   13  A    between atoms: C_25  and  C_27
REMARK   14  A    between atoms: C_28  and  C_29
REMARK   15  A    between atoms: C_30  and  C_31
REMARK   16  A    between atoms: C_30  and  C_32
REMARK                            x       y       z     vdW  Elec       q    Type
REMARK                         _______ _______ _______ _____ _____    ______ ____
ROOT
ATOM      1  C   UNL     1      -0.983  10.446  18.535  0.00  0.00    +0.000 C 
ATOM      2  C   UNL     1      -0.290   9.511  19.198  0.00  0.00    +0.000 C 
ATOM      3  C   UNL     1       0.586   9.768  20.323  0.00  0.00    +0.000 C 
ATOM      4  C   UNL     1       1.285   8.800  20.964  0.00  0.00    +0.000 C 
ATOM      5  C   UNL     1       0.738  11.181  20.804  0.00  0.00    +0.000 C 
ATOM      6  O   UNL     1       1.485  11.415  21.762  0.00  0.00    +0.000 OA
ATOM      7  C   UNL     1      -0.052  12.288  20.121  0.00  0.00    +0.000 C 
ATOM      8  C   UNL     1      -0.852  11.876  18.896  0.00  0.00    +0.000 C 
ATOM      9  O   UNL     1      -1.438  12.715  18.211  0.00  0.00    +0.000 OA
ENDROOT
BRANCH   4  10
ATOM     10  O   UNL     1       2.119   9.015  22.044  0.00  0.00    +0.000 OA
ATOM     11  H   UNL     1       3.050   8.953  21.734  0.00  0.00    +0.000 HD
ENDBRANCH   4  10
BRANCH   4  12
ATOM     12  C   UNL     1       1.214   7.394  20.633  0.00  0.00    +0.000 C 
ATOM     13  C   UNL     1       2.106   6.772  19.845  0.00  0.00    +0.000 C 
BRANCH  13  14
ATOM     14  C   UNL     1       1.989   5.336  19.613  0.00  0.00    +0.000 A 
ATOM     15  C   UNL     1       2.442   4.772  18.415  0.00  0.00    +0.000 A 
ATOM     16  C   UNL     1       2.242   3.414  18.162  0.00  0.00    +0.000 A 
ATOM     17  C   UNL     1       1.590   2.630  19.110  0.00  0.00    +0.000 A 
ATOM     18  C   UNL     1       1.149   3.177  20.309  0.00  0.00    +0.000 A 
ATOM     19  C   UNL     1       1.347   4.534  20.561  0.00  0.00    +0.000 A 
BRANCH  17  20
ATOM     20  O   UNL     1       1.352   1.306  18.893  0.00  0.00    +0.000 OA
ATOM     21  H   UNL     1       1.431   0.834  19.739  0.00  0.00    +0.000 HD
ENDBRANCH  17  20
ENDBRANCH  13  14
ENDBRANCH   4  12
BRANCH   1  22
ATOM     22  C   UNL     1      -1.913  10.123  17.391  0.00  0.00    +0.000 C 
BRANCH  22  26
ATOM     23  C   UNL     1      -5.744  10.117  18.181  0.00  0.00    +0.000 C 
ATOM     24  C   UNL     1      -4.417  10.535  17.610  0.00  0.00    +0.000 C 
ATOM     25  C   UNL     1      -4.397  11.754  16.732  0.00  0.00    +0.000 C 
ATOM     26  C   UNL     1      -3.303   9.834  17.898  0.00  0.00    +0.000 C 
ENDBRANCH  22  26
ENDBRANCH   1  22
BRANCH   7  27
ATOM     27  C   UNL     1      -1.123  12.818  21.123  0.00  0.00    +0.000 C 
BRANCH  27  28
ATOM     28  C   UNL     1      -2.565  12.576  20.751  0.00  0.00    +0.000 C 
ATOM     29  C   UNL     1      -3.562  13.479  20.705  0.00  0.00    +0.000 C 
ATOM     30  C   UNL     1      -3.441  14.921  21.104  0.00  0.00    +0.000 C 
ATOM     31  C   UNL     1      -4.932  13.062  20.235  0.00  0.00    +0.000 C 
ENDBRANCH  27  28
ENDBRANCH   7  27
BRANCH   7  32
ATOM     32  C   UNL     1       0.916  13.416  19.684  0.00  0.00    +0.000 C 
BRANCH  32  33
ATOM     33  C   UNL     1       0.769  14.717  20.438  0.00  0.00    +0.000 C 
ATOM     34  C   UNL     1       0.261  15.870  19.961  0.00  0.00    +0.000 C 
ATOM     35  C   UNL     1      -0.336  16.064  18.591  0.00  0.00    +0.000 C 
ATOM     36  C   UNL     1       0.289  17.123  20.797  0.00  0.00    +0.000 C 
ENDBRANCH  32  33
ENDBRANCH   7  32
TORSDOF 10
ENDMDL
MODEL 4
REMARK VINA RESULT:      -7.8      5.019     10.595
REMARK  Name = 
REMARK  16 active torsions:
REMARK  status: ('A' for Active; 'I' for Inactive)
REMARK    1  A    between atoms: C_1  and  C_2
REMARK    2  A    between atoms: C_2  and  C_3
REMARK    3  A    between atoms: C_4  and  C_5
REMARK    4  A    between atoms: C_5  and  C_6
REMARK    5  A    between atoms: C_9  and  O_10
REMARK    6  A    between atoms: C_9  and  C_11
REMARK    7  A    between atoms: C_12  and  C_13
REMARK    8  A    between atoms: C_16  and  O_17
REMARK    9  A    between atoms: C_22  and  C_23
REMARK   10  A    between atoms: C_22  and  C_28
REMARK   11  A    between atoms: C_23  and  C_24
REMARK   12  A    between atoms: C_25  and  C_26
REMARK   13  A    between atoms: C_25  and  C_27
REMARK   14  A    between atoms: C_28  and  C_29
REMARK   15  A    between atoms: C_30  and  C_31
REMARK   16  A    between atoms: C_30  and  C_32
REMARK                            x       y       z     vdW  Elec       q    Type
REMARK                         _______ _______ _______ _____ _____    ______ ____
ROOT
ATOM      1  C   UNL     1       3.971   6.717  17.407  0.00  0.00    +0.000 C 
ATOM      2  C   UNL     1       5.189   7.223  17.647  0.00  0.00    +0.000 C 
ATOM      3  C   UNL     1       6.387   6.438  17.859  0.00  0.00    +0.000 C 
ATOM      4  C   UNL     1       7.602   6.980  18.114  0.00  0.00    +0.000 C 
ATOM      5  C   UNL     1       6.282   4.942  17.803  0.00  0.00    +0.000 C 
ATOM      6  O   UNL     1       7.298   4.259  17.985  0.00  0.00    +0.000 OA
ATOM      7  C   UNL     1       4.937   4.302  17.495  0.00  0.00    +0.000 C 
ATOM      8  C   UNL     1       3.756   5.253  17.393  0.00  0.00    +0.000 C 
ATOM      9  O   UNL     1       2.608   4.826  17.254  0.00  0.00    +0.000 OA
ENDROOT
BRANCH   4  10
ATOM     10  O   UNL     1       8.763   6.256  18.311  0.00  0.00    +0.000 OA
ATOM     11  H   UNL     1       8.944   6.218  19.276  0.00  0.00    +0.000 HD
ENDBRANCH   4  10
BRANCH   4  12
ATOM     12  C   UNL     1       7.861   8.402  18.166  0.00  0.00    +0.000 C 
ATOM     13  C   UNL     1       8.848   8.950  18.895  0.00  0.00    +0.000 C 
BRANCH  13  14
ATOM     14  C   UNL     1       9.073  10.390  18.841  0.00  0.00    +0.000 A 
ATOM     15  C   UNL     1       9.734  11.044  19.886  0.00  0.00    +0.000 A 
ATOM     16  C   UNL     1       9.864  12.434  19.871  0.00  0.00    +0.000 A 
ATOM     17  C   UNL     1       9.328  13.159  18.810  0.00  0.00    +0.000 A 
ATOM     18  C   UNL     1       8.681  12.519  17.761  0.00  0.00    +0.000 A 
ATOM     19  C   UNL     1       8.551  11.131  17.776  0.00  0.00    +0.000 A 
BRANCH  17  20
ATOM     20  O   UNL     1       9.409  14.520  18.768  0.00  0.00    +0.000 OA
ATOM     21  H   UNL     1      10.108  14.807  19.378  0.00  0.00    +0.000 HD
ENDBRANCH  17  20
ENDBRANCH  13  14
ENDBRANCH   4  12
BRANCH   1  22
ATOM     22  C   UNL     1       2.759   7.580  17.155  0.00  0.00    +0.000 C 
BRANCH  22  26
ATOM     23  C   UNL     1       0.920   9.289  20.155  0.00  0.00    +0.000 C 
ATOM     24  C   UNL     1       1.623   9.120  18.836  0.00  0.00    +0.000 C 
ATOM     25  C   UNL     1       1.824  10.351  17.999  0.00  0.00    +0.000 C 
ATOM     26  C   UNL     1       2.055   7.904  18.447  0.00  0.00    +0.000 C 
ENDBRANCH  22  26
ENDBRANCH   1  22
BRANCH   7  27
ATOM     27  C   UNL     1       5.020   3.634  16.088  0.00  0.00    +0.000 C 
BRANCH  27  28
ATOM     28  C   UNL     1       6.130   4.112  15.185  0.00  0.00    +0.000 C 
ATOM     29  C   UNL     1       6.146   4.123  13.840  0.00  0.00    +0.000 C 
ATOM     30  C   UNL     1       5.062   3.572  12.959  0.00  0.00    +0.000 C 
ATOM     31  C   UNL     1       7.324   4.712  13.106  0.00  0.00    +0.000 C 
ENDBRANCH  27  28
ENDBRANCH   7  27
BRANCH   7  32
ATOM     32  C   UNL     1       4.599   3.261  18.592  0.00  0.00    +0.000 C 
BRANCH  32  33
ATOM     33  C   UNL     1       3.892   3.814  19.807  0.00  0.00    +0.000 C 
ATOM     34  C   UNL     1       2.696   3.423  20.290  0.00  0.00    +0.000 C 
ATOM     35  C   UNL     1       1.862   2.290  19.750  0.00  0.00    +0.000 C 
ATOM     36  C   UNL     1       2.061   4.153  21.445  0.00  0.00    +0.000 C 
ENDBRANCH  32  33
ENDBRANCH   7  32
TORSDOF 10
ENDMDL
MODEL 5
REMARK VINA RESULT:      -7.8      4.023     10.154
REMARK  Name = 
REMARK  16 active torsions:
REMARK  status: ('A' for Active; 'I' for Inactive)
REMARK    1  A    between atoms: C_1  and  C_2
REMARK    2  A    between atoms: C_2  and  C_3
REMARK    3  A    between atoms: C_4  and  C_5
REMARK    4  A    between atoms: C_5  and  C_6
REMARK    5  A    between atoms: C_9  and  O_10
REMARK    6  A    between atoms: C_9  and  C_11
REMARK    7  A    between atoms: C_12  and  C_13
REMARK    8  A    between atoms: C_16  and  O_17
REMARK    9  A    between atoms: C_22  and  C_23
REMARK   10  A    between atoms: C_22  and  C_28
REMARK   11  A    between atoms: C_23  and  C_24
REMARK   12  A    between atoms: C_25  and  C_26
REMARK   13  A    between atoms: C_25  and  C_27
REMARK   14  A    between atoms: C_28  and  C_29
REMARK   15  A    between atoms: C_30  and  C_31
REMARK   16  A    between atoms: C_30  and  C_32
REMARK                            x       y       z     vdW  Elec       q    Type
REMARK                         _______ _______ _______ _____ _____    ______ ____
ROOT
ATOM      1  C   UNL     1       4.631   4.587  18.556  0.00  0.00    +0.000 C 
ATOM      2  C   UNL     1       3.888   5.701  18.609  0.00  0.00    +0.000 C 
ATOM      3  C   UNL     1       3.869   6.734  17.595  0.00  0.00    +0.000 C 
ATOM      4  C   UNL     1       3.116   7.857  17.684  0.00  0.00    +0.000 C 
ATOM      5  C   UNL     1       4.735   6.564  16.382  0.00  0.00    +0.000 C 
ATOM      6  O   UNL     1       4.731   7.440  15.508  0.00  0.00    +0.000 OA
ATOM      7  C   UNL     1       5.575   5.303  16.239  0.00  0.00    +0.000 C 
ATOM      8  C   UNL     1       5.562   4.357  17.429  0.00  0.00    +0.000 C 
ATOM      9  O   UNL     1       6.291   3.364  17.457  0.00  0.00    +0.000 OA
ENDROOT
BRANCH   4  10
ATOM     10  O   UNL     1       3.072   8.855  16.729  0.00  0.00    +0.000 OA
ATOM     11  H   UNL     1       2.681   8.481  15.908  0.00  0.00    +0.000 HD
ENDBRANCH   4  10
BRANCH   4  12
ATOM     12  C   UNL     1       2.212   8.143  18.777  0.00  0.00    +0.000 C 
ATOM     13  C   UNL     1       1.871   9.387  19.151  0.00  0.00    +0.000 C 
BRANCH  13  14
ATOM     14  C   UNL     1       0.906   9.579  20.228  0.00  0.00    +0.000 A 
ATOM     15  C   UNL     1       0.138  10.747  20.291  0.00  0.00    +0.000 A 
ATOM     16  C   UNL     1      -0.716  10.965  21.374  0.00  0.00    +0.000 A 
ATOM     17  C   UNL     1      -0.793  10.012  22.386  0.00  0.00    +0.000 A 
ATOM     18  C   UNL     1      -0.046   8.842  22.326  0.00  0.00    +0.000 A 
ATOM     19  C   UNL     1       0.808   8.625  21.245  0.00  0.00    +0.000 A 
BRANCH  17  20
ATOM     20  O   UNL     1      -1.595  10.196  23.474  0.00  0.00    +0.000 OA
ATOM     21  H   UNL     1      -1.087   9.979  24.273  0.00  0.00    +0.000 HD
ENDBRANCH  17  20
ENDBRANCH  13  14
ENDBRANCH   4  12
BRANCH   1  22
ATOM     22  C   UNL     1       4.587   3.519  19.622  0.00  0.00    +0.000 C 
BRANCH  22  26
ATOM     23  C   UNL     1       0.890   2.442  20.310  0.00  0.00    +0.000 C 
ATOM     24  C   UNL     1       2.183   3.206  20.402  0.00  0.00    +0.000 C 
ATOM     25  C   UNL     1       2.237   4.356  21.366  0.00  0.00    +0.000 C 
ATOM     26  C   UNL     1       3.239   2.845  19.648  0.00  0.00    +0.000 C 
ENDBRANCH  22  26
ENDBRANCH   1  22
BRANCH   7  27
ATOM     27  C   UNL     1       4.996   4.456  15.064  0.00  0.00    +0.000 C 
BRANCH  27  28
ATOM     28  C   UNL     1       5.992   3.950  14.049  0.00  0.00    +0.000 C 
ATOM     29  C   UNL     1       5.751   3.587  12.776  0.00  0.00    +0.000 C 
ATOM     30  C   UNL     1       4.396   3.539  12.132  0.00  0.00    +0.000 C 
ATOM     31  C   UNL     1       6.895   3.175  11.884  0.00  0.00    +0.000 C 
ENDBRANCH  27  28
ENDBRANCH   7  27
BRANCH   7  32
ATOM     32  C   UNL     1       7.051   5.695  15.975  0.00  0.00    +0.000 C 
BRANCH  32  33
ATOM     33  C   UNL     1       7.464   7.043  16.517  0.00  0.00    +0.000 C 
ATOM     34  C   UNL     1       7.827   7.325  17.784  0.00  0.00    +0.000 C 
ATOM     35  C   UNL     1       7.969   6.320  18.897  0.00  0.00    +0.000 C 
ATOM     36  C   UNL     1       8.099   8.745  18.205  0.00  0.00    +0.000 C 
ENDBRANCH  32  33
ENDBRANCH   7  32
TORSDOF 10
ENDMDL
MODEL 6
REMARK VINA RESULT:      -7.7      4.933     10.242
REMARK  Name = 
REMARK  16 active torsions:
REMARK  status: ('A' for Active; 'I' for Inactive)
REMARK    1  A    between atoms: C_1  and  C_2
REMARK    2  A    between atoms: C_2  and  C_3
REMARK    3  A    between atoms: C_4  and  C_5
REMARK    4  A    between atoms: C_5  and  C_6
REMARK    5  A    between atoms: C_9  and  O_10
REMARK    6  A    between atoms: C_9  and  C_11
REMARK    7  A    between atoms: C_12  and  C_13
REMARK    8  A    between atoms: C_16  and  O_17
REMARK    9  A    between atoms: C_22  and  C_23
REMARK   10  A    between atoms: C_22  and  C_28
REMARK   11  A    between atoms: C_23  and  C_24
REMARK   12  A    between atoms: C_25  and  C_26
REMARK   13  A    between atoms: C_25  and  C_27
REMARK   14  A    between atoms: C_28  and  C_29
REMARK   15  A    between atoms: C_30  and  C_31
REMARK   16  A    between atoms: C_30  and  C_32
REMARK                            x       y       z     vdW  Elec       q    Type
REMARK                         _______ _______ _______ _____ _____    ______ ____
ROOT
ATOM      1  C   UNL     1       3.681   7.244  17.652  0.00  0.00    +0.000 C 
ATOM      2  C   UNL     1       4.967   7.620  17.679  0.00  0.00    +0.000 C 
ATOM      3  C   UNL     1       6.087   6.731  17.910  0.00  0.00    +0.000 C 
ATOM      4  C   UNL     1       7.376   7.145  17.946  0.00  0.00    +0.000 C 
ATOM      5  C   UNL     1       5.811   5.273  18.132  0.00  0.00    +0.000 C 
ATOM      6  O   UNL     1       6.758   4.502  18.332  0.00  0.00    +0.000 OA
ATOM      7  C   UNL     1       4.375   4.771  18.074  0.00  0.00    +0.000 C 
ATOM      8  C   UNL     1       3.304   5.838  17.919  0.00  0.00    +0.000 C 
ATOM      9  O   UNL     1       2.108   5.547  17.970  0.00  0.00    +0.000 OA
ENDROOT
BRANCH   4  10
ATOM     10  O   UNL     1       8.464   6.318  18.155  0.00  0.00    +0.000 OA
ATOM     11  H   UNL     1       8.147   5.389  18.183  0.00  0.00    +0.000 HD
ENDBRANCH   4  10
BRANCH   4  12
ATOM     12  C   UNL     1       7.797   8.510  17.720  0.00  0.00    +0.000 C 
ATOM     13  C   UNL     1       8.600   9.187  18.557  0.00  0.00    +0.000 C 
BRANCH  13  14
ATOM     14  C   UNL     1       9.020  10.542  18.218  0.00  0.00    +0.000 A 
ATOM     15  C   UNL     1      10.323  10.971  18.496  0.00  0.00    +0.000 A 
ATOM     16  C   UNL     1      10.689  12.296  18.254  0.00  0.00    +0.000 A 
ATOM     17  C   UNL     1       9.748  13.183  17.737  0.00  0.00    +0.000 A 
ATOM     18  C   UNL     1       8.456  12.764  17.445  0.00  0.00    +0.000 A 
ATOM     19  C   UNL     1       8.089  11.441  17.688  0.00  0.00    +0.000 A 
BRANCH  17  20
ATOM     20  O   UNL     1      10.056  14.492  17.510  0.00  0.00    +0.000 OA
ATOM     21  H   UNL     1      10.996  14.628  17.710  0.00  0.00    +0.000 HD
ENDBRANCH  17  20
ENDBRANCH  13  14
ENDBRANCH   4  12
BRANCH   1  22
ATOM     22  C   UNL     1       2.551   8.204  17.370  0.00  0.00    +0.000 C 
BRANCH  22  26
ATOM     23  C   UNL     1       0.745  10.303  20.132  0.00  0.00    +0.000 C 
ATOM     24  C   UNL     1       1.003   9.611  18.821  0.00  0.00    +0.000 C 
ATOM     25  C   UNL     1      -0.067   9.703  17.771  0.00  0.00    +0.000 C 
ATOM     26  C   UNL     1       2.160   8.952  18.618  0.00  0.00    +0.000 C 
ENDBRANCH  22  26
ENDBRANCH   1  22
BRANCH   7  27
ATOM     27  C   UNL     1       4.217   3.876  16.806  0.00  0.00    +0.000 C 
BRANCH  27  28
ATOM     28  C   UNL     1       5.420   3.780  15.900  0.00  0.00    +0.000 C 
ATOM     29  C   UNL     1       5.809   4.658  14.958  0.00  0.00    +0.000 C 
ATOM     30  C   UNL     1       5.055   5.895  14.565  0.00  0.00    +0.000 C 
ATOM     31  C   UNL     1       7.091   4.427  14.199  0.00  0.00    +0.000 C 
ENDBRANCH  27  28
ENDBRANCH   7  27
BRANCH   7  32
ATOM     32  C   UNL     1       4.055   3.977  19.365  0.00  0.00    +0.000 C 
BRANCH  32  33
ATOM     33  C   UNL     1       3.000   2.907  19.217  0.00  0.00    +0.000 C 
ATOM     34  C   UNL     1       1.794   2.876  19.818  0.00  0.00    +0.000 C 
ATOM     35  C   UNL     1       1.229   3.957  20.703  0.00  0.00    +0.000 C 
ATOM     36  C   UNL     1       0.893   1.678  19.666  0.00  0.00    +0.000 C 
ENDBRANCH  32  33
ENDBRANCH   7  32
TORSDOF 10
ENDMDL
MODEL 7
REMARK VINA RESULT:      -7.7      4.317     10.416
REMARK  Name = 
REMARK  16 active torsions:
REMARK  status: ('A' for Active; 'I' for Inactive)
REMARK    1  A    between atoms: C_1  and  C_2
REMARK    2  A    between atoms: C_2  and  C_3
REMARK    3  A    between atoms: C_4  and  C_5
REMARK    4  A    between atoms: C_5  and  C_6
REMARK    5  A    between atoms: C_9  and  O_10
REMARK    6  A    between atoms: C_9  and  C_11
REMARK    7  A    between atoms: C_12  and  C_13
REMARK    8  A    between atoms: C_16  and  O_17
REMARK    9  A    between atoms: C_22  and  C_23
REMARK   10  A    between atoms: C_22  and  C_28
REMARK   11  A    between atoms: C_23  and  C_24
REMARK   12  A    between atoms: C_25  and  C_26
REMARK   13  A    between atoms: C_25  and  C_27
REMARK   14  A    between atoms: C_28  and  C_29
REMARK   15  A    between atoms: C_30  and  C_31
REMARK   16  A    between atoms: C_30  and  C_32
REMARK                            x       y       z     vdW  Elec       q    Type
REMARK                         _______ _______ _______ _____ _____    ______ ____
ROOT
ATOM      1  C   UNL     1       6.621   6.694  17.735  0.00  0.00    +0.000 C 
ATOM      2  C   UNL     1       5.417   7.272  17.847  0.00  0.00    +0.000 C 
ATOM      3  C   UNL     1       4.154   6.613  17.587  0.00  0.00    +0.000 C 
ATOM      4  C   UNL     1       2.953   7.230  17.696  0.00  0.00    +0.000 C 
ATOM      5  C   UNL     1       4.170   5.173  17.166  0.00  0.00    +0.000 C 
ATOM      6  O   UNL     1       3.098   4.599  16.939  0.00  0.00    +0.000 OA
ATOM      7  C   UNL     1       5.501   4.445  17.058  0.00  0.00    +0.000 C 
ATOM      8  C   UNL     1       6.743   5.295  17.268  0.00  0.00    +0.000 C 
ATOM      9  O   UNL     1       7.869   4.825  17.096  0.00  0.00    +0.000 OA
ENDROOT
BRANCH   4  10
ATOM     10  O   UNL     1       1.732   6.624  17.463  0.00  0.00    +0.000 OA
ATOM     11  H   UNL     1       1.826   6.024  16.691  0.00  0.00    +0.000 HD
ENDBRANCH   4  10
BRANCH   4  12
ATOM     12  C   UNL     1       2.780   8.602  18.121  0.00  0.00    +0.000 C 
ATOM     13  C   UNL     1       1.638   9.290  17.958  0.00  0.00    +0.000 C 
BRANCH  13  14
ATOM     14  C   UNL     1       1.536  10.652  18.471  0.00  0.00    +0.000 A 
ATOM     15  C   UNL     1       2.356  11.665  17.962  0.00  0.00    +0.000 A 
ATOM     16  C   UNL     1       2.317  12.944  18.521  0.00  0.00    +0.000 A 
ATOM     17  C   UNL     1       1.458  13.198  19.587  0.00  0.00    +0.000 A 
ATOM     18  C   UNL     1       0.630  12.203  20.090  0.00  0.00    +0.000 A 
ATOM     19  C   UNL     1       0.669  10.926  19.533  0.00  0.00    +0.000 A 
BRANCH  17  20
ATOM     20  O   UNL     1       1.407  14.425  20.179  0.00  0.00    +0.000 OA
ATOM     21  H   UNL     1       2.165  14.512  20.780  0.00  0.00    +0.000 HD
ENDBRANCH  17  20
ENDBRANCH  13  14
ENDBRANCH   4  12
BRANCH   1  22
ATOM     22  C   UNL     1       7.910   7.413  18.055  0.00  0.00    +0.000 C 
BRANCH  22  26
ATOM     23  C   UNL     1       8.310  11.279  17.618  0.00  0.00    +0.000 C 
ATOM     24  C   UNL     1       8.453   9.898  18.194  0.00  0.00    +0.000 C 
ATOM     25  C   UNL     1       9.277   9.752  19.441  0.00  0.00    +0.000 C 
ATOM     26  C   UNL     1       7.847   8.850  17.603  0.00  0.00    +0.000 C 
ENDBRANCH  22  26
ENDBRANCH   1  22
BRANCH   7  27
ATOM     27  C   UNL     1       5.569   3.373  18.189  0.00  0.00    +0.000 C 
BRANCH  27  28
ATOM     28  C   UNL     1       4.623   3.564  19.350  0.00  0.00    +0.000 C 
ATOM     29  C   UNL     1       3.548   2.818  19.662  0.00  0.00    +0.000 C 
ATOM     30  C   UNL     1       3.025   1.671  18.846  0.00  0.00    +0.000 C 
ATOM     31  C   UNL     1       2.761   3.120  20.912  0.00  0.00    +0.000 C 
ENDBRANCH  27  28
ENDBRANCH   7  27
BRANCH   7  32
ATOM     32  C   UNL     1       5.618   3.792  15.658  0.00  0.00    +0.000 C 
BRANCH  32  33
ATOM     33  C   UNL     1       6.494   4.533  14.675  0.00  0.00    +0.000 C 
ATOM     34  C   UNL     1       6.582   4.311  13.349  0.00  0.00    +0.000 C 
ATOM     35  C   UNL     1       5.756   3.320  12.570  0.00  0.00    +0.000 C 
ATOM     36  C   UNL     1       7.593   5.053  12.513  0.00  0.00    +0.000 C 
ENDBRANCH  32  33
ENDBRANCH   7  32
TORSDOF 10
ENDMDL
MODEL 8
REMARK VINA RESULT:      -7.6      1.353      1.880
REMARK  Name = 
REMARK  16 active torsions:
REMARK  status: ('A' for Active; 'I' for Inactive)
REMARK    1  A    between atoms: C_1  and  C_2
REMARK    2  A    between atoms: C_2  and  C_3
REMARK    3  A    between atoms: C_4  and  C_5
REMARK    4  A    between atoms: C_5  and  C_6
REMARK    5  A    between atoms: C_9  and  O_10
REMARK    6  A    between atoms: C_9  and  C_11
REMARK    7  A    between atoms: C_12  and  C_13
REMARK    8  A    between atoms: C_16  and  O_17
REMARK    9  A    between atoms: C_22  and  C_23
REMARK   10  A    between atoms: C_22  and  C_28
REMARK   11  A    between atoms: C_23  and  C_24
REMARK   12  A    between atoms: C_25  and  C_26
REMARK   13  A    between atoms: C_25  and  C_27
REMARK   14  A    between atoms: C_28  and  C_29
REMARK   15  A    between atoms: C_30  and  C_31
REMARK   16  A    between atoms: C_30  and  C_32
REMARK                            x       y       z     vdW  Elec       q    Type
REMARK                         _______ _______ _______ _____ _____    ______ ____
ROOT
ATOM      1  C   UNL     1      -0.674  10.611  18.464  0.00  0.00    +0.000 C 
ATOM      2  C   UNL     1      -0.103   9.625  19.170  0.00  0.00    +0.000 C 
ATOM      3  C   UNL     1       0.687   9.813  20.369  0.00  0.00    +0.000 C 
ATOM      4  C   UNL     1       1.263   8.795  21.053  0.00  0.00    +0.000 C 
ATOM      5  C   UNL     1       0.889  11.208  20.883  0.00  0.00    +0.000 C 
ATOM      6  O   UNL     1       1.563  11.383  21.906  0.00  0.00    +0.000 OA
ATOM      7  C   UNL     1       0.235  12.371  20.153  0.00  0.00    +0.000 C 
ATOM      8  C   UNL     1      -0.481  12.025  18.858  0.00  0.00    +0.000 C 
ATOM      9  O   UNL     1      -0.950  12.907  18.137  0.00  0.00    +0.000 OA
ENDROOT
BRANCH   4  10
ATOM     10  O   UNL     1       2.013   8.943  22.204  0.00  0.00    +0.000 OA
ATOM     11  H   UNL     1       1.721   9.763  22.661  0.00  0.00    +0.000 HD
ENDBRANCH   4  10
BRANCH   4  12
ATOM     12  C   UNL     1       1.130   7.399  20.696  0.00  0.00    +0.000 C 
ATOM     13  C   UNL     1       2.042   6.729  19.972  0.00  0.00    +0.000 C 
BRANCH  13  14
ATOM     14  C   UNL     1       1.853   5.307  19.709  0.00  0.00    +0.000 A 
ATOM     15  C   UNL     1       1.518   4.432  20.749  0.00  0.00    +0.000 A 
ATOM     16  C   UNL     1       1.429   3.060  20.507  0.00  0.00    +0.000 A 
ATOM     17  C   UNL     1       1.678   2.573  19.226  0.00  0.00    +0.000 A 
ATOM     18  C   UNL     1       1.998   3.435  18.184  0.00  0.00    +0.000 A 
ATOM     19  C   UNL     1       2.087   4.805  18.425  0.00  0.00    +0.000 A 
BRANCH  17  20
ATOM     20  O   UNL     1       1.628   1.239  18.951  0.00  0.00    +0.000 OA
ATOM     21  H   UNL     1       2.257   1.046  18.237  0.00  0.00    +0.000 HD
ENDBRANCH  17  20
ENDBRANCH  13  14
ENDBRANCH   4  12
BRANCH   1  22
ATOM     22  C   UNL     1      -1.520  10.360  17.240  0.00  0.00    +0.000 C 
BRANCH  22  26
ATOM     23  C   UNL     1      -5.252  11.473  16.873  0.00  0.00    +0.000 C 
ATOM     24  C   UNL     1      -3.883  10.968  16.509  0.00  0.00    +0.000 C 
ATOM     25  C   UNL     1      -3.640  10.610  15.070  0.00  0.00    +0.000 C 
ATOM     26  C   UNL     1      -2.926  10.860  17.451  0.00  0.00    +0.000 C 
ENDBRANCH  22  26
ENDBRANCH   1  22
BRANCH   7  27
ATOM     27  C   UNL     1      -0.883  12.962  21.067  0.00  0.00    +0.000 C 
BRANCH  27  28
ATOM     28  C   UNL     1      -2.286  12.466  20.814  0.00  0.00    +0.000 C 
ATOM     29  C   UNL     1      -3.411  13.199  20.732  0.00  0.00    +0.000 C 
ATOM     30  C   UNL     1      -3.497  14.680  20.963  0.00  0.00    +0.000 C 
ATOM     31  C   UNL     1      -4.720  12.531  20.397  0.00  0.00    +0.000 C 
ENDBRANCH  27  28
ENDBRANCH   7  27
BRANCH   7  32
ATOM     32  C   UNL     1       1.308  13.437  19.818  0.00  0.00    +0.000 C 
BRANCH  32  33
ATOM     33  C   UNL     1       1.028  14.821  20.353  0.00  0.00    +0.000 C 
ATOM     34  C   UNL     1       1.368  15.991  19.777  0.00  0.00    +0.000 C 
ATOM     35  C   UNL     1       2.033  16.145  18.433  0.00  0.00    +0.000 C 
ATOM     36  C   UNL     1       1.126  17.296  20.491  0.00  0.00    +0.000 C 
ENDBRANCH  32  33
ENDBRANCH   7  32
TORSDOF 10
ENDMDL
MODEL 9
REMARK VINA RESULT:      -7.6      2.444      5.198
REMARK  Name = 
REMARK  16 active torsions:
REMARK  status: ('A' for Active; 'I' for Inactive)
REMARK    1  A    between atoms: C_1  and  C_2
REMARK    2  A    between atoms: C_2  and  C_3
REMARK    3  A    between atoms: C_4  and  C_5
REMARK    4  A    between atoms: C_5  and  C_6
REMARK    5  A    between atoms: C_9  and  O_10
REMARK    6  A    between atoms: C_9  and  C_11
REMARK    7  A    between atoms: C_12  and  C_13
REMARK    8  A    between atoms: C_16  and  O_17
REMARK    9  A    between atoms: C_22  and  C_23
REMARK   10  A    between atoms: C_22  and  C_28
REMARK   11  A    between atoms: C_23  and  C_24
REMARK   12  A    between atoms: C_25  and  C_26
REMARK   13  A    between atoms: C_25  and  C_27
REMARK   14  A    between atoms: C_28  and  C_29
REMARK   15  A    between atoms: C_30  and  C_31
REMARK   16  A    between atoms: C_30  and  C_32
REMARK                            x       y       z     vdW  Elec       q    Type
REMARK                         _______ _______ _______ _____ _____    ______ ____
ROOT
ATOM      1  C   UNL     1       1.564  11.489  18.676  0.00  0.00    +0.000 C 
ATOM      2  C   UNL     1       1.975  10.214  18.680  0.00  0.00    +0.000 C 
ATOM      3  C   UNL     1       1.422   9.166  19.513  0.00  0.00    +0.000 C 
ATOM      4  C   UNL     1       1.870   7.888  19.504  0.00  0.00    +0.000 C 
ATOM      5  C   UNL     1       0.299   9.511  20.446  0.00  0.00    +0.000 C 
ATOM      6  O   UNL     1      -0.181   8.626  21.166  0.00  0.00    +0.000 OA
ATOM      7  C   UNL     1      -0.243  10.932  20.464  0.00  0.00    +0.000 C 
ATOM      8  C   UNL     1       0.503  11.939  19.605  0.00  0.00    +0.000 C 
ATOM      9  O   UNL     1       0.211  13.136  19.632  0.00  0.00    +0.000 OA
ENDROOT
BRANCH   4  10
ATOM     10  O   UNL     1       1.356   6.866  20.281  0.00  0.00    +0.000 OA
ATOM     11  H   UNL     1       0.953   7.262  21.085  0.00  0.00    +0.000 HD
ENDBRANCH   4  10
BRANCH   4  12
ATOM     12  C   UNL     1       2.922   7.403  18.637  0.00  0.00    +0.000 C 
ATOM     13  C   UNL     1       3.692   6.342  18.928  0.00  0.00    +0.000 C 
BRANCH  13  14
ATOM     14  C   UNL     1       4.691   5.888  17.967  0.00  0.00    +0.000 A 
ATOM     15  C   UNL     1       5.768   5.097  18.383  0.00  0.00    +0.000 A 
ATOM     16  C   UNL     1       6.768   4.744  17.475  0.00  0.00    +0.000 A 
ATOM     17  C   UNL     1       6.684   5.187  16.158  0.00  0.00    +0.000 A 
ATOM     18  C   UNL     1       5.612   5.960  15.731  0.00  0.00    +0.000 A 
ATOM     19  C   UNL     1       4.613   6.314  16.637  0.00  0.00    +0.000 A 
BRANCH  17  20
ATOM     20  O   UNL     1       7.651   4.887  15.245  0.00  0.00    +0.000 OA
ATOM     21  H   UNL     1       7.222   4.631  14.412  0.00  0.00    +0.000 HD
ENDBRANCH  17  20
ENDBRANCH  13  14
ENDBRANCH   4  12
BRANCH   1  22
ATOM     22  C   UNL     1       2.147  12.537  17.760  0.00  0.00    +0.000 C 
BRANCH  22  26
ATOM     23  C   UNL     1       4.726  15.030  19.321  0.00  0.00    +0.000 C 
ATOM     24  C   UNL     1       3.475  14.513  18.665  0.00  0.00    +0.000 C 
ATOM     25  C   UNL     1       2.411  15.516  18.322  0.00  0.00    +0.000 C 
ATOM     26  C   UNL     1       3.342  13.199  18.397  0.00  0.00    +0.000 C 
ENDBRANCH  22  26
ENDBRANCH   1  22
BRANCH   7  27
ATOM     27  C   UNL     1      -1.688  10.915  19.876  0.00  0.00    +0.000 C 
BRANCH  27  28
ATOM     28  C   UNL     1      -1.846  10.301  18.507  0.00  0.00    +0.000 C 
ATOM     29  C   UNL     1      -2.808  10.554  17.601  0.00  0.00    +0.000 C 
ATOM     30  C   UNL     1      -3.983  11.463  17.819  0.00  0.00    +0.000 C 
ATOM     31  C   UNL     1      -2.758   9.893  16.247  0.00  0.00    +0.000 C 
ENDBRANCH  27  28
ENDBRANCH   7  27
BRANCH   7  32
ATOM     32  C   UNL     1      -0.234  11.468  21.918  0.00  0.00    +0.000 C 
BRANCH  32  33
ATOM     33  C   UNL     1      -1.587  11.530  22.588  0.00  0.00    +0.000 C 
ATOM     34  C   UNL     1      -2.183  12.626  23.098  0.00  0.00    +0.000 C 
ATOM     35  C   UNL     1      -1.642  14.030  23.026  0.00  0.00    +0.000 C 
ATOM     36  C   UNL     1      -3.486  12.511  23.846  0.00  0.00    +0.000 C 
ENDBRANCH  32  33
ENDBRANCH   7  32
TORSDOF 10
ENDMDL
