MODEL 1
REMARK VINA RESULT:      -7.7      0.000      0.000
REMARK  Name = 
REMARK  13 active torsions:
REMARK  status: ('A' for Active; 'I' for Inactive)
REMARK    1  A    between atoms: C_1  and  C_2
REMARK    2  A    between atoms: C_2  and  C_3
REMARK    3  A    between atoms: C_3  and  C_4
REMARK    4  A    between atoms: C_6  and  C_7
REMARK    5  A    between atoms: C_13  and  C_14
REMARK    6  A    between atoms: C_14  and  N_15
REMARK    7  A    between atoms: N_15  and  C_16
REMARK    8  A    between atoms: C_16  and  C_17
REMARK    9  A    between atoms: C_17  and  C_18
REMARK   10  A    between atoms: C_18  and  N_19
REMARK   11  A    between atoms: N_22  and  C_23
REMARK   12  A    between atoms: C_28  and  O_29
REMARK   13  A    between atoms: O_29  and  C_30
REMARK                            x       y       z     vdW  Elec       q    Type
REMARK                         _______ _______ _______ _____ _____    ______ ____
ROOT
ATOM      1  N   UNL     1       4.584   3.528  18.150  0.00  0.00    +0.000 NA
ATOM      2  H   UNL     1       5.499   3.732  18.555  0.00  0.00    +0.000 HD
ENDROOT
BRANCH   1   3
ATOM      3  C   UNL     1       4.564   4.100  16.796  0.00  0.00    +0.000 C 
BRANCH   3   7
ATOM      4  C   UNL     1       7.238   6.401  17.254  0.00  0.00    +0.000 A 
ATOM      5  N   UNL     1       7.587   6.140  16.012  0.00  0.00    +0.000 NA
ATOM      6  C   UNL     1       6.605   5.272  15.564  0.00  0.00    +0.000 A 
ATOM      7  C   UNL     1       5.722   5.002  16.592  0.00  0.00    +0.000 A 
ATOM      8  O   UNL     1       6.099   5.770  17.662  0.00  0.00    +0.000 OA
BRANCH   6   9
ATOM      9  C   UNL     1       6.575   4.756  14.207  0.00  0.00    +0.000 A 
ATOM     10  C   UNL     1       5.605   3.808  13.851  0.00  0.00    +0.000 A 
ATOM     11  C   UNL     1       5.610   3.224  12.582  0.00  0.00    +0.000 A 
ATOM     12  C   UNL     1       6.585   3.581  11.652  0.00  0.00    +0.000 A 
ATOM     13  C   UNL     1       7.546   4.533  11.986  0.00  0.00    +0.000 A 
ATOM     14  C   UNL     1       7.542   5.116  13.257  0.00  0.00    +0.000 A 
ENDBRANCH   6   9
BRANCH   4  15
ATOM     15  C   UNL     1       7.875   7.271  18.268  0.00  0.00    +0.000 C 
BRANCH  15  17
ATOM     16  C   UNL     1       8.834   9.553  18.726  0.00  0.00    +0.000 C 
ATOM     17  C   UNL     1       7.985   8.718  17.781  0.00  0.00    +0.000 C 
ENDBRANCH  15  17
ENDBRANCH   4  15
ENDBRANCH   3   7
ENDBRANCH   1   3
BRANCH   1  18
ATOM     18  C   UNL     1       3.543   4.068  19.015  0.00  0.00    +0.000 C 
BRANCH  18  19
ATOM     19  C   UNL     1       2.407   4.686  18.197  0.00  0.00    +0.000 C 
BRANCH  19  20
ATOM     20  C   UNL     1       1.701   5.806  18.961  0.00  0.00    +0.000 C 
BRANCH  20  21
ATOM     21  N   UNL     1       2.603   6.901  19.356  0.00  0.00    +0.000 NA
ATOM     22  C   UNL     1       2.914   7.830  18.244  0.00  0.00    +0.000 C 
ATOM     23  C   UNL     1       1.704   8.637  17.749  0.00  0.00    +0.000 C 
ATOM     24  N   UNL     1       1.150   9.411  18.867  0.00  0.00    +0.000 N 
ATOM     25  C   UNL     1       0.827   8.633  20.073  0.00  0.00    +0.000 C 
ATOM     26  C   UNL     1       2.017   7.706  20.460  0.00  0.00    +0.000 C 
BRANCH  24  27
ATOM     27  C   UNL     1       0.669  10.693  18.623  0.00  0.00    +0.000 A 
ATOM     28  C   UNL     1       1.481  11.802  18.947  0.00  0.00    +0.000 A 
ATOM     29  C   UNL     1       1.000  13.110  18.944  0.00  0.00    +0.000 A 
ATOM     30  C   UNL     1      -0.317  13.348  18.593  0.00  0.00    +0.000 A 
ATOM     31  C   UNL     1      -1.126  12.288  18.193  0.00  0.00    +0.000 A 
ATOM     32  C   UNL     1      -0.641  10.967  18.169  0.00  0.00    +0.000 A 
BRANCH  32  33
ATOM     33  O   UNL     1      -1.456   9.907  17.826  0.00  0.00    +0.000 OA
ATOM     34  C   UNL     1      -2.859  10.170  17.887  0.00  0.00    +0.000 C 
ENDBRANCH  32  33
ENDBRANCH  24  27
ENDBRANCH  20  21
ENDBRANCH  19  20
ENDBRANCH  18  19
ENDBRANCH   1  18
TORSDOF 11
ENDMDL
MODEL 2
REMARK VINA RESULT:      -7.7      1.663      4.268
REMARK  Name = 
REMARK  13 active torsions:
REMARK  status: ('A' for Active; 'I' for Inactive)
REMARK    1  A    between atoms: C_1  and  C_2
REMARK    2  A    between atoms: C_2  and  C_3
REMARK    3  A    between atoms: C_3  and  C_4
REMARK    4  A    between atoms: C_6  and  C_7
REMARK    5  A    between atoms: C_13  and  C_14
REMARK    6  A    between atoms: C_14  and  N_15
REMARK    7  A    between atoms: N_15  and  C_16
REMARK    8  A    between atoms: C_16  and  C_17
REMARK    9  A    between atoms: C_17  and  C_18
REMARK   10  A    between atoms: C_18  and  N_19
REMARK   11  A    between atoms: N_22  and  C_23
REMARK   12  A    between atoms: C_28  and  O_29
REMARK   13  A    between atoms: O_29  and  C_30
REMARK                            x       y       z     vdW  Elec       q    Type
REMARK                         _______ _______ _______ _____ _____    ______ ____
ROOT
ATOM      1  N   UNL     1       4.807   3.022  17.485  0.00  0.00    +0.000 NA
ATOM      2  H   UNL     1       5.826   2.962  17.461  0.00  0.00    +0.000 HD
ENDROOT
BRANCH   1   3
ATOM      3  C   UNL     1       4.394   3.938  16.413  0.00  0.00    +0.000 C 
BRANCH   3   7
ATOM      4  C   UNL     1       6.532   4.198  13.583  0.00  0.00    +0.000 A 
ATOM      5  N   UNL     1       7.312   4.957  14.324  0.00  0.00    +0.000 NA
ATOM      6  C   UNL     1       6.698   4.953  15.566  0.00  0.00    +0.000 A 
ATOM      7  C   UNL     1       5.527   4.223  15.502  0.00  0.00    +0.000 A 
ATOM      8  O   UNL     1       5.449   3.694  14.240  0.00  0.00    +0.000 OA
BRANCH   6   9
ATOM      9  C   UNL     1       7.255   5.641  16.718  0.00  0.00    +0.000 A 
ATOM     10  C   UNL     1       7.669   4.897  17.832  0.00  0.00    +0.000 A 
ATOM     11  C   UNL     1       8.120   5.537  18.989  0.00  0.00    +0.000 A 
ATOM     12  C   UNL     1       8.163   6.929  19.047  0.00  0.00    +0.000 A 
ATOM     13  C   UNL     1       7.769   7.681  17.942  0.00  0.00    +0.000 A 
ATOM     14  C   UNL     1       7.316   7.041  16.785  0.00  0.00    +0.000 A 
ENDBRANCH   6   9
BRANCH   4  15
ATOM     15  C   UNL     1       6.649   3.801  12.162  0.00  0.00    +0.000 C 
BRANCH  15  17
ATOM     16  C   UNL     1       4.329   3.268  11.344  0.00  0.00    +0.000 C 
ATOM     17  C   UNL     1       5.659   2.691  11.802  0.00  0.00    +0.000 C 
ENDBRANCH  15  17
ENDBRANCH   4  15
ENDBRANCH   3   7
ENDBRANCH   1   3
BRANCH   1  18
ATOM     18  C   UNL     1       4.380   3.459  18.808  0.00  0.00    +0.000 C 
BRANCH  18  19
ATOM     19  C   UNL     1       4.488   4.978  18.952  0.00  0.00    +0.000 C 
BRANCH  19  20
ATOM     20  C   UNL     1       3.567   5.511  20.050  0.00  0.00    +0.000 C 
BRANCH  20  21
ATOM     21  N   UNL     1       2.164   5.643  19.621  0.00  0.00    +0.000 NA
ATOM     22  C   UNL     1       1.320   6.363  20.605  0.00  0.00    +0.000 C 
ATOM     23  C   UNL     1       1.693   7.843  20.782  0.00  0.00    +0.000 C 
ATOM     24  N   UNL     1       1.590   8.525  19.485  0.00  0.00    +0.000 N 
ATOM     25  C   UNL     1       2.342   7.903  18.384  0.00  0.00    +0.000 C 
ATOM     26  C   UNL     1       2.064   6.372  18.329  0.00  0.00    +0.000 C 
BRANCH  24  27
ATOM     27  C   UNL     1       1.100   9.826  19.448  0.00  0.00    +0.000 A 
ATOM     28  C   UNL     1       1.687  10.754  18.561  0.00  0.00    +0.000 A 
ATOM     29  C   UNL     1       1.412  12.119  18.614  0.00  0.00    +0.000 A 
ATOM     30  C   UNL     1       0.517  12.596  19.556  0.00  0.00    +0.000 A 
ATOM     31  C   UNL     1      -0.140  11.701  20.397  0.00  0.00    +0.000 A 
ATOM     32  C   UNL     1       0.113  10.318  20.333  0.00  0.00    +0.000 A 
BRANCH  32  33
ATOM     33  O   UNL     1      -0.494   9.435  21.202  0.00  0.00    +0.000 OA
ATOM     34  C   UNL     1      -0.497   9.831  22.574  0.00  0.00    +0.000 C 
ENDBRANCH  32  33
ENDBRANCH  24  27
ENDBRANCH  20  21
ENDBRANCH  19  20
ENDBRANCH  18  19
ENDBRANCH   1  18
TORSDOF 11
ENDMDL
MODEL 3
REMARK VINA RESULT:      -7.6      4.838      8.957
REMARK  Name = 
REMARK  13 active torsions:
REMARK  status: ('A' for Active; 'I' for Inactive)
REMARK    1  A    between atoms: C_1  and  C_2
REMARK    2  A    between atoms: C_2  and  C_3
REMARK    3  A    between atoms: C_3  and  C_4
REMARK    4  A    between atoms: C_6  and  C_7
REMARK    5  A    between atoms: C_13  and  C_14
REMARK    6  A    between atoms: C_14  and  N_15
REMARK    7  A    between atoms: N_15  and  C_16
REMARK    8  A    between atoms: C_16  and  C_17
REMARK    9  A    between atoms: C_17  and  C_18
REMARK   10  A    between atoms: C_18  and  N_19
REMARK   11  A    between atoms: N_22  and  C_23
REMARK   12  A    between atoms: C_28  and  O_29
REMARK   13  A    between atoms: O_29  and  C_30
REMARK                            x       y       z     vdW  Elec       q    Type
REMARK                         _______ _______ _______ _____ _____    ______ ____
ROOT
ATOM      1  N   UNL     1       7.794   7.769  17.076  0.00  0.00    +0.000 NA
ATOM      2  H   UNL     1       6.959   8.185  16.660  0.00  0.00    +0.000 HD
ENDROOT
BRANCH   1   3
ATOM      3  C   UNL     1       7.478   6.368  17.389  0.00  0.00    +0.000 C 
BRANCH   3   7
ATOM      4  C   UNL     1       6.388   4.823  14.376  0.00  0.00    +0.000 A 
ATOM      5  N   UNL     1       5.202   4.718  14.937  0.00  0.00    +0.000 NA
ATOM      6  C   UNL     1       5.355   5.345  16.163  0.00  0.00    +0.000 A 
ATOM      7  C   UNL     1       6.665   5.761  16.309  0.00  0.00    +0.000 A 
ATOM      8  O   UNL     1       7.315   5.473  15.138  0.00  0.00    +0.000 OA
BRANCH   6   9
ATOM      9  C   UNL     1       4.262   5.500  17.106  0.00  0.00    +0.000 A 
ATOM     10  C   UNL     1       3.921   6.782  17.561  0.00  0.00    +0.000 A 
ATOM     11  C   UNL     1       2.937   6.953  18.539  0.00  0.00    +0.000 A 
ATOM     12  C   UNL     1       2.283   5.844  19.074  0.00  0.00    +0.000 A 
ATOM     13  C   UNL     1       2.600   4.566  18.620  0.00  0.00    +0.000 A 
ATOM     14  C   UNL     1       3.586   4.394  17.643  0.00  0.00    +0.000 A 
ENDBRANCH   6   9
BRANCH   4  15
ATOM     15  C   UNL     1       6.870   4.361  13.055  0.00  0.00    +0.000 C 
BRANCH  15  17
ATOM     16  C   UNL     1       4.923   3.412  11.771  0.00  0.00    +0.000 C 
ATOM     17  C   UNL     1       6.151   3.087  12.606  0.00  0.00    +0.000 C 
ENDBRANCH  15  17
ENDBRANCH   4  15
ENDBRANCH   3   7
ENDBRANCH   1   3
BRANCH   1  18
ATOM     18  C   UNL     1       8.187   8.543  18.247  0.00  0.00    +0.000 C 
BRANCH  18  19
ATOM     19  C   UNL     1       8.330  10.028  17.909  0.00  0.00    +0.000 C 
BRANCH  19  20
ATOM     20  C   UNL     1       9.558  10.646  18.576  0.00  0.00    +0.000 C 
BRANCH  20  21
ATOM     21  N   UNL     1      10.209  11.682  17.756  0.00  0.00    +0.000 NA
ATOM     22  C   UNL     1       9.415  12.930  17.657  0.00  0.00    +0.000 C 
ATOM     23  C   UNL     1       9.271  13.685  18.987  0.00  0.00    +0.000 C 
ATOM     24  N   UNL     1      10.606  14.015  19.502  0.00  0.00    +0.000 N 
ATOM     25  C   UNL     1      11.536  12.882  19.619  0.00  0.00    +0.000 C 
ATOM     26  C   UNL     1      11.542  12.043  18.307  0.00  0.00    +0.000 C 
BRANCH  24  27
ATOM     27  C   UNL     1      10.797  15.240  20.134  0.00  0.00    +0.000 A 
ATOM     28  C   UNL     1      10.740  15.300  21.543  0.00  0.00    +0.000 A 
ATOM     29  C   UNL     1      10.700  16.505  22.241  0.00  0.00    +0.000 A 
ATOM     30  C   UNL     1      10.735  17.698  21.540  0.00  0.00    +0.000 A 
ATOM     31  C   UNL     1      10.869  17.679  20.154  0.00  0.00    +0.000 A 
ATOM     32  C   UNL     1      10.936  16.466  19.443  0.00  0.00    +0.000 A 
BRANCH  32  33
ATOM     33  O   UNL     1      11.012  16.443  18.065  0.00  0.00    +0.000 OA
ATOM     34  C   UNL     1      12.333  16.480  17.525  0.00  0.00    +0.000 C 
ENDBRANCH  32  33
ENDBRANCH  24  27
ENDBRANCH  20  21
ENDBRANCH  19  20
ENDBRANCH  18  19
ENDBRANCH   1  18
TORSDOF 11
ENDMDL
MODEL 4
REMARK VINA RESULT:      -7.6      3.489      5.585
REMARK  Name = 
REMARK  13 active torsions:
REMARK  status: ('A' for Active; 'I' for Inactive)
REMARK    1  A    between atoms: C_1  and  C_2
REMARK    2  A    between atoms: C_2  and  C_3
REMARK    3  A    between atoms: C_3  and  C_4
REMARK    4  A    between atoms: C_6  and  C_7
REMARK    5  A    between atoms: C_13  and  C_14
REMARK    6  A    between atoms: C_14  and  N_15
REMARK    7  A    between atoms: N_15  and  C_16
REMARK    8  A    between atoms: C_16  and  C_17
REMARK    9  A    between atoms: C_17  and  C_18
REMARK   10  A    between atoms: C_18  and  N_19
REMARK   11  A    between atoms: N_22  and  C_23
REMARK   12  A    between atoms: C_28  and  O_29
REMARK   13  A    between atoms: O_29  and  C_30
REMARK                            x       y       z     vdW  Elec       q    Type
REMARK                         _______ _______ _______ _____ _____    ______ ____
ROOT
ATOM      1  N   UNL     1       2.545   8.587  17.309  0.00  0.00    +0.000 NA
ATOM      2  H   UNL     1       1.997   8.345  16.482  0.00  0.00    +0.000 HD
ENDROOT
BRANCH   1   3
ATOM      3  C   UNL     1       2.587   7.399  18.173  0.00  0.00    +0.000 C 
BRANCH   3   7
ATOM      4  C   UNL     1       5.852   6.254  17.348  0.00  0.00    +0.000 A 
ATOM      5  N   UNL     1       5.419   5.038  17.605  0.00  0.00    +0.000 NA
ATOM      6  C   UNL     1       4.077   5.216  17.899  0.00  0.00    +0.000 A 
ATOM      7  C   UNL     1       3.769   6.563  17.858  0.00  0.00    +0.000 A 
ATOM      8  O   UNL     1       4.899   7.224  17.451  0.00  0.00    +0.000 OA
BRANCH   6   9
ATOM      9  C   UNL     1       3.187   4.110  18.204  0.00  0.00    +0.000 A 
ATOM     10  C   UNL     1       1.816   4.235  17.940  0.00  0.00    +0.000 A 
ATOM     11  C   UNL     1       0.924   3.225  18.309  0.00  0.00    +0.000 A 
ATOM     12  C   UNL     1       1.391   2.077  18.947  0.00  0.00    +0.000 A 
ATOM     13  C   UNL     1       2.754   1.933  19.202  0.00  0.00    +0.000 A 
ATOM     14  C   UNL     1       3.646   2.944  18.834  0.00  0.00    +0.000 A 
ENDBRANCH   6   9
BRANCH   4  15
ATOM     15  C   UNL     1       7.198   6.732  16.958  0.00  0.00    +0.000 C 
BRANCH  15  17
ATOM     16  C   UNL     1       8.227   8.789  17.980  0.00  0.00    +0.000 C 
ATOM     17  C   UNL     1       7.962   7.303  18.155  0.00  0.00    +0.000 C 
ENDBRANCH  15  17
ENDBRANCH   4  15
ENDBRANCH   3   7
ENDBRANCH   1   3
BRANCH   1  18
ATOM     18  C   UNL     1       1.951   9.748  17.960  0.00  0.00    +0.000 C 
BRANCH  18  19
ATOM     19  C   UNL     1       0.425   9.720  17.859  0.00  0.00    +0.000 C 
BRANCH  19  20
ATOM     20  C   UNL     1      -0.239  10.157  19.165  0.00  0.00    +0.000 C 
BRANCH  20  21
ATOM     21  N   UNL     1       0.548  11.148  19.917  0.00  0.00    +0.000 NA
ATOM     22  C   UNL     1      -0.071  12.496  19.928  0.00  0.00    +0.000 C 
ATOM     23  C   UNL     1      -1.400  12.564  20.694  0.00  0.00    +0.000 C 
ATOM     24  N   UNL     1      -1.182  12.135  22.081  0.00  0.00    +0.000 N 
ATOM     25  C   UNL     1      -0.530  10.826  22.241  0.00  0.00    +0.000 C 
ATOM     26  C   UNL     1       0.730  10.728  21.332  0.00  0.00    +0.000 C 
BRANCH  24  27
ATOM     27  C   UNL     1      -1.867  12.787  23.101  0.00  0.00    +0.000 A 
ATOM     28  C   UNL     1      -3.078  12.237  23.573  0.00  0.00    +0.000 A 
ATOM     29  C   UNL     1      -3.934  12.930  24.427  0.00  0.00    +0.000 A 
ATOM     30  C   UNL     1      -3.587  14.201  24.852  0.00  0.00    +0.000 A 
ATOM     31  C   UNL     1      -2.363  14.745  24.469  0.00  0.00    +0.000 A 
ATOM     32  C   UNL     1      -1.482  14.041  23.628  0.00  0.00    +0.000 A 
BRANCH  32  33
ATOM     33  O   UNL     1      -0.294  14.600  23.201  0.00  0.00    +0.000 OA
ATOM     34  C   UNL     1      -0.175  16.010  23.399  0.00  0.00    +0.000 C 
ENDBRANCH  32  33
ENDBRANCH  24  27
ENDBRANCH  20  21
ENDBRANCH  19  20
ENDBRANCH  18  19
ENDBRANCH   1  18
TORSDOF 11
ENDMDL
MODEL 5
REMARK VINA RESULT:      -7.5      3.581      5.647
REMARK  Name = 
REMARK  13 active torsions:
REMARK  status: ('A' for Active; 'I' for Inactive)
REMARK    1  A    between atoms: C_1  and  C_2
REMARK    2  A    between atoms: C_2  and  C_3
REMARK    3  A    between atoms: C_3  and  C_4
REMARK    4  A    between atoms: C_6  and  C_7
REMARK    5  A    between atoms: C_13  and  C_14
REMARK    6  A    between atoms: C_14  and  N_15
REMARK    7  A    between atoms: N_15  and  C_16
REMARK    8  A    between atoms: C_16  and  C_17
REMARK    9  A    between atoms: C_17  and  C_18
REMARK   10  A    between atoms: C_18  and  N_19
REMARK   11  A    between atoms: N_22  and  C_23
REMARK   12  A    between atoms: C_28  and  O_29
REMARK   13  A    between atoms: O_29  and  C_30
REMARK                            x       y       z     vdW  Elec       q    Type
REMARK                         _______ _______ _______ _____ _____    ______ ____
ROOT
ATOM      1  N   UNL     1       1.923   8.237  18.777  0.00  0.00    +0.000 NA
ATOM      2  H   UNL     1       2.336   8.844  19.487  0.00  0.00    +0.000 HD
ENDROOT
BRANCH   1   3
ATOM      3  C   UNL     1       3.024   7.520  18.117  0.00  0.00    +0.000 C 
BRANCH   3   7
ATOM      4  C   UNL     1       2.877   4.680  20.254  0.00  0.00    +0.000 A 
ATOM      5  N   UNL     1       3.785   4.130  19.475  0.00  0.00    +0.000 NA
ATOM      6  C   UNL     1       4.077   5.120  18.551  0.00  0.00    +0.000 A 
ATOM      7  C   UNL     1       3.279   6.223  18.787  0.00  0.00    +0.000 A 
ATOM      8  O   UNL     1       2.546   5.958  19.915  0.00  0.00    +0.000 OA
BRANCH   6   9
ATOM      9  C   UNL     1       5.079   4.952  17.513  0.00  0.00    +0.000 A 
ATOM     10  C   UNL     1       6.234   5.747  17.535  0.00  0.00    +0.000 A 
ATOM     11  C   UNL     1       7.169   5.675  16.499  0.00  0.00    +0.000 A 
ATOM     12  C   UNL     1       6.961   4.807  15.429  0.00  0.00    +0.000 A 
ATOM     13  C   UNL     1       5.825   4.000  15.401  0.00  0.00    +0.000 A 
ATOM     14  C   UNL     1       4.889   4.073  16.437  0.00  0.00    +0.000 A 
ENDBRANCH   6   9
BRANCH   4  15
ATOM     15  C   UNL     1       2.171   4.137  21.436  0.00  0.00    +0.000 C 
BRANCH  15  17
ATOM     16  C   UNL     1       0.760   3.061  19.650  0.00  0.00    +0.000 C 
ATOM     17  C   UNL     1       1.292   2.939  21.069  0.00  0.00    +0.000 C 
ENDBRANCH  15  17
ENDBRANCH   4  15
ENDBRANCH   3   7
ENDBRANCH   1   3
BRANCH   1  18
ATOM     18  C   UNL     1       1.131   9.042  17.855  0.00  0.00    +0.000 C 
BRANCH  18  19
ATOM     19  C   UNL     1       0.533  10.262  18.558  0.00  0.00    +0.000 C 
BRANCH  19  20
ATOM     20  C   UNL     1       0.043   9.922  19.966  0.00  0.00    +0.000 C 
BRANCH  20  21
ATOM     21  N   UNL     1       0.793  10.614  21.028  0.00  0.00    +0.000 NA
ATOM     22  C   UNL     1       0.765  12.090  20.894  0.00  0.00    +0.000 C 
ATOM     23  C   UNL     1      -0.627  12.707  21.097  0.00  0.00    +0.000 C 
ATOM     24  N   UNL     1      -1.127  12.345  22.430  0.00  0.00    +0.000 N 
ATOM     25  C   UNL     1      -1.121  10.907  22.736  0.00  0.00    +0.000 C 
ATOM     26  C   UNL     1       0.256  10.276  22.372  0.00  0.00    +0.000 C 
BRANCH  24  27
ATOM     27  C   UNL     1      -1.852  13.287  23.153  0.00  0.00    +0.000 A 
ATOM     28  C   UNL     1      -1.156  14.245  23.921  0.00  0.00    +0.000 A 
ATOM     29  C   UNL     1      -1.793  15.076  24.840  0.00  0.00    +0.000 A 
ATOM     30  C   UNL     1      -3.164  14.981  25.005  0.00  0.00    +0.000 A 
ATOM     31  C   UNL     1      -3.894  14.102  24.210  0.00  0.00    +0.000 A 
ATOM     32  C   UNL     1      -3.262  13.278  23.261  0.00  0.00    +0.000 A 
BRANCH  32  33
ATOM     33  O   UNL     1      -3.976  12.365  22.511  0.00  0.00    +0.000 OA
ATOM     34  C   UNL     1      -5.323  12.735  22.218  0.00  0.00    +0.000 C 
ENDBRANCH  32  33
ENDBRANCH  24  27
ENDBRANCH  20  21
ENDBRANCH  19  20
ENDBRANCH  18  19
ENDBRANCH   1  18
TORSDOF 11
ENDMDL
MODEL 6
REMARK VINA RESULT:      -7.5      4.335      8.004
REMARK  Name = 
REMARK  13 active torsions:
REMARK  status: ('A' for Active; 'I' for Inactive)
REMARK    1  A    between atoms: C_1  and  C_2
REMARK    2  A    between atoms: C_2  and  C_3
REMARK    3  A    between atoms: C_3  and  C_4
REMARK    4  A    between atoms: C_6  and  C_7
REMARK    5  A    between atoms: C_13  and  C_14
REMARK    6  A    between atoms: C_14  and  N_15
REMARK    7  A    between atoms: N_15  and  C_16
REMARK    8  A    between atoms: C_16  and  C_17
REMARK    9  A    between atoms: C_17  and  C_18
REMARK   10  A    between atoms: C_18  and  N_19
REMARK   11  A    between atoms: N_22  and  C_23
REMARK   12  A    between atoms: C_28  and  O_29
REMARK   13  A    between atoms: O_29  and  C_30
REMARK                            x       y       z     vdW  Elec       q    Type
REMARK                         _______ _______ _______ _____ _____    ______ ____
ROOT
ATOM      1  N   UNL     1       7.993   6.526  18.333  0.00  0.00    +0.000 NA
ATOM      2  H   UNL     1       8.295   5.950  17.546  0.00  0.00    +0.000 HD
ENDROOT
BRANCH   1   3
ATOM      3  C   UNL     1       6.700   5.998  18.794  0.00  0.00    +0.000 C 
BRANCH   3   7
ATOM      4  C   UNL     1       5.972   4.261  15.777  0.00  0.00    +0.000 A 
ATOM      5  N   UNL     1       4.923   3.761  16.395  0.00  0.00    +0.000 NA
ATOM      6  C   UNL     1       4.945   4.373  17.638  0.00  0.00    +0.000 A 
ATOM      7  C   UNL     1       6.058   5.188  17.733  0.00  0.00    +0.000 A 
ATOM      8  O   UNL     1       6.688   5.156  16.517  0.00  0.00    +0.000 OA
BRANCH   6   9
ATOM      9  C   UNL     1       3.924   4.140  18.645  0.00  0.00    +0.000 A 
ATOM     10  C   UNL     1       2.907   5.088  18.826  0.00  0.00    +0.000 A 
ATOM     11  C   UNL     1       1.967   4.938  19.849  0.00  0.00    +0.000 A 
ATOM     12  C   UNL     1       2.032   3.838  20.703  0.00  0.00    +0.000 A 
ATOM     13  C   UNL     1       3.028   2.880  20.525  0.00  0.00    +0.000 A 
ATOM     14  C   UNL     1       3.971   3.032  19.502  0.00  0.00    +0.000 A 
ENDBRANCH   6   9
BRANCH   4  15
ATOM     15  C   UNL     1       6.490   4.013  14.412  0.00  0.00    +0.000 C 
BRANCH  15  17
ATOM     16  C   UNL     1       5.864   3.219  12.107  0.00  0.00    +0.000 C 
ATOM     17  C   UNL     1       5.355   3.829  13.402  0.00  0.00    +0.000 C 
ENDBRANCH  15  17
ENDBRANCH   4  15
ENDBRANCH   3   7
ENDBRANCH   1   3
BRANCH   1  18
ATOM     18  C   UNL     1       7.926   7.920  17.915  0.00  0.00    +0.000 C 
BRANCH  18  19
ATOM     19  C   UNL     1       8.735   8.819  18.851  0.00  0.00    +0.000 C 
BRANCH  19  20
ATOM     20  C   UNL     1       8.879  10.235  18.293  0.00  0.00    +0.000 C 
BRANCH  20  21
ATOM     21  N   UNL     1      10.071  10.941  18.793  0.00  0.00    +0.000 NA
ATOM     22  C   UNL     1      10.671  11.853  17.789  0.00  0.00    +0.000 C 
ATOM     23  C   UNL     1       9.780  13.049  17.422  0.00  0.00    +0.000 C 
ATOM     24  N   UNL     1       9.478  13.818  18.635  0.00  0.00    +0.000 N 
ATOM     25  C   UNL     1       8.913  13.041  19.749  0.00  0.00    +0.000 C 
ATOM     26  C   UNL     1       9.750  11.752  19.997  0.00  0.00    +0.000 C 
BRANCH  24  27
ATOM     27  C   UNL     1       9.424  15.206  18.555  0.00  0.00    +0.000 A 
ATOM     28  C   UNL     1      10.553  15.958  18.943  0.00  0.00    +0.000 A 
ATOM     29  C   UNL     1      10.513  17.342  19.103  0.00  0.00    +0.000 A 
ATOM     30  C   UNL     1       9.331  18.020  18.858  0.00  0.00    +0.000 A 
ATOM     31  C   UNL     1       8.218  17.321  18.399  0.00  0.00    +0.000 A 
ATOM     32  C   UNL     1       8.258  15.927  18.210  0.00  0.00    +0.000 A 
BRANCH  32  33
ATOM     33  O   UNL     1       7.141  15.223  17.809  0.00  0.00    +0.000 OA
ATOM     34  C   UNL     1       5.916  15.614  18.430  0.00  0.00    +0.000 C 
ENDBRANCH  32  33
ENDBRANCH  24  27
ENDBRANCH  20  21
ENDBRANCH  19  20
ENDBRANCH  18  19
ENDBRANCH   1  18
TORSDOF 11
ENDMDL
MODEL 7
REMARK VINA RESULT:      -7.5      3.151      5.943
REMARK  Name = 
REMARK  13 active torsions:
REMARK  status: ('A' for Active; 'I' for Inactive)
REMARK    1  A    between atoms: C_1  and  C_2
REMARK    2  A    between atoms: C_2  and  C_3
REMARK    3  A    between atoms: C_3  and  C_4
REMARK    4  A    between atoms: C_6  and  C_7
REMARK    5  A    between atoms: C_13  and  C_14
REMARK    6  A    between atoms: C_14  and  N_15
REMARK    7  A    between atoms: N_15  and  C_16
REMARK    8  A    between atoms: C_16  and  C_17
REMARK    9  A    between atoms: C_17  and  C_18
REMARK   10  A    between atoms: C_18  and  N_19
REMARK   11  A    between atoms: N_22  and  C_23
REMARK   12  A    between atoms: C_28  and  O_29
REMARK   13  A    between atoms: O_29  and  C_30
REMARK                            x       y       z     vdW  Elec       q    Type
REMARK                         _______ _______ _______ _____ _____    ______ ____
ROOT
ATOM      1  N   UNL     1       2.297   8.883  17.386  0.00  0.00    +0.000 NA
ATOM      2  H   UNL     1       1.386   8.804  16.931  0.00  0.00    +0.000 HD
ENDROOT
BRANCH   1   3
ATOM      3  C   UNL     1       2.366   7.837  18.417  0.00  0.00    +0.000 C 
BRANCH   3   7
ATOM      4  C   UNL     1       5.293   6.159  17.294  0.00  0.00    +0.000 A 
ATOM      5  N   UNL     1       4.775   5.059  17.797  0.00  0.00    +0.000 NA
ATOM      6  C   UNL     1       3.532   5.456  18.260  0.00  0.00    +0.000 A 
ATOM      7  C   UNL     1       3.375   6.814  18.059  0.00  0.00    +0.000 A 
ATOM      8  O   UNL     1       4.487   7.255  17.389  0.00  0.00    +0.000 OA
BRANCH   6   9
ATOM      9  C   UNL     1       2.587   4.531  18.862  0.00  0.00    +0.000 A 
ATOM     10  C   UNL     1       2.007   3.527  18.073  0.00  0.00    +0.000 A 
ATOM     11  C   UNL     1       1.026   2.683  18.600  0.00  0.00    +0.000 A 
ATOM     12  C   UNL     1       0.613   2.833  19.923  0.00  0.00    +0.000 A 
ATOM     13  C   UNL     1       1.191   3.817  20.723  0.00  0.00    +0.000 A 
ATOM     14  C   UNL     1       2.172   4.662  20.195  0.00  0.00    +0.000 A 
ENDBRANCH   6   9
BRANCH   4  15
ATOM     15  C   UNL     1       6.599   6.393  16.637  0.00  0.00    +0.000 C 
BRANCH  15  17
ATOM     16  C   UNL     1       8.030   6.772  18.673  0.00  0.00    +0.000 C 
ATOM     17  C   UNL     1       7.451   7.398  17.415  0.00  0.00    +0.000 C 
ENDBRANCH  15  17
ENDBRANCH   4  15
ENDBRANCH   3   7
ENDBRANCH   1   3
BRANCH   1  18
ATOM     18  C   UNL     1       2.454  10.228  17.924  0.00  0.00    +0.000 C 
BRANCH  18  19
ATOM     19  C   UNL     1       1.112  10.802  18.382  0.00  0.00    +0.000 C 
BRANCH  19  20
ATOM     20  C   UNL     1       1.214  12.292  18.709  0.00  0.00    +0.000 C 
BRANCH  20  21
ATOM     21  N   UNL     1      -0.021  13.040  18.416  0.00  0.00    +0.000 NA
ATOM     22  C   UNL     1      -1.234  12.188  18.431  0.00  0.00    +0.000 C 
ATOM     23  C   UNL     1      -1.580  11.620  19.815  0.00  0.00    +0.000 C 
ATOM     24  N   UNL     1      -1.772  12.728  20.759  0.00  0.00    +0.000 N 
ATOM     25  C   UNL     1      -0.665  13.694  20.830  0.00  0.00    +0.000 C 
ATOM     26  C   UNL     1      -0.231  14.135  19.400  0.00  0.00    +0.000 C 
BRANCH  24  27
ATOM     27  C   UNL     1      -2.771  12.625  21.721  0.00  0.00    +0.000 A 
ATOM     28  C   UNL     1      -4.081  13.036  21.395  0.00  0.00    +0.000 A 
ATOM     29  C   UNL     1      -5.084  13.175  22.352  0.00  0.00    +0.000 A 
ATOM     30  C   UNL     1      -4.804  12.884  23.677  0.00  0.00    +0.000 A 
ATOM     31  C   UNL     1      -3.544  12.403  24.024  0.00  0.00    +0.000 A 
ATOM     32  C   UNL     1      -2.534  12.236  23.059  0.00  0.00    +0.000 A 
BRANCH  32  33
ATOM     33  O   UNL     1      -1.268  11.812  23.409  0.00  0.00    +0.000 OA
ATOM     34  C   UNL     1      -1.002  10.427  23.184  0.00  0.00    +0.000 C 
ENDBRANCH  32  33
ENDBRANCH  24  27
ENDBRANCH  20  21
ENDBRANCH  19  20
ENDBRANCH  18  19
ENDBRANCH   1  18
TORSDOF 11
ENDMDL
MODEL 8
REMARK VINA RESULT:      -7.5      3.238      6.103
REMARK  Name = 
REMARK  13 active torsions:
REMARK  status: ('A' for Active; 'I' for Inactive)
REMARK    1  A    between atoms: C_1  and  C_2
REMARK    2  A    between atoms: C_2  and  C_3
REMARK    3  A    between atoms: C_3  and  C_4
REMARK    4  A    between atoms: C_6  and  C_7
REMARK    5  A    between atoms: C_13  and  C_14
REMARK    6  A    between atoms: C_14  and  N_15
REMARK    7  A    between atoms: N_15  and  C_16
REMARK    8  A    between atoms: C_16  and  C_17
REMARK    9  A    between atoms: C_17  and  C_18
REMARK   10  A    between atoms: C_18  and  N_19
REMARK   11  A    between atoms: N_22  and  C_23
REMARK   12  A    between atoms: C_28  and  O_29
REMARK   13  A    between atoms: O_29  and  C_30
REMARK                            x       y       z     vdW  Elec       q    Type
REMARK                         _______ _______ _______ _____ _____    ______ ____
ROOT
ATOM      1  N   UNL     1       2.350   7.372  18.179  0.00  0.00    +0.000 NA
ATOM      2  H   UNL     1       2.250   7.381  19.196  0.00  0.00    +0.000 HD
ENDROOT
BRANCH   1   3
ATOM      3  C   UNL     1       3.783   7.251  17.878  0.00  0.00    +0.000 C 
BRANCH   3   7
ATOM      4  C   UNL     1       5.158   4.559  16.003  0.00  0.00    +0.000 A 
ATOM      5  N   UNL     1       4.457   3.753  16.772  0.00  0.00    +0.000 NA
ATOM      6  C   UNL     1       3.740   4.610  17.590  0.00  0.00    +0.000 A 
ATOM      7  C   UNL     1       4.087   5.918  17.308  0.00  0.00    +0.000 A 
ATOM      8  O   UNL     1       4.959   5.885  16.251  0.00  0.00    +0.000 OA
BRANCH   6   9
ATOM      9  C   UNL     1       2.787   4.137  18.579  0.00  0.00    +0.000 A 
ATOM     10  C   UNL     1       3.068   4.307  19.943  0.00  0.00    +0.000 A 
ATOM     11  C   UNL     1       2.217   3.778  20.917  0.00  0.00    +0.000 A 
ATOM     12  C   UNL     1       1.075   3.074  20.540  0.00  0.00    +0.000 A 
ATOM     13  C   UNL     1       0.775   2.911  19.189  0.00  0.00    +0.000 A 
ATOM     14  C   UNL     1       1.627   3.438  18.214  0.00  0.00    +0.000 A 
ENDBRANCH   6   9
BRANCH   4  15
ATOM     15  C   UNL     1       6.113   4.257  14.914  0.00  0.00    +0.000 C 
BRANCH  15  17
ATOM     16  C   UNL     1       6.381   3.572  12.506  0.00  0.00    +0.000 C 
ATOM     17  C   UNL     1       5.391   3.889  13.615  0.00  0.00    +0.000 C 
ENDBRANCH  15  17
ENDBRANCH   4  15
ENDBRANCH   3   7
ENDBRANCH   1   3
BRANCH   1  18
ATOM     18  C   UNL     1       1.748   8.578  17.624  0.00  0.00    +0.000 C 
BRANCH  18  19
ATOM     19  C   UNL     1       1.568   9.652  18.698  0.00  0.00    +0.000 C 
BRANCH  19  20
ATOM     20  C   UNL     1       0.226  10.372  18.562  0.00  0.00    +0.000 C 
BRANCH  20  21
ATOM     21  N   UNL     1       0.316  11.824  18.794  0.00  0.00    +0.000 NA
ATOM     22  C   UNL     1      -1.010  12.479  18.902  0.00  0.00    +0.000 C 
ATOM     23  C   UNL     1      -1.816  12.054  20.138  0.00  0.00    +0.000 C 
ATOM     24  N   UNL     1      -1.041  12.357  21.348  0.00  0.00    +0.000 N 
ATOM     25  C   UNL     1       0.324  11.810  21.376  0.00  0.00    +0.000 C 
ATOM     26  C   UNL     1       1.065  12.123  20.042  0.00  0.00    +0.000 C 
BRANCH  24  27
ATOM     27  C   UNL     1      -1.711  12.821  22.476  0.00  0.00    +0.000 A 
ATOM     28  C   UNL     1      -2.757  12.045  23.019  0.00  0.00    +0.000 A 
ATOM     29  C   UNL     1      -3.618  12.529  24.001  0.00  0.00    +0.000 A 
ATOM     30  C   UNL     1      -3.442  13.814  24.485  0.00  0.00    +0.000 A 
ATOM     31  C   UNL     1      -2.374  14.582  24.029  0.00  0.00    +0.000 A 
ATOM     32  C   UNL     1      -1.484  14.090  23.056  0.00  0.00    +0.000 A 
BRANCH  32  33
ATOM     33  O   UNL     1      -0.458  14.869  22.560  0.00  0.00    +0.000 OA
ATOM     34  C   UNL     1      -0.171  16.051  23.309  0.00  0.00    +0.000 C 
ENDBRANCH  32  33
ENDBRANCH  24  27
ENDBRANCH  20  21
ENDBRANCH  19  20
ENDBRANCH  18  19
ENDBRANCH   1  18
TORSDOF 11
ENDMDL
MODEL 9
REMARK VINA RESULT:      -7.4      3.416      5.636
REMARK  Name = 
REMARK  13 active torsions:
REMARK  status: ('A' for Active; 'I' for Inactive)
REMARK    1  A    between atoms: C_1  and  C_2
REMARK    2  A    between atoms: C_2  and  C_3
REMARK    3  A    between atoms: C_3  and  C_4
REMARK    4  A    between atoms: C_6  and  C_7
REMARK    5  A    between atoms: C_13  and  C_14
REMARK    6  A    between atoms: C_14  and  N_15
REMARK    7  A    between atoms: N_15  and  C_16
REMARK    8  A    between atoms: C_16  and  C_17
REMARK    9  A    between atoms: C_17  and  C_18
REMARK   10  A    between atoms: C_18  and  N_19
REMARK   11  A    between atoms: N_22  and  C_23
REMARK   12  A    between atoms: C_28  and  O_29
REMARK   13  A    between atoms: O_29  and  C_30
REMARK                            x       y       z     vdW  Elec       q    Type
REMARK                         _______ _______ _______ _____ _____    ______ ____
ROOT
ATOM      1  N   UNL     1       2.209   7.830  18.329  0.00  0.00    +0.000 NA
ATOM      2  H   UNL     1       2.110   7.638  19.328  0.00  0.00    +0.000 HD
ENDROOT
BRANCH   1   3
ATOM      3  C   UNL     1       3.405   7.117  17.861  0.00  0.00    +0.000 C 
BRANCH   3   7
ATOM      4  C   UNL     1       2.120   3.862  18.497  0.00  0.00    +0.000 A 
ATOM      5  N   UNL     1       3.059   3.406  17.695  0.00  0.00    +0.000 NA
ATOM      6  C   UNL     1       3.780   4.537  17.349  0.00  0.00    +0.000 A 
ATOM      7  C   UNL     1       3.200   5.651  17.926  0.00  0.00    +0.000 A 
ATOM      8  O   UNL     1       2.165   5.209  18.707  0.00  0.00    +0.000 OA
BRANCH   6   9
ATOM      9  C   UNL     1       4.956   4.487  16.497  0.00  0.00    +0.000 A 
ATOM     10  C   UNL     1       6.213   4.791  17.037  0.00  0.00    +0.000 A 
ATOM     11  C   UNL     1       7.346   4.844  16.222  0.00  0.00    +0.000 A 
ATOM     12  C   UNL     1       7.237   4.591  14.856  0.00  0.00    +0.000 A 
ATOM     13  C   UNL     1       5.996   4.272  14.307  0.00  0.00    +0.000 A 
ATOM     14  C   UNL     1       4.862   4.222  15.122  0.00  0.00    +0.000 A 
ENDBRANCH   6   9
BRANCH   4  15
ATOM     15  C   UNL     1       1.037   3.148  19.210  0.00  0.00    +0.000 C 
BRANCH  15  17
ATOM     16  C   UNL     1       2.345   2.839  21.339  0.00  0.00    +0.000 C 
ATOM     17  C   UNL     1       1.082   3.413  20.717  0.00  0.00    +0.000 C 
ENDBRANCH  15  17
ENDBRANCH   4  15
ENDBRANCH   3   7
ENDBRANCH   1   3
BRANCH   1  18
ATOM     18  C   UNL     1       2.281   9.270  18.118  0.00  0.00    +0.000 C 
BRANCH  18  19
ATOM     19  C   UNL     1       0.893   9.864  17.871  0.00  0.00    +0.000 C 
BRANCH  19  20
ATOM     20  C   UNL     1       0.443  10.757  19.027  0.00  0.00    +0.000 C 
BRANCH  20  21
ATOM     21  N   UNL     1      -0.847  10.350  19.610  0.00  0.00    +0.000 NA
ATOM     22  C   UNL     1      -0.752  10.003  21.049  0.00  0.00    +0.000 C 
ATOM     23  C   UNL     1      -0.405  11.193  21.956  0.00  0.00    +0.000 C 
ATOM     24  N   UNL     1      -1.421  12.239  21.790  0.00  0.00    +0.000 N 
ATOM     25  C   UNL     1      -1.667  12.666  20.404  0.00  0.00    +0.000 C 
ATOM     26  C   UNL     1      -1.860  11.430  19.478  0.00  0.00    +0.000 C 
BRANCH  24  27
ATOM     27  C   UNL     1      -1.824  12.966  22.906  0.00  0.00    +0.000 A 
ATOM     28  C   UNL     1      -3.048  12.641  23.529  0.00  0.00    +0.000 A 
ATOM     29  C   UNL     1      -3.630  13.449  24.505  0.00  0.00    +0.000 A 
ATOM     30  C   UNL     1      -2.986  14.608  24.901  0.00  0.00    +0.000 A 
ATOM     31  C   UNL     1      -1.740  14.921  24.364  0.00  0.00    +0.000 A 
ATOM     32  C   UNL     1      -1.133  14.097  23.397  0.00  0.00    +0.000 A 
BRANCH  32  33
ATOM     33  O   UNL     1       0.076  14.434  22.822  0.00  0.00    +0.000 OA
ATOM     34  C   UNL     1       0.065  15.616  22.021  0.00  0.00    +0.000 C 
ENDBRANCH  32  33
ENDBRANCH  24  27
ENDBRANCH  20  21
ENDBRANCH  19  20
ENDBRANCH  18  19
ENDBRANCH   1  18
TORSDOF 11
ENDMDL
