MODEL 1
REMARK VINA RESULT:      -7.9      0.000      0.000
REMARK  Name = 
REMARK  4 active torsions:
REMARK  status: ('A' for Active; 'I' for Inactive)
REMARK    1  A    between atoms: O_1  and  C_2
REMARK    2  A    between atoms: C_5  and  C_6
REMARK    3  A    between atoms: C_6  and  C_7
REMARK    4  A    between atoms: C_12  and  C_13
REMARK                            x       y       z     vdW  Elec       q    Type
REMARK                         _______ _______ _______ _____ _____    ______ ____
ROOT
ATOM      1  C   UNL     1       2.521   5.882  18.745  0.00  0.00    +0.000 A 
ATOM      2  C   UNL     1       2.490   7.291  18.946  0.00  0.00    +0.000 A 
ATOM      3  C   UNL     1       1.895   7.880  20.055  0.00  0.00    +0.000 A 
ATOM      4  C   UNL     1       1.298   7.073  21.000  0.00  0.00    +0.000 A 
ATOM      5  C   UNL     1       1.332   5.688  20.840  0.00  0.00    +0.000 A 
ATOM      6  C   UNL     1       1.966   5.035  19.740  0.00  0.00    +0.000 A 
ENDROOT
BRANCH   6   7
ATOM      7  C   UNL     1       1.861   3.495  19.827  0.00  0.00    +0.000 C 
ATOM      8  C   UNL     1       3.078   2.839  20.548  0.00  0.00    +0.000 C 
ATOM      9  C   UNL     1       4.243   2.583  19.603  0.00  0.00    +0.000 C 
ATOM     10  N   UNL     1       3.859   1.700  18.506  0.00  0.00    +0.000 NA
ATOM     11  C   UNL     1       2.713   2.224  17.769  0.00  0.00    +0.000 C 
ATOM     12  C   UNL     1       1.514   2.600  18.631  0.00  0.00    +0.000 C 
ATOM     13  H   UNL     1       3.622   0.779  18.881  0.00  0.00    +0.000 HD
ENDBRANCH   6   7
BRANCH   1  14
ATOM     14  C   UNL     1       3.169   5.492  17.423  0.00  0.00    +0.000 C 
BRANCH  14  18
ATOM     15  C   UNL     1       7.338   4.548  17.560  0.00  0.00    +0.000 A 
ATOM     16  C   UNL     1       6.813   5.369  18.551  0.00  0.00    +0.000 A 
ATOM     17  C   UNL     1       5.497   5.819  18.445  0.00  0.00    +0.000 A 
ATOM     18  C   UNL     1       4.685   5.394  17.381  0.00  0.00    +0.000 A 
ATOM     19  C   UNL     1       5.281   4.678  16.323  0.00  0.00    +0.000 A 
ATOM     20  C   UNL     1       6.607   4.254  16.420  0.00  0.00    +0.000 A 
BRANCH  15  21
ATOM     21  O   UNL     1       8.560   3.965  17.714  0.00  0.00    +0.000 OA
ATOM     22  H   UNL     1       8.422   3.003  17.701  0.00  0.00    +0.000 HD
ENDBRANCH  15  21
ENDBRANCH  14  18
ENDBRANCH   1  14
TORSDOF 4
ENDMDL
MODEL 2
REMARK VINA RESULT:      -7.7      1.226      1.536
REMARK  Name = 
REMARK  4 active torsions:
REMARK  status: ('A' for Active; 'I' for Inactive)
REMARK    1  A    between atoms: O_1  and  C_2
REMARK    2  A    between atoms: C_5  and  C_6
REMARK    3  A    between atoms: C_6  and  C_7
REMARK    4  A    between atoms: C_12  and  C_13
REMARK                            x       y       z     vdW  Elec       q    Type
REMARK                         _______ _______ _______ _____ _____    ______ ____
ROOT
ATOM      1  C   UNL     1       2.830   5.619  18.848  0.00  0.00    +0.000 A 
ATOM      2  C   UNL     1       2.763   7.026  19.049  0.00  0.00    +0.000 A 
ATOM      3  C   UNL     1       1.959   7.611  20.020  0.00  0.00    +0.000 A 
ATOM      4  C   UNL     1       1.182   6.800  20.820  0.00  0.00    +0.000 A 
ATOM      5  C   UNL     1       1.244   5.416  20.660  0.00  0.00    +0.000 A 
ATOM      6  C   UNL     1       2.084   4.767  19.706  0.00  0.00    +0.000 A 
ENDROOT
BRANCH   6   7
ATOM      7  C   UNL     1       1.960   3.228  19.758  0.00  0.00    +0.000 C 
ATOM      8  C   UNL     1       3.021   2.560  20.684  0.00  0.00    +0.000 C 
ATOM      9  C   UNL     1       4.339   2.306  19.968  0.00  0.00    +0.000 C 
ATOM     10  N   UNL     1       4.160   1.433  18.811  0.00  0.00    +0.000 NA
ATOM     11  C   UNL     1       3.172   1.969  17.881  0.00  0.00    +0.000 C 
ATOM     12  C   UNL     1       1.835   2.343  18.511  0.00  0.00    +0.000 C 
ATOM     13  H   UNL     1       3.855   0.510  19.128  0.00  0.00    +0.000 HD
ENDBRANCH   6   7
BRANCH   1  14
ATOM     14  C   UNL     1       3.729   5.236  17.680  0.00  0.00    +0.000 C 
BRANCH  14  18
ATOM     15  C   UNL     1       7.637   6.808  18.413  0.00  0.00    +0.000 A 
ATOM     16  C   UNL     1       6.948   7.248  17.290  0.00  0.00    +0.000 A 
ATOM     17  C   UNL     1       5.742   6.639  16.941  0.00  0.00    +0.000 A 
ATOM     18  C   UNL     1       5.194   5.634  17.755  0.00  0.00    +0.000 A 
ATOM     19  C   UNL     1       5.976   5.115  18.805  0.00  0.00    +0.000 A 
ATOM     20  C   UNL     1       7.196   5.708  19.133  0.00  0.00    +0.000 A 
BRANCH  15  21
ATOM     21  O   UNL     1       8.731   7.483  18.869  0.00  0.00    +0.000 OA
ATOM     22  H   UNL     1       9.126   7.936  18.105  0.00  0.00    +0.000 HD
ENDBRANCH  15  21
ENDBRANCH  14  18
ENDBRANCH   1  14
TORSDOF 4
ENDMDL
MODEL 3
REMARK VINA RESULT:      -7.6      3.078      5.796
REMARK  Name = 
REMARK  4 active torsions:
REMARK  status: ('A' for Active; 'I' for Inactive)
REMARK    1  A    between atoms: O_1  and  C_2
REMARK    2  A    between atoms: C_5  and  C_6
REMARK    3  A    between atoms: C_6  and  C_7
REMARK    4  A    between atoms: C_12  and  C_13
REMARK                            x       y       z     vdW  Elec       q    Type
REMARK                         _______ _______ _______ _____ _____    ______ ____
ROOT
ATOM      1  C   UNL     1       2.753   5.188  19.024  0.00  0.00    +0.000 A 
ATOM      2  C   UNL     1       1.675   4.266  18.909  0.00  0.00    +0.000 A 
ATOM      3  C   UNL     1       1.669   3.227  17.985  0.00  0.00    +0.000 A 
ATOM      4  C   UNL     1       2.743   3.083  17.134  0.00  0.00    +0.000 A 
ATOM      5  C   UNL     1       3.824   3.960  17.240  0.00  0.00    +0.000 A 
ATOM      6  C   UNL     1       3.896   5.015  18.198  0.00  0.00    +0.000 A 
ENDROOT
BRANCH   6   7
ATOM      7  C   UNL     1       5.212   5.818  18.096  0.00  0.00    +0.000 C 
ATOM      8  C   UNL     1       5.289   6.705  16.816  0.00  0.00    +0.000 C 
ATOM      9  C   UNL     1       5.808   5.938  15.609  0.00  0.00    +0.000 C 
ATOM     10  N   UNL     1       7.146   5.402  15.849  0.00  0.00    +0.000 NA
ATOM     11  C   UNL     1       7.181   4.560  17.040  0.00  0.00    +0.000 C 
ATOM     12  C   UNL     1       6.601   5.199  18.296  0.00  0.00    +0.000 C 
ATOM     13  H   UNL     1       7.803   6.176  15.967  0.00  0.00    +0.000 HD
ENDBRANCH   6   7
BRANCH   1  14
ATOM     14  C   UNL     1       2.490   6.271  20.062  0.00  0.00    +0.000 C 
BRANCH  14  18
ATOM     15  C   UNL     1       0.720   9.863  18.564  0.00  0.00    +0.000 A 
ATOM     16  C   UNL     1       1.526   9.119  17.711  0.00  0.00    +0.000 A 
ATOM     17  C   UNL     1       2.239   8.031  18.216  0.00  0.00    +0.000 A 
ATOM     18  C   UNL     1       2.095   7.650  19.560  0.00  0.00    +0.000 A 
ATOM     19  C   UNL     1       1.383   8.500  20.429  0.00  0.00    +0.000 A 
ATOM     20  C   UNL     1       0.693   9.604  19.926  0.00  0.00    +0.000 A 
BRANCH  15  21
ATOM     21  O   UNL     1      -0.110  10.828  18.073  0.00  0.00    +0.000 OA
ATOM     22  H   UNL     1       0.311  11.686  18.254  0.00  0.00    +0.000 HD
ENDBRANCH  15  21
ENDBRANCH  14  18
ENDBRANCH   1  14
TORSDOF 4
ENDMDL
MODEL 4
REMARK VINA RESULT:      -7.6      2.917      5.595
REMARK  Name = 
REMARK  4 active torsions:
REMARK  status: ('A' for Active; 'I' for Inactive)
REMARK    1  A    between atoms: O_1  and  C_2
REMARK    2  A    between atoms: C_5  and  C_6
REMARK    3  A    between atoms: C_6  and  C_7
REMARK    4  A    between atoms: C_12  and  C_13
REMARK                            x       y       z     vdW  Elec       q    Type
REMARK                         _______ _______ _______ _____ _____    ______ ____
ROOT
ATOM      1  C   UNL     1       2.938   5.177  18.860  0.00  0.00    +0.000 A 
ATOM      2  C   UNL     1       1.905   4.248  19.169  0.00  0.00    +0.000 A 
ATOM      3  C   UNL     1       1.679   3.097  18.423  0.00  0.00    +0.000 A 
ATOM      4  C   UNL     1       2.479   2.842  17.330  0.00  0.00    +0.000 A 
ATOM      5  C   UNL     1       3.514   3.725  17.016  0.00  0.00    +0.000 A 
ATOM      6  C   UNL     1       3.810   4.896  17.775  0.00  0.00    +0.000 A 
ENDROOT
BRANCH   6   7
ATOM      7  C   UNL     1       5.016   5.679  17.207  0.00  0.00    +0.000 C 
ATOM      8  C   UNL     1       5.440   5.202  15.785  0.00  0.00    +0.000 C 
ATOM      9  C   UNL     1       6.389   4.014  15.830  0.00  0.00    +0.000 C 
ATOM     10  N   UNL     1       7.611   4.332  16.564  0.00  0.00    +0.000 NA
ATOM     11  C   UNL     1       7.320   4.801  17.915  0.00  0.00    +0.000 C 
ATOM     12  C   UNL     1       6.307   5.938  17.995  0.00  0.00    +0.000 C 
ATOM     13  H   UNL     1       8.127   5.058  16.062  0.00  0.00    +0.000 HD
ENDBRANCH   6   7
BRANCH   1  14
ATOM     14  C   UNL     1       2.934   6.387  19.785  0.00  0.00    +0.000 C 
BRANCH  14  18
ATOM     15  C   UNL     1       1.198  10.144  18.711  0.00  0.00    +0.000 A 
ATOM     16  C   UNL     1       0.940   9.635  19.978  0.00  0.00    +0.000 A 
ATOM     17  C   UNL     1       1.362   8.344  20.299  0.00  0.00    +0.000 A 
ATOM     18  C   UNL     1       2.100   7.589  19.373  0.00  0.00    +0.000 A 
ATOM     19  C   UNL     1       2.227   8.072  18.056  0.00  0.00    +0.000 A 
ATOM     20  C   UNL     1       1.778   9.353  17.731  0.00  0.00    +0.000 A 
BRANCH  15  21
ATOM     21  O   UNL     1       0.942  11.451  18.420  0.00  0.00    +0.000 OA
ATOM     22  H   UNL     1       1.633  11.748  17.803  0.00  0.00    +0.000 HD
ENDBRANCH  15  21
ENDBRANCH  14  18
ENDBRANCH   1  14
TORSDOF 4
ENDMDL
MODEL 5
REMARK VINA RESULT:      -7.5      2.987      5.591
REMARK  Name = 
REMARK  4 active torsions:
REMARK  status: ('A' for Active; 'I' for Inactive)
REMARK    1  A    between atoms: O_1  and  C_2
REMARK    2  A    between atoms: C_5  and  C_6
REMARK    3  A    between atoms: C_6  and  C_7
REMARK    4  A    between atoms: C_12  and  C_13
REMARK                            x       y       z     vdW  Elec       q    Type
REMARK                         _______ _______ _______ _____ _____    ______ ____
ROOT
ATOM      1  C   UNL     1       3.256   4.922  18.628  0.00  0.00    +0.000 A 
ATOM      2  C   UNL     1       2.373   4.121  19.405  0.00  0.00    +0.000 A 
ATOM      3  C   UNL     1       1.936   2.867  18.995  0.00  0.00    +0.000 A 
ATOM      4  C   UNL     1       2.363   2.376  17.780  0.00  0.00    +0.000 A 
ATOM      5  C   UNL     1       3.246   3.130  17.007  0.00  0.00    +0.000 A 
ATOM      6  C   UNL     1       3.755   4.403  17.403  0.00  0.00    +0.000 A 
ENDROOT
BRANCH   6   7
ATOM      7  C   UNL     1       4.723   5.003  16.360  0.00  0.00    +0.000 C 
ATOM      8  C   UNL     1       6.031   4.172  16.190  0.00  0.00    +0.000 C 
ATOM      9  C   UNL     1       7.095   4.548  17.211  0.00  0.00    +0.000 C 
ATOM     10  N   UNL     1       7.459   5.959  17.110  0.00  0.00    +0.000 NA
ATOM     11  C   UNL     1       6.293   6.827  17.247  0.00  0.00    +0.000 C 
ATOM     12  C   UNL     1       5.127   6.483  16.329  0.00  0.00    +0.000 C 
ATOM     13  H   UNL     1       7.898   6.131  16.204  0.00  0.00    +0.000 HD
ENDBRANCH   6   7
BRANCH   1  14
ATOM     14  C   UNL     1       3.530   6.279  19.263  0.00  0.00    +0.000 C 
BRANCH  14  18
ATOM     15  C   UNL     1       0.977   9.706  19.120  0.00  0.00    +0.000 A 
ATOM     16  C   UNL     1       1.053   8.988  20.307  0.00  0.00    +0.000 A 
ATOM     17  C   UNL     1       1.753   7.781  20.336  0.00  0.00    +0.000 A 
ATOM     18  C   UNL     1       2.432   7.327  19.194  0.00  0.00    +0.000 A 
ATOM     19  C   UNL     1       2.224   8.000  17.974  0.00  0.00    +0.000 A 
ATOM     20  C   UNL     1       1.499   9.193  17.943  0.00  0.00    +0.000 A 
BRANCH  15  21
ATOM     21  O   UNL     1       0.440  10.959  19.097  0.00  0.00    +0.000 OA
ATOM     22  H   UNL     1       0.315  11.200  18.163  0.00  0.00    +0.000 HD
ENDBRANCH  15  21
ENDBRANCH  14  18
ENDBRANCH   1  14
TORSDOF 4
ENDMDL
MODEL 6
REMARK VINA RESULT:      -7.5      3.021      5.607
REMARK  Name = 
REMARK  4 active torsions:
REMARK  status: ('A' for Active; 'I' for Inactive)
REMARK    1  A    between atoms: O_1  and  C_2
REMARK    2  A    between atoms: C_5  and  C_6
REMARK    3  A    between atoms: C_6  and  C_7
REMARK    4  A    between atoms: C_12  and  C_13
REMARK                            x       y       z     vdW  Elec       q    Type
REMARK                         _______ _______ _______ _____ _____    ______ ____
ROOT
ATOM      1  C   UNL     1       2.934   5.114  18.980  0.00  0.00    +0.000 A 
ATOM      2  C   UNL     1       1.736   4.349  19.036  0.00  0.00    +0.000 A 
ATOM      3  C   UNL     1       1.521   3.228  18.244  0.00  0.00    +0.000 A 
ATOM      4  C   UNL     1       2.502   2.840  17.356  0.00  0.00    +0.000 A 
ATOM      5  C   UNL     1       3.696   3.559  17.296  0.00  0.00    +0.000 A 
ATOM      6  C   UNL     1       3.979   4.691  18.117  0.00  0.00    +0.000 A 
ENDROOT
BRANCH   6   7
ATOM      7  C   UNL     1       5.381   5.282  17.846  0.00  0.00    +0.000 C 
ATOM      8  C   UNL     1       5.338   6.614  17.038  0.00  0.00    +0.000 C 
ATOM      9  C   UNL     1       5.282   6.381  15.536  0.00  0.00    +0.000 C 
ATOM     10  N   UNL     1       6.441   5.625  15.067  0.00  0.00    +0.000 NA
ATOM     11  C   UNL     1       6.577   4.356  15.775  0.00  0.00    +0.000 C 
ATOM     12  C   UNL     1       6.556   4.463  17.295  0.00  0.00    +0.000 C 
ATOM     13  H   UNL     1       7.287   6.180  15.212  0.00  0.00    +0.000 HD
ENDBRANCH   6   7
BRANCH   1  14
ATOM     14  C   UNL     1       2.897   6.331  19.896  0.00  0.00    +0.000 C 
BRANCH  14  18
ATOM     15  C   UNL     1       1.184  10.059  18.692  0.00  0.00    +0.000 A 
ATOM     16  C   UNL     1       0.959   9.618  19.990  0.00  0.00    +0.000 A 
ATOM     17  C   UNL     1       1.372   8.338  20.361  0.00  0.00    +0.000 A 
ATOM     18  C   UNL     1       2.068   7.525  19.452  0.00  0.00    +0.000 A 
ATOM     19  C   UNL     1       2.159   7.941  18.109  0.00  0.00    +0.000 A 
ATOM     20  C   UNL     1       1.719   9.212  17.734  0.00  0.00    +0.000 A 
BRANCH  15  21
ATOM     21  O   UNL     1       0.938  11.355  18.344  0.00  0.00    +0.000 OA
ATOM     22  H   UNL     1       0.154  11.353  17.770  0.00  0.00    +0.000 HD
ENDBRANCH  15  21
ENDBRANCH  14  18
ENDBRANCH   1  14
TORSDOF 4
ENDMDL
MODEL 7
REMARK VINA RESULT:      -7.5      1.144      1.728
REMARK  Name = 
REMARK  4 active torsions:
REMARK  status: ('A' for Active; 'I' for Inactive)
REMARK    1  A    between atoms: O_1  and  C_2
REMARK    2  A    between atoms: C_5  and  C_6
REMARK    3  A    between atoms: C_6  and  C_7
REMARK    4  A    between atoms: C_12  and  C_13
REMARK                            x       y       z     vdW  Elec       q    Type
REMARK                         _______ _______ _______ _____ _____    ______ ____
ROOT
ATOM      1  C   UNL     1       2.879   6.996  18.372  0.00  0.00    +0.000 A 
ATOM      2  C   UNL     1       2.330   8.215  18.860  0.00  0.00    +0.000 A 
ATOM      3  C   UNL     1       1.606   8.294  20.044  0.00  0.00    +0.000 A 
ATOM      4  C   UNL     1       1.397   7.146  20.777  0.00  0.00    +0.000 A 
ATOM      5  C   UNL     1       1.942   5.940  20.333  0.00  0.00    +0.000 A 
ATOM      6  C   UNL     1       2.726   5.816  19.147  0.00  0.00    +0.000 A 
ENDROOT
BRANCH   6   7
ATOM      7  C   UNL     1       3.210   4.368  18.908  0.00  0.00    +0.000 C 
ATOM      8  C   UNL     1       2.339   3.596  17.871  0.00  0.00    +0.000 C 
ATOM      9  C   UNL     1       1.117   2.950  18.506  0.00  0.00    +0.000 C 
ATOM     10  N   UNL     1       1.495   2.002  19.551  0.00  0.00    +0.000 NA
ATOM     11  C   UNL     1       2.327   2.630  20.572  0.00  0.00    +0.000 C 
ATOM     12  C   UNL     1       3.538   3.385  20.038  0.00  0.00    +0.000 C 
ATOM     13  H   UNL     1       2.010   1.225  19.132  0.00  0.00    +0.000 HD
ENDBRANCH   6   7
BRANCH   1  14
ATOM     14  C   UNL     1       3.568   7.162  17.024  0.00  0.00    +0.000 C 
BRANCH  14  18
ATOM     15  C   UNL     1       7.218   4.934  17.046  0.00  0.00    +0.000 A 
ATOM     16  C   UNL     1       7.193   6.167  17.685  0.00  0.00    +0.000 A 
ATOM     17  C   UNL     1       6.068   6.983  17.560  0.00  0.00    +0.000 A 
ATOM     18  C   UNL     1       4.942   6.535  16.851  0.00  0.00    +0.000 A 
ATOM     19  C   UNL     1       5.046   5.346  16.102  0.00  0.00    +0.000 A 
ATOM     20  C   UNL     1       6.185   4.547  16.206  0.00  0.00    +0.000 A 
BRANCH  15  21
ATOM     21  O   UNL     1       8.230   4.050  17.276  0.00  0.00    +0.000 OA
ATOM     22  H   UNL     1       8.206   3.828  18.222  0.00  0.00    +0.000 HD
ENDBRANCH  15  21
ENDBRANCH  14  18
ENDBRANCH   1  14
TORSDOF 4
ENDMDL
MODEL 8
REMARK VINA RESULT:      -7.4      2.891      5.146
REMARK  Name = 
REMARK  4 active torsions:
REMARK  status: ('A' for Active; 'I' for Inactive)
REMARK    1  A    between atoms: O_1  and  C_2
REMARK    2  A    between atoms: C_5  and  C_6
REMARK    3  A    between atoms: C_6  and  C_7
REMARK    4  A    between atoms: C_12  and  C_13
REMARK                            x       y       z     vdW  Elec       q    Type
REMARK                         _______ _______ _______ _____ _____    ______ ____
ROOT
ATOM      1  C   UNL     1       3.918   6.052  18.066  0.00  0.00    +0.000 A 
ATOM      2  C   UNL     1       4.928   6.755  17.352  0.00  0.00    +0.000 A 
ATOM      3  C   UNL     1       6.279   6.452  17.463  0.00  0.00    +0.000 A 
ATOM      4  C   UNL     1       6.668   5.434  18.308  0.00  0.00    +0.000 A 
ATOM      5  C   UNL     1       5.697   4.713  19.004  0.00  0.00    +0.000 A 
ATOM      6  C   UNL     1       4.296   4.959  18.892  0.00  0.00    +0.000 A 
ENDROOT
BRANCH   6   7
ATOM      7  C   UNL     1       3.455   4.002  19.765  0.00  0.00    +0.000 C 
ATOM      8  C   UNL     1       3.937   2.521  19.688  0.00  0.00    +0.000 C 
ATOM      9  C   UNL     1       3.334   1.776  18.507  0.00  0.00    +0.000 C 
ATOM     10  N   UNL     1       1.875   1.756  18.575  0.00  0.00    +0.000 NA
ATOM     11  C   UNL     1       1.322   3.104  18.661  0.00  0.00    +0.000 C 
ATOM     12  C   UNL     1       1.921   3.974  19.759  0.00  0.00    +0.000 C 
ATOM     13  H   UNL     1       1.582   1.222  19.396  0.00  0.00    +0.000 HD
ENDBRANCH   6   7
BRANCH   1  14
ATOM     14  C   UNL     1       2.525   6.619  17.825  0.00  0.00    +0.000 C 
BRANCH  14  18
ATOM     15  C   UNL     1       0.709   9.836  19.978  0.00  0.00    +0.000 A 
ATOM     16  C   UNL     1       1.099  10.058  18.663  0.00  0.00    +0.000 A 
ATOM     17  C   UNL     1       1.832   9.080  17.989  0.00  0.00    +0.000 A 
ATOM     18  C   UNL     1       2.119   7.854  18.610  0.00  0.00    +0.000 A 
ATOM     19  C   UNL     1       1.833   7.711  19.983  0.00  0.00    +0.000 A 
ATOM     20  C   UNL     1       1.125   8.704  20.661  0.00  0.00    +0.000 A 
BRANCH  15  21
ATOM     21  O   UNL     1      -0.139  10.697  20.608  0.00  0.00    +0.000 OA
ATOM     22  H   UNL     1      -0.877  10.869  19.998  0.00  0.00    +0.000 HD
ENDBRANCH  15  21
ENDBRANCH  14  18
ENDBRANCH   1  14
TORSDOF 4
ENDMDL
MODEL 9
REMARK VINA RESULT:      -7.4      1.220      1.899
REMARK  Name = 
REMARK  4 active torsions:
REMARK  status: ('A' for Active; 'I' for Inactive)
REMARK    1  A    between atoms: O_1  and  C_2
REMARK    2  A    between atoms: C_5  and  C_6
REMARK    3  A    between atoms: C_6  and  C_7
REMARK    4  A    between atoms: C_12  and  C_13
REMARK                            x       y       z     vdW  Elec       q    Type
REMARK                         _______ _______ _______ _____ _____    ______ ____
ROOT
ATOM      1  C   UNL     1       2.886   6.838  18.654  0.00  0.00    +0.000 A 
ATOM      2  C   UNL     1       2.204   7.712  19.546  0.00  0.00    +0.000 A 
ATOM      3  C   UNL     1       1.483   7.255  20.643  0.00  0.00    +0.000 A 
ATOM      4  C   UNL     1       1.412   5.898  20.877  0.00  0.00    +0.000 A 
ATOM      5  C   UNL     1       2.088   5.020  20.030  0.00  0.00    +0.000 A 
ATOM      6  C   UNL     1       2.875   5.442  18.917  0.00  0.00    +0.000 A 
ENDROOT
BRANCH   6   7
ATOM      7  C   UNL     1       3.521   4.257  18.165  0.00  0.00    +0.000 C 
ATOM      8  C   UNL     1       2.493   3.423  17.342  0.00  0.00    +0.000 C 
ATOM      9  C   UNL     1       1.807   2.355  18.181  0.00  0.00    +0.000 C 
ATOM     10  N   UNL     1       2.773   1.419  18.750  0.00  0.00    +0.000 NA
ATOM     11  C   UNL     1       3.791   2.108  19.537  0.00  0.00    +0.000 C 
ATOM     12  C   UNL     1       4.485   3.260  18.820  0.00  0.00    +0.000 C 
ATOM     13  H   UNL     1       3.228   0.902  17.995  0.00  0.00    +0.000 HD
ENDBRANCH   6   7
BRANCH   1  14
ATOM     14  C   UNL     1       3.544   7.578  17.497  0.00  0.00    +0.000 C 
BRANCH  14  18
ATOM     15  C   UNL     1       6.972   5.376  16.200  0.00  0.00    +0.000 A 
ATOM     16  C   UNL     1       7.078   6.144  17.353  0.00  0.00    +0.000 A 
ATOM     17  C   UNL     1       6.030   6.992  17.712  0.00  0.00    +0.000 A 
ATOM     18  C   UNL     1       4.849   7.022  16.952  0.00  0.00    +0.000 A 
ATOM     19  C   UNL     1       4.824   6.341  15.719  0.00  0.00    +0.000 A 
ATOM     20  C   UNL     1       5.886   5.515  15.349  0.00  0.00    +0.000 A 
BRANCH  15  21
ATOM     21  O   UNL     1       7.904   4.424  15.909  0.00  0.00    +0.000 OA
ATOM     22  H   UNL     1       7.637   3.611  16.371  0.00  0.00    +0.000 HD
ENDBRANCH  15  21
ENDBRANCH  14  18
ENDBRANCH   1  14
TORSDOF 4
ENDMDL
