MODEL 1
REMARK VINA RESULT:      -7.2      0.000      0.000
REMARK  Name = 
REMARK  9 active torsions:
REMARK  status: ('A' for Active; 'I' for Inactive)
REMARK    1  A    between atoms: C_1  and  O_2
REMARK    2  A    between atoms: O_2  and  C_3
REMARK    3  A    between atoms: C_7  and  O_8
REMARK    4  A    between atoms: O_8  and  C_9
REMARK    5  A    between atoms: C_10  and  O_11
REMARK    6  A    between atoms: O_11  and  C_12
REMARK    7  A    between atoms: N_15  and  C_16
REMARK    8  A    between atoms: C_16  and  C_17
REMARK    9  A    between atoms: C_17  and  N_18
REMARK                            x       y       z     vdW  Elec       q    Type
REMARK                         _______ _______ _______ _____ _____    ______ ____
ROOT
ATOM      1  C   UNL     1       6.146   3.950  14.398  0.00  0.00    +0.000 A 
ATOM      2  C   UNL     1       5.027   3.540  15.127  0.00  0.00    +0.000 A 
ATOM      3  C   UNL     1       4.636   4.173  16.317  0.00  0.00    +0.000 A 
ATOM      4  C   UNL     1       5.380   5.268  16.804  0.00  0.00    +0.000 A 
ATOM      5  C   UNL     1       6.544   5.660  16.099  0.00  0.00    +0.000 A 
ATOM      6  C   UNL     1       6.943   4.992  14.904  0.00  0.00    +0.000 A 
ATOM      7  C   UNL     1       4.837   6.054  17.977  0.00  0.00    +0.000 C 
ATOM      8  C   UNL     1       4.686   5.232  19.273  0.00  0.00    +0.000 C 
ATOM      9  N   UNL     1       3.467   4.408  19.398  0.00  0.00    +0.000 NA
ATOM     10  C   UNL     1       3.480   3.305  18.434  0.00  0.00    +0.000 C 
ATOM     11  C   UNL     1       3.351   3.687  16.954  0.00  0.00    +0.000 C 
ENDROOT
BRANCH   1  13
ATOM     12  C   UNL     1       5.438   3.239  12.239  0.00  0.00    +0.000 C 
ATOM     13  O   UNL     1       6.472   3.335  13.215  0.00  0.00    +0.000 OA
ENDBRANCH   1  13
BRANCH   5  14
ATOM     14  O   UNL     1       7.236   6.820  16.392  0.00  0.00    +0.000 OA
ATOM     15  C   UNL     1       7.707   6.971  17.726  0.00  0.00    +0.000 C 
ENDBRANCH   5  14
BRANCH   6  16
ATOM     16  O   UNL     1       8.101   5.485  14.346  0.00  0.00    +0.000 OA
ATOM     17  C   UNL     1       8.152   5.736  12.952  0.00  0.00    +0.000 C 
ENDBRANCH   6  16
BRANCH   9  18
ATOM     18  C   UNL     1       2.250   5.246  19.373  0.00  0.00    +0.000 C 
BRANCH  18  19
ATOM     19  C   UNL     1       2.111   6.290  20.507  0.00  0.00    +0.000 C 
BRANCH  19  20
ATOM     20  N   UNL     1       2.075   7.693  20.025  0.00  0.00    +0.000 NA
ATOM     21  C   UNL     1       1.948   7.773  18.557  0.00  0.00    +0.000 C 
ATOM     22  C   UNL     1       1.887   9.219  18.064  0.00  0.00    +0.000 C 
ATOM     23  C   UNL     1       0.766   9.991  18.742  0.00  0.00    +0.000 C 
ATOM     24  C   UNL     1       0.885   9.865  20.255  0.00  0.00    +0.000 C 
ATOM     25  C   UNL     1       0.960   8.399  20.681  0.00  0.00    +0.000 C 
ENDBRANCH  19  20
ENDBRANCH  18  19
ENDBRANCH   9  18
TORSDOF 6
ENDMDL
MODEL 2
REMARK VINA RESULT:      -7.0      0.279      1.022
REMARK  Name = 
REMARK  9 active torsions:
REMARK  status: ('A' for Active; 'I' for Inactive)
REMARK    1  A    between atoms: C_1  and  O_2
REMARK    2  A    between atoms: O_2  and  C_3
REMARK    3  A    between atoms: C_7  and  O_8
REMARK    4  A    between atoms: O_8  and  C_9
REMARK    5  A    between atoms: C_10  and  O_11
REMARK    6  A    between atoms: O_11  and  C_12
REMARK    7  A    between atoms: N_15  and  C_16
REMARK    8  A    between atoms: C_16  and  C_17
REMARK    9  A    between atoms: C_17  and  N_18
REMARK                            x       y       z     vdW  Elec       q    Type
REMARK                         _______ _______ _______ _____ _____    ______ ____
ROOT
ATOM      1  C   UNL     1       6.132   4.050  14.463  0.00  0.00    +0.000 A 
ATOM      2  C   UNL     1       5.033   3.600  15.198  0.00  0.00    +0.000 A 
ATOM      3  C   UNL     1       4.630   4.216  16.393  0.00  0.00    +0.000 A 
ATOM      4  C   UNL     1       5.342   5.333  16.879  0.00  0.00    +0.000 A 
ATOM      5  C   UNL     1       6.487   5.765  16.168  0.00  0.00    +0.000 A 
ATOM      6  C   UNL     1       6.898   5.116  14.967  0.00  0.00    +0.000 A 
ATOM      7  C   UNL     1       4.781   6.096  18.059  0.00  0.00    +0.000 C 
ATOM      8  C   UNL     1       4.667   5.266  19.354  0.00  0.00    +0.000 C 
ATOM      9  N   UNL     1       3.477   4.402  19.484  0.00  0.00    +0.000 NA
ATOM     10  C   UNL     1       3.518   3.303  18.515  0.00  0.00    +0.000 C 
ATOM     11  C   UNL     1       3.366   3.685  17.038  0.00  0.00    +0.000 C 
ENDROOT
BRANCH   1  13
ATOM     12  C   UNL     1       5.429   3.310  12.313  0.00  0.00    +0.000 C 
ATOM     13  O   UNL     1       6.470   3.450  13.275  0.00  0.00    +0.000 OA
ENDBRANCH   1  13
BRANCH   5  14
ATOM     14  O   UNL     1       7.142   6.946  16.460  0.00  0.00    +0.000 OA
ATOM     15  C   UNL     1       7.755   7.045  17.741  0.00  0.00    +0.000 C 
ENDBRANCH   5  14
BRANCH   6  16
ATOM     16  O   UNL     1       8.036   5.649  14.403  0.00  0.00    +0.000 OA
ATOM     17  C   UNL     1       8.172   5.668  12.992  0.00  0.00    +0.000 C 
ENDBRANCH   6  16
BRANCH   9  18
ATOM     18  C   UNL     1       2.233   5.199  19.470  0.00  0.00    +0.000 C 
BRANCH  18  19
ATOM     19  C   UNL     1       2.206   6.446  20.388  0.00  0.00    +0.000 C 
BRANCH  19  20
ATOM     20  N   UNL     1       1.430   7.580  19.829  0.00  0.00    +0.000 NA
ATOM     21  C   UNL     1       1.154   8.617  20.842  0.00  0.00    +0.000 C 
ATOM     22  C   UNL     1       0.375   9.797  20.259  0.00  0.00    +0.000 C 
ATOM     23  C   UNL     1       1.090  10.396  19.058  0.00  0.00    +0.000 C 
ATOM     24  C   UNL     1       1.406   9.307  18.040  0.00  0.00    +0.000 C 
ATOM     25  C   UNL     1       2.168   8.152  18.688  0.00  0.00    +0.000 C 
ENDBRANCH  19  20
ENDBRANCH  18  19
ENDBRANCH   9  18
TORSDOF 6
ENDMDL
MODEL 3
REMARK VINA RESULT:      -6.8      3.257      7.718
REMARK  Name = 
REMARK  9 active torsions:
REMARK  status: ('A' for Active; 'I' for Inactive)
REMARK    1  A    between atoms: C_1  and  O_2
REMARK    2  A    between atoms: O_2  and  C_3
REMARK    3  A    between atoms: C_7  and  O_8
REMARK    4  A    between atoms: O_8  and  C_9
REMARK    5  A    between atoms: C_10  and  O_11
REMARK    6  A    between atoms: O_11  and  C_12
REMARK    7  A    between atoms: N_15  and  C_16
REMARK    8  A    between atoms: C_16  and  C_17
REMARK    9  A    between atoms: C_17  and  N_18
REMARK                            x       y       z     vdW  Elec       q    Type
REMARK                         _______ _______ _______ _____ _____    ______ ____
ROOT
ATOM      1  C   UNL     1       2.115   5.744  19.803  0.00  0.00    +0.000 A 
ATOM      2  C   UNL     1       3.056   6.472  19.072  0.00  0.00    +0.000 A 
ATOM      3  C   UNL     1       3.881   5.874  18.108  0.00  0.00    +0.000 A 
ATOM      4  C   UNL     1       3.762   4.491  17.846  0.00  0.00    +0.000 A 
ATOM      5  C   UNL     1       2.846   3.735  18.616  0.00  0.00    +0.000 A 
ATOM      6  C   UNL     1       2.031   4.353  19.610  0.00  0.00    +0.000 A 
ATOM      7  C   UNL     1       4.520   3.905  16.676  0.00  0.00    +0.000 C 
ATOM      8  C   UNL     1       6.053   4.027  16.789  0.00  0.00    +0.000 C 
ATOM      9  N   UNL     1       6.647   5.318  16.387  0.00  0.00    +0.000 NA
ATOM     10  C   UNL     1       6.267   6.382  17.321  0.00  0.00    +0.000 C 
ATOM     11  C   UNL     1       4.791   6.797  17.324  0.00  0.00    +0.000 C 
ENDROOT
BRANCH   1  13
ATOM     12  C   UNL     1       1.522   7.762  20.917  0.00  0.00    +0.000 C 
ATOM     13  O   UNL     1       1.294   6.371  20.708  0.00  0.00    +0.000 OA
ENDBRANCH   1  13
BRANCH   5  14
ATOM     14  O   UNL     1       2.531   2.423  18.320  0.00  0.00    +0.000 OA
ATOM     15  C   UNL     1       3.502   1.435  18.649  0.00  0.00    +0.000 C 
ENDBRANCH   5  14
BRANCH   6  16
ATOM     16  O   UNL     1       1.202   3.479  20.277  0.00  0.00    +0.000 OA
ATOM     17  C   UNL     1       1.598   2.968  21.539  0.00  0.00    +0.000 C 
ENDBRANCH   6  16
BRANCH   9  18
ATOM     18  C   UNL     1       6.377   5.611  14.964  0.00  0.00    +0.000 C 
BRANCH  18  19
ATOM     19  C   UNL     1       7.168   4.775  13.929  0.00  0.00    +0.000 C 
BRANCH  19  20
ATOM     20  N   UNL     1       6.352   3.736  13.254  0.00  0.00    +0.000 NA
ATOM     21  C   UNL     1       5.007   4.227  12.901  0.00  0.00    +0.000 C 
ATOM     22  C   UNL     1       4.176   3.163  12.184  0.00  0.00    +0.000 C 
ATOM     23  C   UNL     1       4.894   2.633  10.952  0.00  0.00    +0.000 C 
ATOM     24  C   UNL     1       6.296   2.169  11.324  0.00  0.00    +0.000 C 
ATOM     25  C   UNL     1       7.067   3.270  12.052  0.00  0.00    +0.000 C 
ENDBRANCH  19  20
ENDBRANCH  18  19
ENDBRANCH   9  18
TORSDOF 6
ENDMDL
MODEL 4
REMARK VINA RESULT:      -6.7      3.294      7.731
REMARK  Name = 
REMARK  9 active torsions:
REMARK  status: ('A' for Active; 'I' for Inactive)
REMARK    1  A    between atoms: C_1  and  O_2
REMARK    2  A    between atoms: O_2  and  C_3
REMARK    3  A    between atoms: C_7  and  O_8
REMARK    4  A    between atoms: O_8  and  C_9
REMARK    5  A    between atoms: C_10  and  O_11
REMARK    6  A    between atoms: O_11  and  C_12
REMARK    7  A    between atoms: N_15  and  C_16
REMARK    8  A    between atoms: C_16  and  C_17
REMARK    9  A    between atoms: C_17  and  N_18
REMARK                            x       y       z     vdW  Elec       q    Type
REMARK                         _______ _______ _______ _____ _____    ______ ____
ROOT
ATOM      1  C   UNL     1       2.477   5.871  19.910  0.00  0.00    +0.000 A 
ATOM      2  C   UNL     1       3.123   6.578  18.893  0.00  0.00    +0.000 A 
ATOM      3  C   UNL     1       4.016   5.962  18.004  0.00  0.00    +0.000 A 
ATOM      4  C   UNL     1       4.276   4.579  18.119  0.00  0.00    +0.000 A 
ATOM      5  C   UNL     1       3.665   3.864  19.177  0.00  0.00    +0.000 A 
ATOM      6  C   UNL     1       2.777   4.508  20.088  0.00  0.00    +0.000 A 
ATOM      7  C   UNL     1       5.088   3.899  17.039  0.00  0.00    +0.000 C 
ATOM      8  C   UNL     1       6.528   4.433  16.899  0.00  0.00    +0.000 C 
ATOM      9  N   UNL     1       6.704   5.665  16.105  0.00  0.00    +0.000 NA
ATOM     10  C   UNL     1       6.103   6.816  16.784  0.00  0.00    +0.000 C 
ATOM     11  C   UNL     1       4.573   6.826  16.891  0.00  0.00    +0.000 C 
ENDROOT
BRANCH   1  13
ATOM     12  C   UNL     1       1.515   7.919  20.648  0.00  0.00    +0.000 C 
ATOM     13  O   UNL     1       1.575   6.498  20.734  0.00  0.00    +0.000 OA
ENDBRANCH   1  13
BRANCH   5  14
ATOM     14  O   UNL     1       3.715   2.486  19.269  0.00  0.00    +0.000 OA
ATOM     15  C   UNL     1       4.712   1.931  20.119  0.00  0.00    +0.000 C 
ENDBRANCH   5  14
BRANCH   6  16
ATOM     16  O   UNL     1       2.276   3.678  21.065  0.00  0.00    +0.000 OA
ATOM     17  C   UNL     1       0.989   3.105  20.901  0.00  0.00    +0.000 C 
ENDBRANCH   6  16
BRANCH   9  18
ATOM     18  C   UNL     1       6.267   5.467  14.707  0.00  0.00    +0.000 C 
BRANCH  18  19
ATOM     19  C   UNL     1       7.263   4.737  13.773  0.00  0.00    +0.000 C 
BRANCH  19  20
ATOM     20  N   UNL     1       6.619   4.091  12.603  0.00  0.00    +0.000 NA
ATOM     21  C   UNL     1       7.376   2.916  12.130  0.00  0.00    +0.000 C 
ATOM     22  C   UNL     1       6.698   2.238  10.939  0.00  0.00    +0.000 C 
ATOM     23  C   UNL     1       5.261   1.858  11.259  0.00  0.00    +0.000 C 
ATOM     24  C   UNL     1       4.504   3.070  11.785  0.00  0.00    +0.000 C 
ATOM     25  C   UNL     1       5.240   3.712  12.961  0.00  0.00    +0.000 C 
ENDBRANCH  19  20
ENDBRANCH  18  19
ENDBRANCH   9  18
TORSDOF 6
ENDMDL
MODEL 5
REMARK VINA RESULT:      -6.7      3.619      7.758
REMARK  Name = 
REMARK  9 active torsions:
REMARK  status: ('A' for Active; 'I' for Inactive)
REMARK    1  A    between atoms: C_1  and  O_2
REMARK    2  A    between atoms: O_2  and  C_3
REMARK    3  A    between atoms: C_7  and  O_8
REMARK    4  A    between atoms: O_8  and  C_9
REMARK    5  A    between atoms: C_10  and  O_11
REMARK    6  A    between atoms: O_11  and  C_12
REMARK    7  A    between atoms: N_15  and  C_16
REMARK    8  A    between atoms: C_16  and  C_17
REMARK    9  A    between atoms: C_17  and  N_18
REMARK                            x       y       z     vdW  Elec       q    Type
REMARK                         _______ _______ _______ _____ _____    ______ ____
ROOT
ATOM      1  C   UNL     1       0.717   9.794  21.467  0.00  0.00    +0.000 A 
ATOM      2  C   UNL     1       1.180   8.495  21.684  0.00  0.00    +0.000 A 
ATOM      3  C   UNL     1       1.705   7.705  20.650  0.00  0.00    +0.000 A 
ATOM      4  C   UNL     1       1.785   8.228  19.342  0.00  0.00    +0.000 A 
ATOM      5  C   UNL     1       1.273   9.526  19.102  0.00  0.00    +0.000 A 
ATOM      6  C   UNL     1       0.721  10.308  20.158  0.00  0.00    +0.000 A 
ATOM      7  C   UNL     1       2.525   7.436  18.286  0.00  0.00    +0.000 C 
ATOM      8  C   UNL     1       1.913   6.053  17.986  0.00  0.00    +0.000 C 
ATOM      9  N   UNL     1       2.272   4.956  18.906  0.00  0.00    +0.000 NA
ATOM     10  C   UNL     1       1.692   5.175  20.234  0.00  0.00    +0.000 C 
ATOM     11  C   UNL     1       2.256   6.349  21.043  0.00  0.00    +0.000 C 
ENDROOT
BRANCH   1  13
ATOM     12  C   UNL     1      -0.902  10.066  23.190  0.00  0.00    +0.000 C 
ATOM     13  O   UNL     1       0.251  10.554  22.511  0.00  0.00    +0.000 OA
ENDBRANCH   1  13
BRANCH   5  14
ATOM     14  O   UNL     1       1.463  10.190  17.905  0.00  0.00    +0.000 OA
ATOM     15  C   UNL     1       2.476  11.190  17.874  0.00  0.00    +0.000 C 
ENDBRANCH   5  14
BRANCH   6  16
ATOM     16  O   UNL     1       0.257  11.541  19.758  0.00  0.00    +0.000 OA
ATOM     17  C   UNL     1      -1.140  11.767  19.673  0.00  0.00    +0.000 C 
ENDBRANCH   6  16
BRANCH   9  18
ATOM     18  C   UNL     1       3.728   4.703  18.895  0.00  0.00    +0.000 C 
BRANCH  18  19
ATOM     19  C   UNL     1       4.426   4.768  17.515  0.00  0.00    +0.000 C 
BRANCH  19  20
ATOM     20  N   UNL     1       5.833   5.233  17.579  0.00  0.00    +0.000 NA
ATOM     21  C   UNL     1       6.020   6.534  16.909  0.00  0.00    +0.000 C 
ATOM     22  C   UNL     1       7.466   7.023  16.997  0.00  0.00    +0.000 C 
ATOM     23  C   UNL     1       7.944   7.088  18.439  0.00  0.00    +0.000 C 
ATOM     24  C   UNL     1       7.707   5.752  19.130  0.00  0.00    +0.000 C 
ATOM     25  C   UNL     1       6.250   5.311  18.991  0.00  0.00    +0.000 C 
ENDBRANCH  19  20
ENDBRANCH  18  19
ENDBRANCH   9  18
TORSDOF 6
ENDMDL
MODEL 6
REMARK VINA RESULT:      -6.6      5.167      8.487
REMARK  Name = 
REMARK  9 active torsions:
REMARK  status: ('A' for Active; 'I' for Inactive)
REMARK    1  A    between atoms: C_1  and  O_2
REMARK    2  A    between atoms: O_2  and  C_3
REMARK    3  A    between atoms: C_7  and  O_8
REMARK    4  A    between atoms: O_8  and  C_9
REMARK    5  A    between atoms: C_10  and  O_11
REMARK    6  A    between atoms: O_11  and  C_12
REMARK    7  A    between atoms: N_15  and  C_16
REMARK    8  A    between atoms: C_16  and  C_17
REMARK    9  A    between atoms: C_17  and  N_18
REMARK                            x       y       z     vdW  Elec       q    Type
REMARK                         _______ _______ _______ _____ _____    ______ ____
ROOT
ATOM      1  C   UNL     1       0.577  12.121  19.640  0.00  0.00    +0.000 A 
ATOM      2  C   UNL     1       0.884  11.211  18.625  0.00  0.00    +0.000 A 
ATOM      3  C   UNL     1       1.180   9.865  18.890  0.00  0.00    +0.000 A 
ATOM      4  C   UNL     1       1.162   9.395  20.221  0.00  0.00    +0.000 A 
ATOM      5  C   UNL     1       0.901  10.320  21.261  0.00  0.00    +0.000 A 
ATOM      6  C   UNL     1       0.625  11.690  20.977  0.00  0.00    +0.000 A 
ATOM      7  C   UNL     1       1.294   7.908  20.469  0.00  0.00    +0.000 C 
ATOM      8  C   UNL     1       2.627   7.302  19.986  0.00  0.00    +0.000 C 
ATOM      9  N   UNL     1       2.721   6.962  18.553  0.00  0.00    +0.000 NA
ATOM     10  C   UNL     1       2.712   8.172  17.726  0.00  0.00    +0.000 C 
ATOM     11  C   UNL     1       1.402   8.969  17.690  0.00  0.00    +0.000 C 
ENDROOT
BRANCH   1  13
ATOM     12  C   UNL     1       1.331  14.341  19.228  0.00  0.00    +0.000 C 
ATOM     13  O   UNL     1       0.250  13.420  19.338  0.00  0.00    +0.000 OA
ENDBRANCH   1  13
BRANCH   5  14
ATOM     14  O   UNL     1       0.688   9.928  22.569  0.00  0.00    +0.000 OA
ATOM     15  C   UNL     1      -0.593   9.396  22.884  0.00  0.00    +0.000 C 
ENDBRANCH   5  14
BRANCH   6  16
ATOM     16  O   UNL     1       0.404  12.460  22.097  0.00  0.00    +0.000 OA
ATOM     17  C   UNL     1      -0.879  13.025  22.313  0.00  0.00    +0.000 C 
ENDBRANCH   6  16
BRANCH   9  18
ATOM     18  C   UNL     1       1.718   5.943  18.178  0.00  0.00    +0.000 C 
BRANCH  18  19
ATOM     19  C   UNL     1       2.269   4.558  17.762  0.00  0.00    +0.000 C 
BRANCH  19  20
ATOM     20  N   UNL     1       2.260   3.559  18.859  0.00  0.00    +0.000 NA
ATOM     21  C   UNL     1       3.564   3.475  19.545  0.00  0.00    +0.000 C 
ATOM     22  C   UNL     1       3.545   2.462  20.691  0.00  0.00    +0.000 C 
ATOM     23  C   UNL     1       2.434   2.766  21.684  0.00  0.00    +0.000 C 
ATOM     24  C   UNL     1       1.102   2.891  20.956  0.00  0.00    +0.000 C 
ATOM     25  C   UNL     1       1.191   3.903  19.814  0.00  0.00    +0.000 C 
ENDBRANCH  19  20
ENDBRANCH  18  19
ENDBRANCH   9  18
TORSDOF 6
ENDMDL
MODEL 7
REMARK VINA RESULT:      -6.6      3.348      7.650
REMARK  Name = 
REMARK  9 active torsions:
REMARK  status: ('A' for Active; 'I' for Inactive)
REMARK    1  A    between atoms: C_1  and  O_2
REMARK    2  A    between atoms: O_2  and  C_3
REMARK    3  A    between atoms: C_7  and  O_8
REMARK    4  A    between atoms: O_8  and  C_9
REMARK    5  A    between atoms: C_10  and  O_11
REMARK    6  A    between atoms: O_11  and  C_12
REMARK    7  A    between atoms: N_15  and  C_16
REMARK    8  A    between atoms: C_16  and  C_17
REMARK    9  A    between atoms: C_17  and  N_18
REMARK                            x       y       z     vdW  Elec       q    Type
REMARK                         _______ _______ _______ _____ _____    ______ ____
ROOT
ATOM      1  C   UNL     1      -0.045   9.865  20.684  0.00  0.00    +0.000 A 
ATOM      2  C   UNL     1       0.384   8.632  21.180  0.00  0.00    +0.000 A 
ATOM      3  C   UNL     1       1.261   7.802  20.465  0.00  0.00    +0.000 A 
ATOM      4  C   UNL     1       1.742   8.214  19.203  0.00  0.00    +0.000 A 
ATOM      5  C   UNL     1       1.274   9.439  18.670  0.00  0.00    +0.000 A 
ATOM      6  C   UNL     1       0.365  10.262  19.398  0.00  0.00    +0.000 A 
ATOM      7  C   UNL     1       2.829   7.399  18.537  0.00  0.00    +0.000 C 
ATOM      8  C   UNL     1       2.420   5.949  18.209  0.00  0.00    +0.000 C 
ATOM      9  N   UNL     1       2.510   4.969  19.310  0.00  0.00    +0.000 NA
ATOM     10  C   UNL     1       1.513   5.253  20.346  0.00  0.00    +0.000 C 
ATOM     11  C   UNL     1       1.718   6.537  21.160  0.00  0.00    +0.000 C 
ENDROOT
BRANCH   1  13
ATOM     12  C   UNL     1      -0.276  11.837  21.997  0.00  0.00    +0.000 C 
ATOM     13  O   UNL     1      -0.868  10.671  21.431  0.00  0.00    +0.000 OA
ENDBRANCH   1  13
BRANCH   5  14
ATOM     14  O   UNL     1       1.815  10.011  17.534  0.00  0.00    +0.000 OA
ATOM     15  C   UNL     1       2.701  11.109  17.722  0.00  0.00    +0.000 C 
ENDBRANCH   5  14
BRANCH   6  16
ATOM     16  O   UNL     1      -0.001  11.413  18.737  0.00  0.00    +0.000 OA
ATOM     17  C   UNL     1      -1.269  11.481  18.106  0.00  0.00    +0.000 C 
ENDBRANCH   6  16
BRANCH   9  18
ATOM     18  C   UNL     1       3.899   4.839  19.798  0.00  0.00    +0.000 C 
BRANCH  18  19
ATOM     19  C   UNL     1       4.795   3.820  19.054  0.00  0.00    +0.000 C 
BRANCH  19  20
ATOM     20  N   UNL     1       5.982   4.431  18.408  0.00  0.00    +0.000 NA
ATOM     21  C   UNL     1       5.695   4.883  17.033  0.00  0.00    +0.000 C 
ATOM     22  C   UNL     1       6.913   5.535  16.377  0.00  0.00    +0.000 C 
ATOM     23  C   UNL     1       7.452   6.681  17.218  0.00  0.00    +0.000 C 
ATOM     24  C   UNL     1       7.704   6.210  18.644  0.00  0.00    +0.000 C 
ATOM     25  C   UNL     1       6.456   5.554  19.236  0.00  0.00    +0.000 C 
ENDBRANCH  19  20
ENDBRANCH  18  19
ENDBRANCH   9  18
TORSDOF 6
ENDMDL
MODEL 8
REMARK VINA RESULT:      -6.5      3.442      7.568
REMARK  Name = 
REMARK  9 active torsions:
REMARK  status: ('A' for Active; 'I' for Inactive)
REMARK    1  A    between atoms: C_1  and  O_2
REMARK    2  A    between atoms: O_2  and  C_3
REMARK    3  A    between atoms: C_7  and  O_8
REMARK    4  A    between atoms: O_8  and  C_9
REMARK    5  A    between atoms: C_10  and  O_11
REMARK    6  A    between atoms: O_11  and  C_12
REMARK    7  A    between atoms: N_15  and  C_16
REMARK    8  A    between atoms: C_16  and  C_17
REMARK    9  A    between atoms: C_17  and  N_18
REMARK                            x       y       z     vdW  Elec       q    Type
REMARK                         _______ _______ _______ _____ _____    ______ ____
ROOT
ATOM      1  C   UNL     1       1.825   8.521  18.780  0.00  0.00    +0.000 A 
ATOM      2  C   UNL     1       2.790   8.164  17.836  0.00  0.00    +0.000 A 
ATOM      3  C   UNL     1       3.557   6.995  17.955  0.00  0.00    +0.000 A 
ATOM      4  C   UNL     1       3.353   6.133  19.054  0.00  0.00    +0.000 A 
ATOM      5  C   UNL     1       2.411   6.510  20.041  0.00  0.00    +0.000 A 
ATOM      6  C   UNL     1       1.656   7.714  19.920  0.00  0.00    +0.000 A 
ATOM      7  C   UNL     1       4.049   4.790  19.064  0.00  0.00    +0.000 C 
ATOM      8  C   UNL     1       5.588   4.875  19.071  0.00  0.00    +0.000 C 
ATOM      9  N   UNL     1       6.247   5.085  17.767  0.00  0.00    +0.000 NA
ATOM     10  C   UNL     1       5.951   6.420  17.240  0.00  0.00    +0.000 C 
ATOM     11  C   UNL     1       4.501   6.682  16.813  0.00  0.00    +0.000 C 
ENDROOT
BRANCH   1  13
ATOM     12  C   UNL     1       1.768  10.878  18.452  0.00  0.00    +0.000 C 
ATOM     13  O   UNL     1       1.062   9.650  18.608  0.00  0.00    +0.000 OA
ENDBRANCH   1  13
BRANCH   5  14
ATOM     14  O   UNL     1       2.014   5.658  21.054  0.00  0.00    +0.000 OA
ATOM     15  C   UNL     1       1.249   4.519  20.677  0.00  0.00    +0.000 C 
ENDBRANCH   5  14
BRANCH   6  16
ATOM     16  O   UNL     1       0.793   7.942  20.967  0.00  0.00    +0.000 OA
ATOM     17  C   UNL     1       1.099   8.949  21.917  0.00  0.00    +0.000 C 
ENDBRANCH   6  16
BRANCH   9  18
ATOM     18  C   UNL     1       5.963   3.971  16.839  0.00  0.00    +0.000 C 
BRANCH  18  19
ATOM     19  C   UNL     1       5.384   4.359  15.457  0.00  0.00    +0.000 C 
BRANCH  19  20
ATOM     20  N   UNL     1       6.306   4.087  14.326  0.00  0.00    +0.000 NA
ATOM     21  C   UNL     1       5.591   3.600  13.131  0.00  0.00    +0.000 C 
ATOM     22  C   UNL     1       6.541   3.343  11.960  0.00  0.00    +0.000 C 
ATOM     23  C   UNL     1       7.362   4.579  11.628  0.00  0.00    +0.000 C 
ATOM     24  C   UNL     1       8.060   5.094  12.880  0.00  0.00    +0.000 C 
ATOM     25  C   UNL     1       7.061   5.314  14.016  0.00  0.00    +0.000 C 
ENDBRANCH  19  20
ENDBRANCH  18  19
ENDBRANCH   9  18
TORSDOF 6
ENDMDL
MODEL 9
REMARK VINA RESULT:      -6.4      3.380      6.014
REMARK  Name = 
REMARK  9 active torsions:
REMARK  status: ('A' for Active; 'I' for Inactive)
REMARK    1  A    between atoms: C_1  and  O_2
REMARK    2  A    between atoms: O_2  and  C_3
REMARK    3  A    between atoms: C_7  and  O_8
REMARK    4  A    between atoms: O_8  and  C_9
REMARK    5  A    between atoms: C_10  and  O_11
REMARK    6  A    between atoms: O_11  and  C_12
REMARK    7  A    between atoms: N_15  and  C_16
REMARK    8  A    between atoms: C_16  and  C_17
REMARK    9  A    between atoms: C_17  and  N_18
REMARK                            x       y       z     vdW  Elec       q    Type
REMARK                         _______ _______ _______ _____ _____    ______ ____
ROOT
ATOM      1  C   UNL     1       3.672   6.047  17.574  0.00  0.00    +0.000 A 
ATOM      2  C   UNL     1       3.269   7.381  17.489  0.00  0.00    +0.000 A 
ATOM      3  C   UNL     1       2.517   8.001  18.498  0.00  0.00    +0.000 A 
ATOM      4  C   UNL     1       2.153   7.269  19.649  0.00  0.00    +0.000 A 
ATOM      5  C   UNL     1       2.515   5.902  19.722  0.00  0.00    +0.000 A 
ATOM      6  C   UNL     1       3.260   5.279  18.678  0.00  0.00    +0.000 A 
ATOM      7  C   UNL     1       1.511   8.003  20.805  0.00  0.00    +0.000 C 
ATOM      8  C   UNL     1       0.157   8.659  20.465  0.00  0.00    +0.000 C 
ATOM      9  N   UNL     1       0.208   9.975  19.797  0.00  0.00    +0.000 NA
ATOM     10  C   UNL     1       0.746   9.854  18.440  0.00  0.00    +0.000 C 
ATOM     11  C   UNL     1       2.228   9.477  18.321  0.00  0.00    +0.000 C 
ENDROOT
BRANCH   1  13
ATOM     12  C   UNL     1       5.249   6.380  15.822  0.00  0.00    +0.000 C 
ATOM     13  O   UNL     1       4.446   5.486  16.587  0.00  0.00    +0.000 OA
ENDBRANCH   1  13
BRANCH   5  14
ATOM     14  O   UNL     1       2.363   5.153  20.873  0.00  0.00    +0.000 OA
ATOM     15  C   UNL     1       1.304   4.202  20.889  0.00  0.00    +0.000 C 
ENDBRANCH   5  14
BRANCH   6  16
ATOM     16  O   UNL     1       3.521   3.945  18.895  0.00  0.00    +0.000 OA
ATOM     17  C   UNL     1       4.821   3.545  19.296  0.00  0.00    +0.000 C 
ENDBRANCH   6  16
BRANCH   9  18
ATOM     18  C   UNL     1       0.879  10.981  20.647  0.00  0.00    +0.000 C 
BRANCH  18  19
ATOM     19  C   UNL     1       0.096  12.290  20.909  0.00  0.00    +0.000 C 
BRANCH  19  20
ATOM     20  N   UNL     1      -1.286  12.070  21.401  0.00  0.00    +0.000 NA
ATOM     21  C   UNL     1      -1.394  12.261  22.860  0.00  0.00    +0.000 C 
ATOM     22  C   UNL     1      -2.824  12.057  23.362  0.00  0.00    +0.000 C 
ATOM     23  C   UNL     1      -3.804  12.959  22.629  0.00  0.00    +0.000 C 
ATOM     24  C   UNL     1      -3.652  12.782  21.124  0.00  0.00    +0.000 C 
ATOM     25  C   UNL     1      -2.201  12.981  20.689  0.00  0.00    +0.000 C 
ENDBRANCH  19  20
ENDBRANCH  18  19
ENDBRANCH   9  18
TORSDOF 6
ENDMDL
