MODEL 1
REMARK VINA RESULT:      -7.6      0.000      0.000
REMARK  Name = 
REMARK  4 active torsions:
REMARK  status: ('A' for Active; 'I' for Inactive)
REMARK    1  A    between atoms: C_1  and  C_2
REMARK    2  A    between atoms: N_4  and  C_5
REMARK    3  A    between atoms: C_5  and  C_6
REMARK    4  A    between atoms: N_8  and  C_9
REMARK                            x       y       z     vdW  Elec       q    Type
REMARK                         _______ _______ _______ _____ _____    ______ ____
ROOT
ATOM      1  C   UNL     1       6.101   5.049  15.952  0.00  0.00    +0.000 C 
ATOM      2  C   UNL     1       4.771   4.334  16.093  0.00  0.00    +0.000 C 
ATOM      3  N   UNL     1       4.613   4.226  17.511  0.00  0.00    +0.000 N 
ATOM      4  C   UNL     1       5.843   4.418  18.126  0.00  0.00    +0.000 C 
ATOM      5  O   UNL     1       6.142   4.281  19.299  0.00  0.00    +0.000 OA
ATOM      6  O   UNL     1       6.784   4.755  17.180  0.00  0.00    +0.000 OA
ENDROOT
BRANCH   3   7
ATOM      7  C   UNL     1       3.404   3.826  18.141  0.00  0.00    +0.000 A 
ATOM      8  C   UNL     1       2.793   2.599  17.835  0.00  0.00    +0.000 A 
ATOM      9  C   UNL     1       1.607   2.197  18.462  0.00  0.00    +0.000 A 
ATOM     10  C   UNL     1       1.003   3.026  19.398  0.00  0.00    +0.000 A 
ATOM     11  C   UNL     1       1.596   4.244  19.705  0.00  0.00    +0.000 A 
ATOM     12  F   UNL     1       1.011   5.055  20.596  0.00  0.00    +0.000 F 
ATOM     13  C   UNL     1       2.791   4.644  19.099  0.00  0.00    +0.000 A 
ENDBRANCH   3   7
BRANCH   1  14
ATOM     14  C   UNL     1       6.912   4.534  14.760  0.00  0.00    +0.000 C 
BRANCH  14  18
ATOM     15  C   UNL     1       5.548   2.591  11.804  0.00  0.00    +0.000 C 
ATOM     16  C   UNL     1       6.394   3.601  12.530  0.00  0.00    +0.000 C 
ATOM     17  O   UNL     1       7.233   4.298  11.969  0.00  0.00    +0.000 OA
ATOM     18  N   UNL     1       6.148   3.662  13.882  0.00  0.00    +0.000 N 
ATOM     19  H   UNL     1       5.498   3.006  14.299  0.00  0.00    +0.000 HD
ENDBRANCH  14  18
ENDBRANCH   1  14
TORSDOF 3
ENDMDL
MODEL 2
REMARK VINA RESULT:      -7.6      2.827      3.996
REMARK  Name = 
REMARK  4 active torsions:
REMARK  status: ('A' for Active; 'I' for Inactive)
REMARK    1  A    between atoms: C_1  and  C_2
REMARK    2  A    between atoms: N_4  and  C_5
REMARK    3  A    between atoms: C_5  and  C_6
REMARK    4  A    between atoms: N_8  and  C_9
REMARK                            x       y       z     vdW  Elec       q    Type
REMARK                         _______ _______ _______ _____ _____    ______ ____
ROOT
ATOM      1  C   UNL     1       5.409   5.510  16.305  0.00  0.00    +0.000 C 
ATOM      2  C   UNL     1       4.951   4.548  17.384  0.00  0.00    +0.000 C 
ATOM      3  N   UNL     1       3.766   5.172  17.889  0.00  0.00    +0.000 N 
ATOM      4  C   UNL     1       3.756   6.509  17.512  0.00  0.00    +0.000 C 
ATOM      5  O   UNL     1       2.988   7.392  17.850  0.00  0.00    +0.000 OA
ATOM      6  O   UNL     1       4.829   6.765  16.690  0.00  0.00    +0.000 OA
ENDROOT
BRANCH   3   7
ATOM      7  C   UNL     1       2.851   4.532  18.766  0.00  0.00    +0.000 A 
ATOM      8  C   UNL     1       2.851   4.801  20.144  0.00  0.00    +0.000 A 
ATOM      9  C   UNL     1       1.942   4.180  21.011  0.00  0.00    +0.000 A 
ATOM     10  C   UNL     1       1.027   3.263  20.512  0.00  0.00    +0.000 A 
ATOM     11  C   UNL     1       1.021   2.984  19.152  0.00  0.00    +0.000 A 
ATOM     12  F   UNL     1       0.151   2.090  18.666  0.00  0.00    +0.000 F 
ATOM     13  C   UNL     1       1.911   3.616  18.277  0.00  0.00    +0.000 A 
ENDBRANCH   3   7
BRANCH   1  14
ATOM     14  C   UNL     1       6.934   5.629  16.244  0.00  0.00    +0.000 C 
BRANCH  14  18
ATOM     15  C   UNL     1       8.332   8.644  18.067  0.00  0.00    +0.000 C 
ATOM     16  C   UNL     1       7.791   7.250  17.901  0.00  0.00    +0.000 C 
ATOM     17  O   UNL     1       7.700   6.453  18.829  0.00  0.00    +0.000 OA
ATOM     18  N   UNL     1       7.421   6.949  16.611  0.00  0.00    +0.000 N 
ATOM     19  H   UNL     1       7.593   7.623  15.874  0.00  0.00    +0.000 HD
ENDBRANCH  14  18
ENDBRANCH   1  14
TORSDOF 3
ENDMDL
MODEL 3
REMARK VINA RESULT:      -7.6      2.775      3.805
REMARK  Name = 
REMARK  4 active torsions:
REMARK  status: ('A' for Active; 'I' for Inactive)
REMARK    1  A    between atoms: C_1  and  C_2
REMARK    2  A    between atoms: N_4  and  C_5
REMARK    3  A    between atoms: C_5  and  C_6
REMARK    4  A    between atoms: N_8  and  C_9
REMARK                            x       y       z     vdW  Elec       q    Type
REMARK                         _______ _______ _______ _____ _____    ______ ____
ROOT
ATOM      1  C   UNL     1       5.455   5.377  16.376  0.00  0.00    +0.000 C 
ATOM      2  C   UNL     1       5.001   4.382  17.427  0.00  0.00    +0.000 C 
ATOM      3  N   UNL     1       3.768   4.943  17.889  0.00  0.00    +0.000 N 
ATOM      4  C   UNL     1       3.709   6.281  17.525  0.00  0.00    +0.000 C 
ATOM      5  O   UNL     1       2.886   7.123  17.839  0.00  0.00    +0.000 OA
ATOM      6  O   UNL     1       4.800   6.599  16.749  0.00  0.00    +0.000 OA
ENDROOT
BRANCH   3   7
ATOM      7  C   UNL     1       2.850   4.249  18.722  0.00  0.00    +0.000 A 
ATOM      8  C   UNL     1       1.776   3.525  18.179  0.00  0.00    +0.000 A 
ATOM      9  C   UNL     1       0.876   2.831  18.997  0.00  0.00    +0.000 A 
ATOM     10  C   UNL     1       1.027   2.865  20.377  0.00  0.00    +0.000 A 
ATOM     11  C   UNL     1       2.081   3.582  20.925  0.00  0.00    +0.000 A 
ATOM     12  F   UNL     1       2.224   3.630  22.255  0.00  0.00    +0.000 F 
ATOM     13  C   UNL     1       2.998   4.260  20.114  0.00  0.00    +0.000 A 
ENDBRANCH   3   7
BRANCH   1  14
ATOM     14  C   UNL     1       6.975   5.570  16.379  0.00  0.00    +0.000 C 
BRANCH  14  18
ATOM     15  C   UNL     1       8.286   8.715  18.039  0.00  0.00    +0.000 C 
ATOM     16  C   UNL     1       7.856   7.278  17.933  0.00  0.00    +0.000 C 
ATOM     17  O   UNL     1       7.935   6.486  18.866  0.00  0.00    +0.000 OA
ATOM     18  N   UNL     1       7.378   6.931  16.690  0.00  0.00    +0.000 N 
ATOM     19  H   UNL     1       7.411   7.610  15.939  0.00  0.00    +0.000 HD
ENDBRANCH  14  18
ENDBRANCH   1  14
TORSDOF 3
ENDMDL
MODEL 4
REMARK VINA RESULT:      -7.5      1.024      1.536
REMARK  Name = 
REMARK  4 active torsions:
REMARK  status: ('A' for Active; 'I' for Inactive)
REMARK    1  A    between atoms: C_1  and  C_2
REMARK    2  A    between atoms: N_4  and  C_5
REMARK    3  A    between atoms: C_5  and  C_6
REMARK    4  A    between atoms: N_8  and  C_9
REMARK                            x       y       z     vdW  Elec       q    Type
REMARK                         _______ _______ _______ _____ _____    ______ ____
ROOT
ATOM      1  C   UNL     1       5.995   5.028  16.062  0.00  0.00    +0.000 C 
ATOM      2  C   UNL     1       4.589   4.546  16.368  0.00  0.00    +0.000 C 
ATOM      3  N   UNL     1       4.565   4.517  17.798  0.00  0.00    +0.000 N 
ATOM      4  C   UNL     1       5.867   4.529  18.280  0.00  0.00    +0.000 C 
ATOM      5  O   UNL     1       6.260   4.389  19.425  0.00  0.00    +0.000 OA
ATOM      6  O   UNL     1       6.746   4.673  17.231  0.00  0.00    +0.000 OA
ENDROOT
BRANCH   3   7
ATOM      7  C   UNL     1       3.380   4.344  18.562  0.00  0.00    +0.000 A 
ATOM      8  C   UNL     1       3.117   5.137  19.691  0.00  0.00    +0.000 A 
ATOM      9  C   UNL     1       1.945   4.976  20.441  0.00  0.00    +0.000 A 
ATOM     10  C   UNL     1       1.021   4.004  20.080  0.00  0.00    +0.000 A 
ATOM     11  C   UNL     1       1.273   3.210  18.969  0.00  0.00    +0.000 A 
ATOM     12  F   UNL     1       0.393   2.261  18.625  0.00  0.00    +0.000 F 
ATOM     13  C   UNL     1       2.431   3.379  18.203  0.00  0.00    +0.000 A 
ENDBRANCH   3   7
BRANCH   1  14
ATOM     14  C   UNL     1       6.585   4.345  14.825  0.00  0.00    +0.000 C 
BRANCH  14  18
ATOM     15  C   UNL     1       4.727   3.151  11.745  0.00  0.00    +0.000 C 
ATOM     16  C   UNL     1       5.893   3.638  12.560  0.00  0.00    +0.000 C 
ATOM     17  O   UNL     1       7.024   3.760  12.103  0.00  0.00    +0.000 OA
ATOM     18  N   UNL     1       5.576   3.922  13.869  0.00  0.00    +0.000 N 
ATOM     19  H   UNL     1       4.641   3.726  14.206  0.00  0.00    +0.000 HD
ENDBRANCH  14  18
ENDBRANCH   1  14
TORSDOF 3
ENDMDL
MODEL 5
REMARK VINA RESULT:      -7.4      1.778      2.299
REMARK  Name = 
REMARK  4 active torsions:
REMARK  status: ('A' for Active; 'I' for Inactive)
REMARK    1  A    between atoms: C_1  and  C_2
REMARK    2  A    between atoms: N_4  and  C_5
REMARK    3  A    between atoms: C_5  and  C_6
REMARK    4  A    between atoms: N_8  and  C_9
REMARK                            x       y       z     vdW  Elec       q    Type
REMARK                         _______ _______ _______ _____ _____    ______ ____
ROOT
ATOM      1  C   UNL     1       5.167   6.611  17.325  0.00  0.00    +0.000 C 
ATOM      2  C   UNL     1       3.802   5.963  17.466  0.00  0.00    +0.000 C 
ATOM      3  N   UNL     1       3.992   5.050  18.552  0.00  0.00    +0.000 N 
ATOM      4  C   UNL     1       5.351   4.834  18.738  0.00  0.00    +0.000 C 
ATOM      5  O   UNL     1       5.905   4.036  19.472  0.00  0.00    +0.000 OA
ATOM      6  O   UNL     1       6.068   5.649  17.892  0.00  0.00    +0.000 OA
ENDROOT
BRANCH   3   7
ATOM      7  C   UNL     1       2.929   4.372  19.205  0.00  0.00    +0.000 A 
ATOM      8  C   UNL     1       2.700   4.530  20.582  0.00  0.00    +0.000 A 
ATOM      9  C   UNL     1       1.646   3.871  21.228  0.00  0.00    +0.000 A 
ATOM     10  C   UNL     1       0.812   3.027  20.506  0.00  0.00    +0.000 A 
ATOM     11  C   UNL     1       1.032   2.859  19.146  0.00  0.00    +0.000 A 
ATOM     12  F   UNL     1       0.240   2.035  18.447  0.00  0.00    +0.000 F 
ATOM     13  C   UNL     1       2.069   3.530  18.489  0.00  0.00    +0.000 A 
ENDBRANCH   3   7
BRANCH   1  14
ATOM     14  C   UNL     1       5.531   6.879  15.862  0.00  0.00    +0.000 C 
BRANCH  14  18
ATOM     15  C   UNL     1       6.205   3.794  13.764  0.00  0.00    +0.000 C 
ATOM     16  C   UNL     1       6.527   5.027  14.564  0.00  0.00    +0.000 C 
ATOM     17  O   UNL     1       7.676   5.390  14.798  0.00  0.00    +0.000 OA
ATOM     18  N   UNL     1       5.418   5.700  15.018  0.00  0.00    +0.000 N 
ATOM     19  H   UNL     1       4.498   5.307  14.858  0.00  0.00    +0.000 HD
ENDBRANCH  14  18
ENDBRANCH   1  14
TORSDOF 3
ENDMDL
MODEL 6
REMARK VINA RESULT:      -7.4      1.315      1.315
REMARK  Name = 
REMARK  4 active torsions:
REMARK  status: ('A' for Active; 'I' for Inactive)
REMARK    1  A    between atoms: C_1  and  C_2
REMARK    2  A    between atoms: N_4  and  C_5
REMARK    3  A    between atoms: C_5  and  C_6
REMARK    4  A    between atoms: N_8  and  C_9
REMARK                            x       y       z     vdW  Elec       q    Type
REMARK                         _______ _______ _______ _____ _____    ______ ____
ROOT
ATOM      1  C   UNL     1       6.172   4.946  16.482  0.00  0.00    +0.000 C 
ATOM      2  C   UNL     1       5.000   4.182  17.068  0.00  0.00    +0.000 C 
ATOM      3  N   UNL     1       5.043   4.541  18.453  0.00  0.00    +0.000 N 
ATOM      4  C   UNL     1       6.296   5.059  18.753  0.00  0.00    +0.000 C 
ATOM      5  O   UNL     1       6.759   5.358  19.840  0.00  0.00    +0.000 OA
ATOM      6  O   UNL     1       7.044   5.157  17.603  0.00  0.00    +0.000 OA
ENDROOT
BRANCH   3   7
ATOM      7  C   UNL     1       4.003   4.250  19.375  0.00  0.00    +0.000 A 
ATOM      8  C   UNL     1       3.877   2.977  19.954  0.00  0.00    +0.000 A 
ATOM      9  C   UNL     1       2.859   2.689  20.872  0.00  0.00    +0.000 A 
ATOM     10  C   UNL     1       1.938   3.670  21.214  0.00  0.00    +0.000 A 
ATOM     11  C   UNL     1       2.050   4.931  20.644  0.00  0.00    +0.000 A 
ATOM     12  F   UNL     1       1.156   5.878  20.959  0.00  0.00    +0.000 F 
ATOM     13  C   UNL     1       3.076   5.233  19.743  0.00  0.00    +0.000 A 
ENDBRANCH   3   7
BRANCH   1  14
ATOM     14  C   UNL     1       6.895   4.150  15.392  0.00  0.00    +0.000 C 
BRANCH  14  18
ATOM     15  C   UNL     1       5.268   3.197  12.104  0.00  0.00    +0.000 C 
ATOM     16  C   UNL     1       6.273   3.838  13.021  0.00  0.00    +0.000 C 
ATOM     17  O   UNL     1       7.251   4.457  12.613  0.00  0.00    +0.000 OA
ATOM     18  N   UNL     1       6.002   3.656  14.357  0.00  0.00    +0.000 N 
ATOM     19  H   UNL     1       5.222   3.070  14.630  0.00  0.00    +0.000 HD
ENDBRANCH  14  18
ENDBRANCH   1  14
TORSDOF 3
ENDMDL
MODEL 7
REMARK VINA RESULT:      -7.2      1.660      2.177
REMARK  Name = 
REMARK  4 active torsions:
REMARK  status: ('A' for Active; 'I' for Inactive)
REMARK    1  A    between atoms: C_1  and  C_2
REMARK    2  A    between atoms: N_4  and  C_5
REMARK    3  A    between atoms: C_5  and  C_6
REMARK    4  A    between atoms: N_8  and  C_9
REMARK                            x       y       z     vdW  Elec       q    Type
REMARK                         _______ _______ _______ _____ _____    ______ ____
ROOT
ATOM      1  C   UNL     1       6.427   4.793  14.849  0.00  0.00    +0.000 C 
ATOM      2  C   UNL     1       5.158   4.442  15.601  0.00  0.00    +0.000 C 
ATOM      3  N   UNL     1       5.559   4.544  16.971  0.00  0.00    +0.000 N 
ATOM      4  C   UNL     1       6.945   4.506  17.048  0.00  0.00    +0.000 C 
ATOM      5  O   UNL     1       7.655   4.441  18.036  0.00  0.00    +0.000 OA
ATOM      6  O   UNL     1       7.478   4.492  15.779  0.00  0.00    +0.000 OA
ENDROOT
BRANCH   3   7
ATOM      7  C   UNL     1       4.649   4.525  18.062  0.00  0.00    +0.000 A 
ATOM      8  C   UNL     1       4.240   5.712  18.691  0.00  0.00    +0.000 A 
ATOM      9  C   UNL     1       3.335   5.697  19.760  0.00  0.00    +0.000 A 
ATOM     10  C   UNL     1       2.835   4.489  20.228  0.00  0.00    +0.000 A 
ATOM     11  C   UNL     1       3.238   3.309  19.617  0.00  0.00    +0.000 A 
ATOM     12  F   UNL     1       2.771   2.140  20.073  0.00  0.00    +0.000 F 
ATOM     13  C   UNL     1       4.125   3.316  18.536  0.00  0.00    +0.000 A 
ENDBRANCH   3   7
BRANCH   1  14
ATOM     14  C   UNL     1       6.594   3.961  13.574  0.00  0.00    +0.000 C 
BRANCH  14  18
ATOM     15  C   UNL     1       3.869   3.080  11.092  0.00  0.00    +0.000 C 
ATOM     16  C   UNL     1       5.187   2.961  11.806  0.00  0.00    +0.000 C 
ATOM     17  O   UNL     1       5.989   2.060  11.582  0.00  0.00    +0.000 OA
ATOM     18  N   UNL     1       5.404   3.946  12.740  0.00  0.00    +0.000 N 
ATOM     19  H   UNL     1       4.669   4.617  12.934  0.00  0.00    +0.000 HD
ENDBRANCH  14  18
ENDBRANCH   1  14
TORSDOF 3
ENDMDL
MODEL 8
REMARK VINA RESULT:      -7.2      1.690      1.923
REMARK  Name = 
REMARK  4 active torsions:
REMARK  status: ('A' for Active; 'I' for Inactive)
REMARK    1  A    between atoms: C_1  and  C_2
REMARK    2  A    between atoms: N_4  and  C_5
REMARK    3  A    between atoms: C_5  and  C_6
REMARK    4  A    between atoms: N_8  and  C_9
REMARK                            x       y       z     vdW  Elec       q    Type
REMARK                         _______ _______ _______ _____ _____    ______ ____
ROOT
ATOM      1  C   UNL     1       6.473   4.788  14.831  0.00  0.00    +0.000 C 
ATOM      2  C   UNL     1       5.196   4.496  15.596  0.00  0.00    +0.000 C 
ATOM      3  N   UNL     1       5.608   4.611  16.962  0.00  0.00    +0.000 N 
ATOM      4  C   UNL     1       6.992   4.526  17.033  0.00  0.00    +0.000 C 
ATOM      5  O   UNL     1       7.704   4.457  18.019  0.00  0.00    +0.000 OA
ATOM      6  O   UNL     1       7.517   4.468  15.763  0.00  0.00    +0.000 OA
ENDROOT
BRANCH   3   7
ATOM      7  C   UNL     1       4.703   4.645  18.057  0.00  0.00    +0.000 A 
ATOM      8  C   UNL     1       4.395   3.485  18.785  0.00  0.00    +0.000 A 
ATOM      9  C   UNL     1       3.512   3.517  19.872  0.00  0.00    +0.000 A 
ATOM     10  C   UNL     1       2.909   4.713  20.239  0.00  0.00    +0.000 A 
ATOM     11  C   UNL     1       3.202   5.866  19.522  0.00  0.00    +0.000 A 
ATOM     12  F   UNL     1       2.613   7.019  19.862  0.00  0.00    +0.000 F 
ATOM     13  C   UNL     1       4.099   5.846  18.449  0.00  0.00    +0.000 A 
ENDBRANCH   3   7
BRANCH   1  14
ATOM     14  C   UNL     1       6.605   3.924  13.573  0.00  0.00    +0.000 C 
BRANCH  14  18
ATOM     15  C   UNL     1       3.858   3.153  11.077  0.00  0.00    +0.000 C 
ATOM     16  C   UNL     1       5.162   2.975  11.805  0.00  0.00    +0.000 C 
ATOM     17  O   UNL     1       5.917   2.030  11.602  0.00  0.00    +0.000 OA
ATOM     18  N   UNL     1       5.422   3.961  12.728  0.00  0.00    +0.000 N 
ATOM     19  H   UNL     1       4.723   4.673  12.905  0.00  0.00    +0.000 HD
ENDBRANCH  14  18
ENDBRANCH   1  14
TORSDOF 3
ENDMDL
MODEL 9
REMARK VINA RESULT:      -7.2      2.031      2.456
REMARK  Name = 
REMARK  4 active torsions:
REMARK  status: ('A' for Active; 'I' for Inactive)
REMARK    1  A    between atoms: C_1  and  C_2
REMARK    2  A    between atoms: N_4  and  C_5
REMARK    3  A    between atoms: C_5  and  C_6
REMARK    4  A    between atoms: N_8  and  C_9
REMARK                            x       y       z     vdW  Elec       q    Type
REMARK                         _______ _______ _______ _____ _____    ______ ____
ROOT
ATOM      1  C   UNL     1       5.382   5.438  16.233  0.00  0.00    +0.000 C 
ATOM      2  C   UNL     1       4.861   4.455  17.265  0.00  0.00    +0.000 C 
ATOM      3  N   UNL     1       3.767   5.161  17.857  0.00  0.00    +0.000 N 
ATOM      4  C   UNL     1       3.884   6.514  17.569  0.00  0.00    +0.000 C 
ATOM      5  O   UNL     1       3.225   7.447  17.994  0.00  0.00    +0.000 OA
ATOM      6  O   UNL     1       4.950   6.716  16.722  0.00  0.00    +0.000 OA
ENDROOT
BRANCH   3   7
ATOM      7  C   UNL     1       2.819   4.559  18.727  0.00  0.00    +0.000 A 
ATOM      8  C   UNL     1       2.776   4.880  20.093  0.00  0.00    +0.000 A 
ATOM      9  C   UNL     1       1.836   4.297  20.952  0.00  0.00    +0.000 A 
ATOM     10  C   UNL     1       0.931   3.367  20.458  0.00  0.00    +0.000 A 
ATOM     11  C   UNL     1       0.967   3.038  19.110  0.00  0.00    +0.000 A 
ATOM     12  F   UNL     1       0.106   2.131  18.630  0.00  0.00    +0.000 F 
ATOM     13  C   UNL     1       1.889   3.632  18.241  0.00  0.00    +0.000 A 
ENDBRANCH   3   7
BRANCH   1  14
ATOM     14  C   UNL     1       6.908   5.403  16.119  0.00  0.00    +0.000 C 
BRANCH  14  18
ATOM     15  C   UNL     1       7.580   5.013  12.408  0.00  0.00    +0.000 C 
ATOM     16  C   UNL     1       7.051   4.650  13.769  0.00  0.00    +0.000 C 
ATOM     17  O   UNL     1       6.376   3.648  13.978  0.00  0.00    +0.000 OA
ATOM     18  N   UNL     1       7.383   5.552  14.753  0.00  0.00    +0.000 N 
ATOM     19  H   UNL     1       7.877   6.401  14.502  0.00  0.00    +0.000 HD
ENDBRANCH  14  18
ENDBRANCH   1  14
TORSDOF 3
ENDMDL
