MODEL 1
REMARK VINA RESULT:      -6.3      0.000      0.000
REMARK  Name = 
REMARK  11 active torsions:
REMARK  status: ('A' for Active; 'I' for Inactive)
REMARK    1  A    between atoms: C_1  and  C_2
REMARK    2  A    between atoms: C_2  and  C_4
REMARK    3  A    between atoms: C_10  and  N_11
REMARK    4  A    between atoms: N_11  and  C_12
REMARK    5  A    between atoms: N_11  and  C_13
REMARK    6  A    between atoms: C_13  and  C_14
REMARK    7  A    between atoms: C_14  and  C_15
REMARK    8  A    between atoms: C_14  and  C_16
REMARK    9  A    between atoms: C_14  and  C_17
REMARK   10  A    between atoms: C_17  and  C_18
REMARK   11  A    between atoms: C_18  and  O_19
REMARK                            x       y       z     vdW  Elec       q    Type
REMARK                         _______ _______ _______ _____ _____    ______ ____
ROOT
ATOM      1  C   UNL     1       6.071   5.007  17.608  0.00  0.00    +0.000 A 
ATOM      2  C   UNL     1       6.977   4.431  16.682  0.00  0.00    +0.000 A 
ATOM      3  F   UNL     1       8.283   4.313  16.969  0.00  0.00    +0.000 F 
ATOM      4  C   UNL     1       6.584   3.932  15.446  0.00  0.00    +0.000 A 
ATOM      5  C   UNL     1       5.256   3.976  15.100  0.00  0.00    +0.000 A 
ATOM      6  C   UNL     1       4.336   4.512  16.004  0.00  0.00    +0.000 A 
ATOM      7  C   UNL     1       4.680   5.043  17.280  0.00  0.00    +0.000 A 
ENDROOT
BRANCH   1   9
ATOM      8  C   UNL     1       7.800   6.610  18.718  0.00  0.00    +0.000 C 
ATOM      9  C   UNL     1       6.745   5.531  18.854  0.00  0.00    +0.000 C 
ATOM     10  O   UNL     1       6.541   5.061  19.970  0.00  0.00    +0.000 OA
ENDBRANCH   1   9
BRANCH   7  11
ATOM     11  N   UNL     1       3.572   5.477  18.051  0.00  0.00    +0.000 N 
ATOM     12  C   UNL     1       3.379   6.909  18.249  0.00  0.00    +0.000 C 
BRANCH  11  13
ATOM     13  C   UNL     1       2.333   4.646  17.989  0.00  0.00    +0.000 C 
BRANCH  13  14
ATOM     14  C   UNL     1       2.044   3.714  19.236  0.00  0.00    +0.000 C 
ATOM     15  C   UNL     1       0.885   4.252  20.087  0.00  0.00    +0.000 C 
ATOM     16  C   UNL     1       1.714   2.269  18.821  0.00  0.00    +0.000 C 
BRANCH  14  17
ATOM     17  C   UNL     1       3.349   3.687  20.105  0.00  0.00    +0.000 C 
BRANCH  17  18
ATOM     18  C   UNL     1       4.031   2.320  20.265  0.00  0.00    +0.000 C 
BRANCH  18  19
ATOM     19  O   UNL     1       5.287   2.332  19.595  0.00  0.00    +0.000 OA
ATOM     20  H   UNL     1       5.165   2.815  18.759  0.00  0.00    +0.000 HD
ENDBRANCH  18  19
ENDBRANCH  17  18
ENDBRANCH  14  17
ENDBRANCH  13  14
ENDBRANCH  11  13
ENDBRANCH   7  11
TORSDOF 7
ENDMDL
MODEL 2
REMARK VINA RESULT:      -6.3      2.191      5.325
REMARK  Name = 
REMARK  11 active torsions:
REMARK  status: ('A' for Active; 'I' for Inactive)
REMARK    1  A    between atoms: C_1  and  C_2
REMARK    2  A    between atoms: C_2  and  C_4
REMARK    3  A    between atoms: C_10  and  N_11
REMARK    4  A    between atoms: N_11  and  C_12
REMARK    5  A    between atoms: N_11  and  C_13
REMARK    6  A    between atoms: C_13  and  C_14
REMARK    7  A    between atoms: C_14  and  C_15
REMARK    8  A    between atoms: C_14  and  C_16
REMARK    9  A    between atoms: C_14  and  C_17
REMARK   10  A    between atoms: C_17  and  C_18
REMARK   11  A    between atoms: C_18  and  O_19
REMARK                            x       y       z     vdW  Elec       q    Type
REMARK                         _______ _______ _______ _____ _____    ______ ____
ROOT
ATOM      1  C   UNL     1       3.489   3.583  19.712  0.00  0.00    +0.000 A 
ATOM      2  C   UNL     1       2.653   3.748  20.846  0.00  0.00    +0.000 A 
ATOM      3  F   UNL     1       2.554   2.790  21.781  0.00  0.00    +0.000 F 
ATOM      4  C   UNL     1       1.911   4.899  21.080  0.00  0.00    +0.000 A 
ATOM      5  C   UNL     1       1.997   5.942  20.191  0.00  0.00    +0.000 A 
ATOM      6  C   UNL     1       2.834   5.819  19.080  0.00  0.00    +0.000 A 
ATOM      7  C   UNL     1       3.612   4.664  18.784  0.00  0.00    +0.000 A 
ENDROOT
BRANCH   1   9
ATOM      8  C   UNL     1       3.622   1.205  18.656  0.00  0.00    +0.000 C 
ATOM      9  C   UNL     1       4.144   2.225  19.647  0.00  0.00    +0.000 C 
ATOM     10  O   UNL     1       5.027   1.873  20.425  0.00  0.00    +0.000 OA
ENDBRANCH   1   9
BRANCH   7  11
ATOM     11  N   UNL     1       4.434   4.790  17.635  0.00  0.00    +0.000 N 
ATOM     12  C   UNL     1       4.067   4.053  16.432  0.00  0.00    +0.000 C 
BRANCH  11  13
ATOM     13  C   UNL     1       5.111   6.104  17.425  0.00  0.00    +0.000 C 
BRANCH  13  14
ATOM     14  C   UNL     1       6.691   6.078  17.328  0.00  0.00    +0.000 C 
ATOM     15  C   UNL     1       7.166   5.445  16.011  0.00  0.00    +0.000 C 
ATOM     16  C   UNL     1       7.307   7.484  17.443  0.00  0.00    +0.000 C 
BRANCH  14  17
ATOM     17  C   UNL     1       7.213   5.215  18.529  0.00  0.00    +0.000 C 
BRANCH  17  18
ATOM     18  C   UNL     1       8.222   5.896  19.466  0.00  0.00    +0.000 C 
BRANCH  18  19
ATOM     19  O   UNL     1       8.121   5.327  20.768  0.00  0.00    +0.000 OA
ATOM     20  H   UNL     1       8.984   4.930  20.979  0.00  0.00    +0.000 HD
ENDBRANCH  18  19
ENDBRANCH  17  18
ENDBRANCH  14  17
ENDBRANCH  13  14
ENDBRANCH  11  13
ENDBRANCH   7  11
TORSDOF 7
ENDMDL
MODEL 3
REMARK VINA RESULT:      -6.3      2.131      3.297
REMARK  Name = 
REMARK  11 active torsions:
REMARK  status: ('A' for Active; 'I' for Inactive)
REMARK    1  A    between atoms: C_1  and  C_2
REMARK    2  A    between atoms: C_2  and  C_4
REMARK    3  A    between atoms: C_10  and  N_11
REMARK    4  A    between atoms: N_11  and  C_12
REMARK    5  A    between atoms: N_11  and  C_13
REMARK    6  A    between atoms: C_13  and  C_14
REMARK    7  A    between atoms: C_14  and  C_15
REMARK    8  A    between atoms: C_14  and  C_16
REMARK    9  A    between atoms: C_14  and  C_17
REMARK   10  A    between atoms: C_17  and  C_18
REMARK   11  A    between atoms: C_18  and  O_19
REMARK                            x       y       z     vdW  Elec       q    Type
REMARK                         _______ _______ _______ _____ _____    ______ ____
ROOT
ATOM      1  C   UNL     1       6.112   5.684  17.067  0.00  0.00    +0.000 A 
ATOM      2  C   UNL     1       7.262   6.446  17.393  0.00  0.00    +0.000 A 
ATOM      3  F   UNL     1       7.828   7.269  16.496  0.00  0.00    +0.000 F 
ATOM      4  C   UNL     1       7.862   6.417  18.646  0.00  0.00    +0.000 A 
ATOM      5  C   UNL     1       7.313   5.632  19.631  0.00  0.00    +0.000 A 
ATOM      6  C   UNL     1       6.163   4.893  19.348  0.00  0.00    +0.000 A 
ATOM      7  C   UNL     1       5.509   4.877  18.083  0.00  0.00    +0.000 A 
ENDROOT
BRANCH   1   9
ATOM      8  C   UNL     1       6.143   4.810  14.613  0.00  0.00    +0.000 C 
ATOM      9  C   UNL     1       5.684   5.837  15.628  0.00  0.00    +0.000 C 
ATOM     10  O   UNL     1       5.051   6.808  15.221  0.00  0.00    +0.000 OA
ENDBRANCH   1   9
BRANCH   7  11
ATOM     11  N   UNL     1       4.323   4.101  18.047  0.00  0.00    +0.000 N 
ATOM     12  C   UNL     1       4.291   2.918  17.194  0.00  0.00    +0.000 C 
BRANCH  11  13
ATOM     13  C   UNL     1       3.515   4.034  19.300  0.00  0.00    +0.000 C 
BRANCH  13  14
ATOM     14  C   UNL     1       2.134   4.808  19.293  0.00  0.00    +0.000 C 
ATOM     15  C   UNL     1       2.276   6.224  19.873  0.00  0.00    +0.000 C 
ATOM     16  C   UNL     1       1.532   4.919  17.881  0.00  0.00    +0.000 C 
BRANCH  14  17
ATOM     17  C   UNL     1       1.140   3.987  20.186  0.00  0.00    +0.000 C 
BRANCH  17  18
ATOM     18  C   UNL     1       1.725   2.762  20.904  0.00  0.00    +0.000 C 
BRANCH  18  19
ATOM     19  O   UNL     1       2.007   3.095  22.260  0.00  0.00    +0.000 OA
ATOM     20  H   UNL     1       1.925   4.061  22.345  0.00  0.00    +0.000 HD
ENDBRANCH  18  19
ENDBRANCH  17  18
ENDBRANCH  14  17
ENDBRANCH  13  14
ENDBRANCH  11  13
ENDBRANCH   7  11
TORSDOF 7
ENDMDL
MODEL 4
REMARK VINA RESULT:      -6.3      1.155      1.333
REMARK  Name = 
REMARK  11 active torsions:
REMARK  status: ('A' for Active; 'I' for Inactive)
REMARK    1  A    between atoms: C_1  and  C_2
REMARK    2  A    between atoms: C_2  and  C_4
REMARK    3  A    between atoms: C_10  and  N_11
REMARK    4  A    between atoms: N_11  and  C_12
REMARK    5  A    between atoms: N_11  and  C_13
REMARK    6  A    between atoms: C_13  and  C_14
REMARK    7  A    between atoms: C_14  and  C_15
REMARK    8  A    between atoms: C_14  and  C_16
REMARK    9  A    between atoms: C_14  and  C_17
REMARK   10  A    between atoms: C_17  and  C_18
REMARK   11  A    between atoms: C_18  and  O_19
REMARK                            x       y       z     vdW  Elec       q    Type
REMARK                         _______ _______ _______ _____ _____    ______ ____
ROOT
ATOM      1  C   UNL     1       6.048   4.918  17.593  0.00  0.00    +0.000 A 
ATOM      2  C   UNL     1       7.035   4.459  16.685  0.00  0.00    +0.000 A 
ATOM      3  F   UNL     1       8.316   4.320  17.062  0.00  0.00    +0.000 F 
ATOM      4  C   UNL     1       6.752   4.103  15.372  0.00  0.00    +0.000 A 
ATOM      5  C   UNL     1       5.455   4.175  14.926  0.00  0.00    +0.000 A 
ATOM      6  C   UNL     1       4.457   4.597  15.806  0.00  0.00    +0.000 A 
ATOM      7  C   UNL     1       4.687   4.980  17.159  0.00  0.00    +0.000 A 
ENDROOT
BRANCH   1   9
ATOM      8  C   UNL     1       7.791   6.248  19.001  0.00  0.00    +0.000 C 
ATOM      9  C   UNL     1       6.611   5.300  18.941  0.00  0.00    +0.000 C 
ATOM     10  O   UNL     1       6.212   4.809  19.993  0.00  0.00    +0.000 OA
ENDBRANCH   1   9
BRANCH   7  11
ATOM     11  N   UNL     1       3.514   5.313  17.881  0.00  0.00    +0.000 N 
ATOM     12  C   UNL     1       3.216   6.722  18.114  0.00  0.00    +0.000 C 
BRANCH  11  13
ATOM     13  C   UNL     1       2.339   4.406  17.724  0.00  0.00    +0.000 C 
BRANCH  13  14
ATOM     14  C   UNL     1       2.288   3.144  18.678  0.00  0.00    +0.000 C 
ATOM     15  C   UNL     1       0.847   2.661  18.901  0.00  0.00    +0.000 C 
ATOM     16  C   UNL     1       3.117   1.966  18.134  0.00  0.00    +0.000 C 
BRANCH  14  17
ATOM     17  C   UNL     1       2.901   3.579  20.054  0.00  0.00    +0.000 C 
BRANCH  17  18
ATOM     18  C   UNL     1       1.900   3.865  21.184  0.00  0.00    +0.000 C 
BRANCH  18  19
ATOM     19  O   UNL     1       2.063   2.902  22.220  0.00  0.00    +0.000 OA
ATOM     20  H   UNL     1       2.383   2.081  21.805  0.00  0.00    +0.000 HD
ENDBRANCH  18  19
ENDBRANCH  17  18
ENDBRANCH  14  17
ENDBRANCH  13  14
ENDBRANCH  11  13
ENDBRANCH   7  11
TORSDOF 7
ENDMDL
MODEL 5
REMARK VINA RESULT:      -6.2      2.065      3.379
REMARK  Name = 
REMARK  11 active torsions:
REMARK  status: ('A' for Active; 'I' for Inactive)
REMARK    1  A    between atoms: C_1  and  C_2
REMARK    2  A    between atoms: C_2  and  C_4
REMARK    3  A    between atoms: C_10  and  N_11
REMARK    4  A    between atoms: N_11  and  C_12
REMARK    5  A    between atoms: N_11  and  C_13
REMARK    6  A    between atoms: C_13  and  C_14
REMARK    7  A    between atoms: C_14  and  C_15
REMARK    8  A    between atoms: C_14  and  C_16
REMARK    9  A    between atoms: C_14  and  C_17
REMARK   10  A    between atoms: C_17  and  C_18
REMARK   11  A    between atoms: C_18  and  O_19
REMARK                            x       y       z     vdW  Elec       q    Type
REMARK                         _______ _______ _______ _____ _____    ______ ____
ROOT
ATOM      1  C   UNL     1       6.201   5.784  17.124  0.00  0.00    +0.000 A 
ATOM      2  C   UNL     1       7.355   6.550  17.428  0.00  0.00    +0.000 A 
ATOM      3  F   UNL     1       7.904   7.372  16.520  0.00  0.00    +0.000 F 
ATOM      4  C   UNL     1       7.975   6.527  18.672  0.00  0.00    +0.000 A 
ATOM      5  C   UNL     1       7.444   5.745  19.668  0.00  0.00    +0.000 A 
ATOM      6  C   UNL     1       6.292   5.001  19.406  0.00  0.00    +0.000 A 
ATOM      7  C   UNL     1       5.617   4.980  18.152  0.00  0.00    +0.000 A 
ENDROOT
BRANCH   1   9
ATOM      8  C   UNL     1       6.268   4.955  14.655  0.00  0.00    +0.000 C 
ATOM      9  C   UNL     1       5.750   5.931  15.691  0.00  0.00    +0.000 C 
ATOM     10  O   UNL     1       5.048   6.863  15.306  0.00  0.00    +0.000 OA
ENDBRANCH   1   9
BRANCH   7  11
ATOM     11  N   UNL     1       4.433   4.200  18.138  0.00  0.00    +0.000 N 
ATOM     12  C   UNL     1       4.253   3.227  17.066  0.00  0.00    +0.000 C 
BRANCH  11  13
ATOM     13  C   UNL     1       3.836   3.847  19.459  0.00  0.00    +0.000 C 
BRANCH  13  14
ATOM     14  C   UNL     1       2.416   4.469  19.783  0.00  0.00    +0.000 C 
ATOM     15  C   UNL     1       1.911   4.035  21.167  0.00  0.00    +0.000 C 
ATOM     16  C   UNL     1       2.425   6.007  19.728  0.00  0.00    +0.000 C 
BRANCH  14  17
ATOM     17  C   UNL     1       1.422   3.946  18.688  0.00  0.00    +0.000 C 
BRANCH  17  18
ATOM     18  C   UNL     1       0.716   2.617  18.991  0.00  0.00    +0.000 C 
BRANCH  18  19
ATOM     19  O   UNL     1       1.532   1.534  18.554  0.00  0.00    +0.000 OA
ATOM     20  H   UNL     1       2.326   1.524  19.116  0.00  0.00    +0.000 HD
ENDBRANCH  18  19
ENDBRANCH  17  18
ENDBRANCH  14  17
ENDBRANCH  13  14
ENDBRANCH  11  13
ENDBRANCH   7  11
TORSDOF 7
ENDMDL
MODEL 6
REMARK VINA RESULT:      -6.2      1.996      3.000
REMARK  Name = 
REMARK  11 active torsions:
REMARK  status: ('A' for Active; 'I' for Inactive)
REMARK    1  A    between atoms: C_1  and  C_2
REMARK    2  A    between atoms: C_2  and  C_4
REMARK    3  A    between atoms: C_10  and  N_11
REMARK    4  A    between atoms: N_11  and  C_12
REMARK    5  A    between atoms: N_11  and  C_13
REMARK    6  A    between atoms: C_13  and  C_14
REMARK    7  A    between atoms: C_14  and  C_15
REMARK    8  A    between atoms: C_14  and  C_16
REMARK    9  A    between atoms: C_14  and  C_17
REMARK   10  A    between atoms: C_17  and  C_18
REMARK   11  A    between atoms: C_18  and  O_19
REMARK                            x       y       z     vdW  Elec       q    Type
REMARK                         _______ _______ _______ _____ _____    ______ ____
ROOT
ATOM      1  C   UNL     1       5.711   5.750  17.034  0.00  0.00    +0.000 A 
ATOM      2  C   UNL     1       7.095   5.970  17.253  0.00  0.00    +0.000 A 
ATOM      3  F   UNL     1       7.904   6.355  16.254  0.00  0.00    +0.000 F 
ATOM      4  C   UNL     1       7.698   5.832  18.497  0.00  0.00    +0.000 A 
ATOM      5  C   UNL     1       6.925   5.485  19.579  0.00  0.00    +0.000 A 
ATOM      6  C   UNL     1       5.554   5.289  19.399  0.00  0.00    +0.000 A 
ATOM      7  C   UNL     1       4.882   5.410  18.149  0.00  0.00    +0.000 A 
ENDROOT
BRANCH   1   9
ATOM      8  C   UNL     1       5.419   4.708  14.664  0.00  0.00    +0.000 C 
ATOM      9  C   UNL     1       5.305   5.903  15.589  0.00  0.00    +0.000 C 
ATOM     10  O   UNL     1       4.968   6.979  15.101  0.00  0.00    +0.000 OA
ENDBRANCH   1   9
BRANCH   7  11
ATOM     11  N   UNL     1       3.479   5.226  18.219  0.00  0.00    +0.000 N 
ATOM     12  C   UNL     1       2.617   6.400  18.143  0.00  0.00    +0.000 C 
BRANCH  11  13
ATOM     13  C   UNL     1       2.929   3.964  17.642  0.00  0.00    +0.000 C 
BRANCH  13  14
ATOM     14  C   UNL     1       2.518   2.834  18.672  0.00  0.00    +0.000 C 
ATOM     15  C   UNL     1       1.076   2.358  18.444  0.00  0.00    +0.000 C 
ATOM     16  C   UNL     1       3.451   1.612  18.603  0.00  0.00    +0.000 C 
BRANCH  14  17
ATOM     17  C   UNL     1       2.631   3.455  20.108  0.00  0.00    +0.000 C 
BRANCH  17  18
ATOM     18  C   UNL     1       1.479   3.146  21.074  0.00  0.00    +0.000 C 
BRANCH  18  19
ATOM     19  O   UNL     1       2.003   2.877  22.371  0.00  0.00    +0.000 OA
ATOM     20  H   UNL     1       1.274   2.985  23.006  0.00  0.00    +0.000 HD
ENDBRANCH  18  19
ENDBRANCH  17  18
ENDBRANCH  14  17
ENDBRANCH  13  14
ENDBRANCH  11  13
ENDBRANCH   7  11
TORSDOF 7
ENDMDL
MODEL 7
REMARK VINA RESULT:      -6.2      2.345      5.449
REMARK  Name = 
REMARK  11 active torsions:
REMARK  status: ('A' for Active; 'I' for Inactive)
REMARK    1  A    between atoms: C_1  and  C_2
REMARK    2  A    between atoms: C_2  and  C_4
REMARK    3  A    between atoms: C_10  and  N_11
REMARK    4  A    between atoms: N_11  and  C_12
REMARK    5  A    between atoms: N_11  and  C_13
REMARK    6  A    between atoms: C_13  and  C_14
REMARK    7  A    between atoms: C_14  and  C_15
REMARK    8  A    between atoms: C_14  and  C_16
REMARK    9  A    between atoms: C_14  and  C_17
REMARK   10  A    between atoms: C_17  and  C_18
REMARK   11  A    between atoms: C_18  and  O_19
REMARK                            x       y       z     vdW  Elec       q    Type
REMARK                         _______ _______ _______ _____ _____    ______ ____
ROOT
ATOM      1  C   UNL     1       2.907   4.081  19.636  0.00  0.00    +0.000 A 
ATOM      2  C   UNL     1       2.032   4.494  20.673  0.00  0.00    +0.000 A 
ATOM      3  F   UNL     1       1.560   3.618  21.574  0.00  0.00    +0.000 F 
ATOM      4  C   UNL     1       1.627   5.812  20.845  0.00  0.00    +0.000 A 
ATOM      5  C   UNL     1       2.106   6.774  19.990  0.00  0.00    +0.000 A 
ATOM      6  C   UNL     1       2.991   6.402  18.976  0.00  0.00    +0.000 A 
ATOM      7  C   UNL     1       3.436   5.069  18.747  0.00  0.00    +0.000 A 
ENDROOT
BRANCH   1   9
ATOM      8  C   UNL     1       4.470   2.058  20.138  0.00  0.00    +0.000 C 
ATOM      9  C   UNL     1       3.150   2.592  19.619  0.00  0.00    +0.000 C 
ATOM     10  O   UNL     1       2.361   1.793  19.120  0.00  0.00    +0.000 OA
ENDBRANCH   1   9
BRANCH   7  11
ATOM     11  N   UNL     1       4.381   4.939  17.699  0.00  0.00    +0.000 N 
ATOM     12  C   UNL     1       4.119   3.972  16.639  0.00  0.00    +0.000 C 
BRANCH  11  13
ATOM     13  C   UNL     1       5.129   6.169  17.302  0.00  0.00    +0.000 C 
BRANCH  13  14
ATOM     14  C   UNL     1       6.702   6.033  17.182  0.00  0.00    +0.000 C 
ATOM     15  C   UNL     1       7.110   5.316  15.886  0.00  0.00    +0.000 C 
ATOM     16  C   UNL     1       7.412   7.398  17.228  0.00  0.00    +0.000 C 
BRANCH  14  17
ATOM     17  C   UNL     1       7.187   5.187  18.410  0.00  0.00    +0.000 C 
BRANCH  17  18
ATOM     18  C   UNL     1       8.056   5.923  19.441  0.00  0.00    +0.000 C 
BRANCH  18  19
ATOM     19  O   UNL     1       8.001   5.236  20.687  0.00  0.00    +0.000 OA
ATOM     20  H   UNL     1       8.641   5.664  21.282  0.00  0.00    +0.000 HD
ENDBRANCH  18  19
ENDBRANCH  17  18
ENDBRANCH  14  17
ENDBRANCH  13  14
ENDBRANCH  11  13
ENDBRANCH   7  11
TORSDOF 7
ENDMDL
MODEL 8
REMARK VINA RESULT:      -6.2      2.726      5.474
REMARK  Name = 
REMARK  11 active torsions:
REMARK  status: ('A' for Active; 'I' for Inactive)
REMARK    1  A    between atoms: C_1  and  C_2
REMARK    2  A    between atoms: C_2  and  C_4
REMARK    3  A    between atoms: C_10  and  N_11
REMARK    4  A    between atoms: N_11  and  C_12
REMARK    5  A    between atoms: N_11  and  C_13
REMARK    6  A    between atoms: C_13  and  C_14
REMARK    7  A    between atoms: C_14  and  C_15
REMARK    8  A    between atoms: C_14  and  C_16
REMARK    9  A    between atoms: C_14  and  C_17
REMARK   10  A    between atoms: C_17  and  C_18
REMARK   11  A    between atoms: C_18  and  O_19
REMARK                            x       y       z     vdW  Elec       q    Type
REMARK                         _______ _______ _______ _____ _____    ______ ____
ROOT
ATOM      1  C   UNL     1       3.533   3.570  19.838  0.00  0.00    +0.000 A 
ATOM      2  C   UNL     1       2.314   3.536  20.562  0.00  0.00    +0.000 A 
ATOM      3  F   UNL     1       1.867   2.398  21.118  0.00  0.00    +0.000 F 
ATOM      4  C   UNL     1       1.520   4.658  20.765  0.00  0.00    +0.000 A 
ATOM      5  C   UNL     1       1.935   5.868  20.265  0.00  0.00    +0.000 A 
ATOM      6  C   UNL     1       3.145   5.938  19.572  0.00  0.00    +0.000 A 
ATOM      7  C   UNL     1       3.996   4.822  19.327  0.00  0.00    +0.000 A 
ENDROOT
BRANCH   1   9
ATOM      8  C   UNL     1       3.729   1.294  18.585  0.00  0.00    +0.000 C 
ATOM      9  C   UNL     1       4.182   2.214  19.700  0.00  0.00    +0.000 C 
ATOM     10  O   UNL     1       5.001   1.782  20.507  0.00  0.00    +0.000 OA
ENDBRANCH   1   9
BRANCH   7  11
ATOM     11  N   UNL     1       5.203   5.143  18.657  0.00  0.00    +0.000 N 
ATOM     12  C   UNL     1       6.403   5.372  19.453  0.00  0.00    +0.000 C 
BRANCH  11  13
ATOM     13  C   UNL     1       5.411   4.543  17.306  0.00  0.00    +0.000 C 
BRANCH  13  14
ATOM     14  C   UNL     1       5.732   5.550  16.126  0.00  0.00    +0.000 C 
ATOM     15  C   UNL     1       4.882   6.826  16.225  0.00  0.00    +0.000 C 
ATOM     16  C   UNL     1       7.216   5.955  16.091  0.00  0.00    +0.000 C 
BRANCH  14  17
ATOM     17  C   UNL     1       5.394   4.812  14.785  0.00  0.00    +0.000 C 
BRANCH  17  18
ATOM     18  C   UNL     1       6.324   3.654  14.394  0.00  0.00    +0.000 C 
BRANCH  18  19
ATOM     19  O   UNL     1       6.318   3.495  12.978  0.00  0.00    +0.000 OA
ATOM     20  H   UNL     1       6.184   2.549  12.793  0.00  0.00    +0.000 HD
ENDBRANCH  18  19
ENDBRANCH  17  18
ENDBRANCH  14  17
ENDBRANCH  13  14
ENDBRANCH  11  13
ENDBRANCH   7  11
TORSDOF 7
ENDMDL
MODEL 9
REMARK VINA RESULT:      -6.2      2.249      3.670
REMARK  Name = 
REMARK  11 active torsions:
REMARK  status: ('A' for Active; 'I' for Inactive)
REMARK    1  A    between atoms: C_1  and  C_2
REMARK    2  A    between atoms: C_2  and  C_4
REMARK    3  A    between atoms: C_10  and  N_11
REMARK    4  A    between atoms: N_11  and  C_12
REMARK    5  A    between atoms: N_11  and  C_13
REMARK    6  A    between atoms: C_13  and  C_14
REMARK    7  A    between atoms: C_14  and  C_15
REMARK    8  A    between atoms: C_14  and  C_16
REMARK    9  A    between atoms: C_14  and  C_17
REMARK   10  A    between atoms: C_17  and  C_18
REMARK   11  A    between atoms: C_18  and  O_19
REMARK                            x       y       z     vdW  Elec       q    Type
REMARK                         _______ _______ _______ _____ _____    ______ ____
ROOT
ATOM      1  C   UNL     1       6.191   5.783  17.123  0.00  0.00    +0.000 A 
ATOM      2  C   UNL     1       7.361   6.529  17.414  0.00  0.00    +0.000 A 
ATOM      3  F   UNL     1       7.919   7.335  16.497  0.00  0.00    +0.000 F 
ATOM      4  C   UNL     1       7.990   6.502  18.653  0.00  0.00    +0.000 A 
ATOM      5  C   UNL     1       7.452   5.735  19.658  0.00  0.00    +0.000 A 
ATOM      6  C   UNL     1       6.284   5.012  19.408  0.00  0.00    +0.000 A 
ATOM      7  C   UNL     1       5.600   4.996  18.159  0.00  0.00    +0.000 A 
ENDROOT
BRANCH   1   9
ATOM      8  C   UNL     1       6.208   4.927  14.662  0.00  0.00    +0.000 C 
ATOM      9  C   UNL     1       5.732   5.930  15.692  0.00  0.00    +0.000 C 
ATOM     10  O   UNL     1       5.059   6.881  15.303  0.00  0.00    +0.000 OA
ENDBRANCH   1   9
BRANCH   7  11
ATOM     11  N   UNL     1       4.402   4.238  18.158  0.00  0.00    +0.000 N 
ATOM     12  C   UNL     1       4.326   3.056  17.306  0.00  0.00    +0.000 C 
BRANCH  11  13
ATOM     13  C   UNL     1       3.630   4.183  19.434  0.00  0.00    +0.000 C 
BRANCH  13  14
ATOM     14  C   UNL     1       2.159   4.767  19.397  0.00  0.00    +0.000 C 
ATOM     15  C   UNL     1       1.117   3.660  19.177  0.00  0.00    +0.000 C 
ATOM     16  C   UNL     1       1.798   5.526  20.687  0.00  0.00    +0.000 C 
BRANCH  14  17
ATOM     17  C   UNL     1       2.093   5.778  18.200  0.00  0.00    +0.000 C 
BRANCH  17  18
ATOM     18  C   UNL     1       2.390   7.247  18.535  0.00  0.00    +0.000 C 
BRANCH  18  19
ATOM     19  O   UNL     1       3.397   7.741  17.657  0.00  0.00    +0.000 OA
ATOM     20  H   UNL     1       2.971   7.922  16.800  0.00  0.00    +0.000 HD
ENDBRANCH  18  19
ENDBRANCH  17  18
ENDBRANCH  14  17
ENDBRANCH  13  14
ENDBRANCH  11  13
ENDBRANCH   7  11
TORSDOF 7
ENDMDL
