MODEL 1
REMARK VINA RESULT:      -9.7      0.000      0.000
REMARK  Name = 
REMARK  4 active torsions:
REMARK  status: ('A' for Active; 'I' for Inactive)
REMARK    1  A    between atoms: C_2  and  C_4
REMARK    2  A    between atoms: C_8  and  C_9
REMARK    3  A    between atoms: C_11  and  C_12
REMARK    4  A    between atoms: C_12  and  C_13
REMARK                            x       y       z     vdW  Elec       q    Type
REMARK                         _______ _______ _______ _____ _____    ______ ____
ROOT
ATOM      1  C   UNL     1       2.612   6.784  18.848  0.00  0.00    +0.000 A 
ATOM      2  C   UNL     1       2.293   8.008  18.221  0.00  0.00    +0.000 A 
ATOM      3  C   UNL     1       1.586   9.029  18.883  0.00  0.00    +0.000 A 
ATOM      4  C   UNL     1       1.099   8.793  20.172  0.00  0.00    +0.000 A 
ATOM      5  C   UNL     1       1.380   7.589  20.811  0.00  0.00    +0.000 A 
ATOM      6  C   UNL     1       2.145   6.618  20.165  0.00  0.00    +0.000 A 
ATOM      7  F   UNL     1       2.441   5.512  20.865  0.00  0.00    +0.000 F 
ENDROOT
BRANCH   1  12
ATOM      8  C   UNL     1       5.517   4.968  17.154  0.00  0.00    +0.000 A 
ATOM      9  C   UNL     1       4.907   3.786  16.731  0.00  0.00    +0.000 A 
ATOM     10  C   UNL     1       3.559   3.577  16.997  0.00  0.00    +0.000 A 
ATOM     11  C   UNL     1       2.818   4.552  17.674  0.00  0.00    +0.000 A 
ATOM     12  C   UNL     1       3.404   5.744  18.138  0.00  0.00    +0.000 A 
ATOM     13  C   UNL     1       4.779   5.915  17.881  0.00  0.00    +0.000 A 
BRANCH   8  15
ATOM     14  N   UNL     1       7.856   4.331  17.236  0.00  0.00    +0.000 N 
ATOM     15  C   UNL     1       6.935   5.259  16.840  0.00  0.00    +0.000 C 
ATOM     16  O   UNL     1       7.266   6.255  16.207  0.00  0.00    +0.000 OA
ATOM     17  H   UNL     1       8.805   4.469  16.913  0.00  0.00    +0.000 HD
ATOM     18  H   UNL     1       7.584   3.397  17.510  0.00  0.00    +0.000 HD
ENDBRANCH   8  15
ENDBRANCH   1  12
BRANCH   3  19
ATOM     19  C   UNL     1       1.380  10.373  18.221  0.00  0.00    +0.000 C 
BRANCH  19  20
ATOM     20  C   UNL     1       0.264  11.193  18.856  0.00  0.00    +0.000 A 
ATOM     21  N   UNL     1       0.625  12.075  19.740  0.00  0.00    +0.000 NA
ATOM     22  N   UNL     1      -0.353  12.809  20.328  0.00  0.00    +0.000 N 
ATOM     23  C   UNL     1      -1.695  12.688  20.100  0.00  0.00    +0.000 A 
ATOM     24  O   UNL     1      -2.528  13.339  20.725  0.00  0.00    +0.000 OA
ATOM     25  C   UNL     1      -2.088  11.734  19.034  0.00  0.00    +0.000 A 
ATOM     26  C   UNL     1      -1.155  10.984  18.421  0.00  0.00    +0.000 A 
ATOM     27  C   UNL     1      -1.503  10.005  17.333  0.00  0.00    +0.000 C 
ATOM     28  C   UNL     1      -3.007   9.737  17.206  0.00  0.00    +0.000 C 
ATOM     29  C   UNL     1      -3.810  11.026  17.328  0.00  0.00    +0.000 C 
ATOM     30  C   UNL     1      -3.550  11.697  18.678  0.00  0.00    +0.000 C 
ATOM     31  H   UNL     1      -0.063  13.462  21.049  0.00  0.00    +0.000 HD
ENDBRANCH  19  20
ENDBRANCH   3  19
TORSDOF 4
ENDMDL
MODEL 2
REMARK VINA RESULT:      -9.3      1.756      2.115
REMARK  Name = 
REMARK  4 active torsions:
REMARK  status: ('A' for Active; 'I' for Inactive)
REMARK    1  A    between atoms: C_2  and  C_4
REMARK    2  A    between atoms: C_8  and  C_9
REMARK    3  A    between atoms: C_11  and  C_12
REMARK    4  A    between atoms: C_12  and  C_13
REMARK                            x       y       z     vdW  Elec       q    Type
REMARK                         _______ _______ _______ _____ _____    ______ ____
ROOT
ATOM      1  C   UNL     1       2.251   7.348  19.037  0.00  0.00    +0.000 A 
ATOM      2  C   UNL     1       1.895   8.603  18.498  0.00  0.00    +0.000 A 
ATOM      3  C   UNL     1       1.205   9.574  19.248  0.00  0.00    +0.000 A 
ATOM      4  C   UNL     1       0.773   9.255  20.538  0.00  0.00    +0.000 A 
ATOM      5  C   UNL     1       1.091   8.020  21.092  0.00  0.00    +0.000 A 
ATOM      6  C   UNL     1       1.839   7.098  20.359  0.00  0.00    +0.000 A 
ATOM      7  F   UNL     1       2.173   5.956  20.979  0.00  0.00    +0.000 F 
ENDROOT
BRANCH   1  12
ATOM      8  C   UNL     1       3.473   4.045  17.554  0.00  0.00    +0.000 A 
ATOM      9  C   UNL     1       4.535   4.467  16.753  0.00  0.00    +0.000 A 
ATOM     10  C   UNL     1       4.853   5.819  16.692  0.00  0.00    +0.000 A 
ATOM     11  C   UNL     1       4.118   6.747  17.438  0.00  0.00    +0.000 A 
ATOM     12  C   UNL     1       3.024   6.362  18.236  0.00  0.00    +0.000 A 
ATOM     13  C   UNL     1       2.707   4.989  18.255  0.00  0.00    +0.000 A 
BRANCH   8  15
ATOM     14  N   UNL     1       4.082   1.813  18.282  0.00  0.00    +0.000 N 
ATOM     15  C   UNL     1       3.138   2.609  17.697  0.00  0.00    +0.000 C 
ATOM     16  O   UNL     1       2.048   2.162  17.360  0.00  0.00    +0.000 OA
ATOM     17  H   UNL     1       3.805   0.862  18.491  0.00  0.00    +0.000 HD
ATOM     18  H   UNL     1       4.857   2.201  18.801  0.00  0.00    +0.000 HD
ENDBRANCH   8  15
ENDBRANCH   1  12
BRANCH   3  19
ATOM     19  C   UNL     1       0.959  10.953  18.675  0.00  0.00    +0.000 C 
BRANCH  19  20
ATOM     20  C   UNL     1      -0.362  11.565  19.127  0.00  0.00    +0.000 A 
ATOM     21  N   UNL     1      -0.297  12.434  20.091  0.00  0.00    +0.000 NA
ATOM     22  N   UNL     1      -1.463  12.984  20.517  0.00  0.00    +0.000 N 
ATOM     23  C   UNL     1      -2.710  12.687  20.045  0.00  0.00    +0.000 A 
ATOM     24  O   UNL     1      -3.728  13.173  20.532  0.00  0.00    +0.000 OA
ATOM     25  C   UNL     1      -2.763  11.753  18.894  0.00  0.00    +0.000 A 
ATOM     26  C   UNL     1      -1.635  11.183  18.434  0.00  0.00    +0.000 A 
ATOM     27  C   UNL     1      -1.637  10.232  17.268  0.00  0.00    +0.000 C 
ATOM     28  C   UNL     1      -3.037   9.761  16.861  0.00  0.00    +0.000 C 
ATOM     29  C   UNL     1      -4.034  10.913  16.880  0.00  0.00    +0.000 C 
ATOM     30  C   UNL     1      -4.118  11.530  18.278  0.00  0.00    +0.000 C 
ATOM     31  H   UNL     1      -1.404  13.626  21.300  0.00  0.00    +0.000 HD
ENDBRANCH  19  20
ENDBRANCH   3  19
TORSDOF 4
ENDMDL
MODEL 3
REMARK VINA RESULT:      -9.1      1.390      2.193
REMARK  Name = 
REMARK  4 active torsions:
REMARK  status: ('A' for Active; 'I' for Inactive)
REMARK    1  A    between atoms: C_2  and  C_4
REMARK    2  A    between atoms: C_8  and  C_9
REMARK    3  A    between atoms: C_11  and  C_12
REMARK    4  A    between atoms: C_12  and  C_13
REMARK                            x       y       z     vdW  Elec       q    Type
REMARK                         _______ _______ _______ _____ _____    ______ ____
ROOT
ATOM      1  C   UNL     1       2.618   6.691  18.982  0.00  0.00    +0.000 A 
ATOM      2  C   UNL     1       2.257   7.934  18.420  0.00  0.00    +0.000 A 
ATOM      3  C   UNL     1       1.532   8.901  19.141  0.00  0.00    +0.000 A 
ATOM      4  C   UNL     1       1.071   8.589  20.422  0.00  0.00    +0.000 A 
ATOM      5  C   UNL     1       1.393   7.364  20.998  0.00  0.00    +0.000 A 
ATOM      6  C   UNL     1       2.175   6.447  20.295  0.00  0.00    +0.000 A 
ATOM      7  F   UNL     1       2.511   5.317  20.936  0.00  0.00    +0.000 F 
ENDROOT
BRANCH   1  12
ATOM      8  C   UNL     1       5.564   5.013  17.215  0.00  0.00    +0.000 A 
ATOM      9  C   UNL     1       4.966   3.866  16.691  0.00  0.00    +0.000 A 
ATOM     10  C   UNL     1       3.614   3.635  16.912  0.00  0.00    +0.000 A 
ATOM     11  C   UNL     1       2.856   4.554  17.645  0.00  0.00    +0.000 A 
ATOM     12  C   UNL     1       3.428   5.709  18.212  0.00  0.00    +0.000 A 
ATOM     13  C   UNL     1       4.808   5.902  17.996  0.00  0.00    +0.000 A 
BRANCH   8  15
ATOM     14  N   UNL     1       7.894   4.341  17.211  0.00  0.00    +0.000 N 
ATOM     15  C   UNL     1       6.987   5.330  16.954  0.00  0.00    +0.000 C 
ATOM     16  O   UNL     1       7.334   6.405  16.478  0.00  0.00    +0.000 OA
ATOM     17  H   UNL     1       8.847   4.514  16.916  0.00  0.00    +0.000 HD
ATOM     18  H   UNL     1       7.610   3.381  17.342  0.00  0.00    +0.000 HD
ENDBRANCH   8  15
ENDBRANCH   1  12
BRANCH   3  19
ATOM     19  C   UNL     1       1.280  10.270  18.548  0.00  0.00    +0.000 C 
BRANCH  19  20
ATOM     20  C   UNL     1      -0.198  10.638  18.490  0.00  0.00    +0.000 A 
ATOM     21  N   UNL     1      -0.910  10.034  17.585  0.00  0.00    +0.000 NA
ATOM     22  N   UNL     1      -2.226  10.355  17.508  0.00  0.00    +0.000 N 
ATOM     23  C   UNL     1      -2.874  11.282  18.277  0.00  0.00    +0.000 A 
ATOM     24  O   UNL     1      -4.054  11.571  18.099  0.00  0.00    +0.000 OA
ATOM     25  C   UNL     1      -2.069  11.906  19.355  0.00  0.00    +0.000 A 
ATOM     26  C   UNL     1      -0.760  11.618  19.474  0.00  0.00    +0.000 A 
ATOM     27  C   UNL     1       0.097  12.223  20.552  0.00  0.00    +0.000 C 
ATOM     28  C   UNL     1      -0.574  13.387  21.291  0.00  0.00    +0.000 C 
ATOM     29  C   UNL     1      -2.036  13.081  21.589  0.00  0.00    +0.000 C 
ATOM     30  C   UNL     1      -2.808  12.820  20.295  0.00  0.00    +0.000 C 
ATOM     31  H   UNL     1      -2.761   9.911  16.768  0.00  0.00    +0.000 HD
ENDBRANCH  19  20
ENDBRANCH   3  19
TORSDOF 4
ENDMDL
MODEL 4
REMARK VINA RESULT:      -8.8      1.716      1.981
REMARK  Name = 
REMARK  4 active torsions:
REMARK  status: ('A' for Active; 'I' for Inactive)
REMARK    1  A    between atoms: C_2  and  C_4
REMARK    2  A    between atoms: C_8  and  C_9
REMARK    3  A    between atoms: C_11  and  C_12
REMARK    4  A    between atoms: C_12  and  C_13
REMARK                            x       y       z     vdW  Elec       q    Type
REMARK                         _______ _______ _______ _____ _____    ______ ____
ROOT
ATOM      1  C   UNL     1       2.420   6.967  19.129  0.00  0.00    +0.000 A 
ATOM      2  C   UNL     1       2.146   8.184  18.469  0.00  0.00    +0.000 A 
ATOM      3  C   UNL     1       1.436   9.229  19.087  0.00  0.00    +0.000 A 
ATOM      4  C   UNL     1       0.901   9.027  20.363  0.00  0.00    +0.000 A 
ATOM      5  C   UNL     1       1.138   7.831  21.033  0.00  0.00    +0.000 A 
ATOM      6  C   UNL     1       1.906   6.834  20.432  0.00  0.00    +0.000 A 
ATOM      7  F   UNL     1       2.158   5.736  21.162  0.00  0.00    +0.000 F 
ENDROOT
BRANCH   1  12
ATOM      8  C   UNL     1       4.084   3.601  18.414  0.00  0.00    +0.000 A 
ATOM      9  C   UNL     1       4.784   3.873  17.238  0.00  0.00    +0.000 A 
ATOM     10  C   UNL     1       4.714   5.142  16.676  0.00  0.00    +0.000 A 
ATOM     11  C   UNL     1       3.956   6.142  17.294  0.00  0.00    +0.000 A 
ATOM     12  C   UNL     1       3.217   5.899  18.467  0.00  0.00    +0.000 A 
ATOM     13  C   UNL     1       3.283   4.595  18.997  0.00  0.00    +0.000 A 
BRANCH   8  15
ATOM     14  N   UNL     1       3.745   1.200  18.366  0.00  0.00    +0.000 N 
ATOM     15  C   UNL     1       4.178   2.281  19.080  0.00  0.00    +0.000 C 
ATOM     16  O   UNL     1       4.672   2.152  20.195  0.00  0.00    +0.000 OA
ATOM     17  H   UNL     1       3.924   0.289  18.770  0.00  0.00    +0.000 HD
ATOM     18  H   UNL     1       3.593   1.249  17.368  0.00  0.00    +0.000 HD
ENDBRANCH   8  15
ENDBRANCH   1  12
BRANCH   3  19
ATOM     19  C   UNL     1       1.277  10.564  18.393  0.00  0.00    +0.000 C 
BRANCH  19  20
ATOM     20  C   UNL     1       0.107  11.383  18.924  0.00  0.00    +0.000 A 
ATOM     21  N   UNL     1       0.397  12.331  19.765  0.00  0.00    +0.000 NA
ATOM     22  N   UNL     1      -0.631  13.066  20.259  0.00  0.00    +0.000 N 
ATOM     23  C   UNL     1      -1.956  12.885  19.978  0.00  0.00    +0.000 A 
ATOM     24  O   UNL     1      -2.838  13.544  20.521  0.00  0.00    +0.000 OA
ATOM     25  C   UNL     1      -2.267  11.853  18.958  0.00  0.00    +0.000 A 
ATOM     26  C   UNL     1      -1.282  11.099  18.437  0.00  0.00    +0.000 A 
ATOM     27  C   UNL     1      -1.547  10.043  17.400  0.00  0.00    +0.000 C 
ATOM     28  C   UNL     1      -3.034   9.716  17.220  0.00  0.00    +0.000 C 
ATOM     29  C   UNL     1      -3.882  10.981  17.223  0.00  0.00    +0.000 C 
ATOM     30  C   UNL     1      -3.708  11.743  18.538  0.00  0.00    +0.000 C 
ATOM     31  H   UNL     1      -0.396  13.772  20.949  0.00  0.00    +0.000 HD
ENDBRANCH  19  20
ENDBRANCH   3  19
TORSDOF 4
ENDMDL
MODEL 5
REMARK VINA RESULT:      -8.8      2.830      8.398
REMARK  Name = 
REMARK  4 active torsions:
REMARK  status: ('A' for Active; 'I' for Inactive)
REMARK    1  A    between atoms: C_2  and  C_4
REMARK    2  A    between atoms: C_8  and  C_9
REMARK    3  A    between atoms: C_11  and  C_12
REMARK    4  A    between atoms: C_12  and  C_13
REMARK                            x       y       z     vdW  Elec       q    Type
REMARK                         _______ _______ _______ _____ _____    ______ ____
ROOT
ATOM      1  C   UNL     1       2.231   5.668  19.984  0.00  0.00    +0.000 A 
ATOM      2  C   UNL     1       3.539   5.231  19.684  0.00  0.00    +0.000 A 
ATOM      3  C   UNL     1       3.910   3.875  19.746  0.00  0.00    +0.000 A 
ATOM      4  C   UNL     1       2.983   2.938  20.209  0.00  0.00    +0.000 A 
ATOM      5  C   UNL     1       1.690   3.339  20.531  0.00  0.00    +0.000 A 
ATOM      6  C   UNL     1       1.321   4.677  20.393  0.00  0.00    +0.000 A 
ATOM      7  F   UNL     1       0.039   4.983  20.650  0.00  0.00    +0.000 F 
ENDROOT
BRANCH   1  12
ATOM      8  C   UNL     1       0.876   9.145  20.814  0.00  0.00    +0.000 A 
ATOM      9  C   UNL     1       1.083   9.826  19.614  0.00  0.00    +0.000 A 
ATOM     10  C   UNL     1       1.662   9.161  18.539  0.00  0.00    +0.000 A 
ATOM     11  C   UNL     1       2.024   7.815  18.659  0.00  0.00    +0.000 A 
ATOM     12  C   UNL     1       1.856   7.103  19.862  0.00  0.00    +0.000 A 
ATOM     13  C   UNL     1       1.293   7.811  20.943  0.00  0.00    +0.000 A 
BRANCH   8  15
ATOM     14  N   UNL     1      -0.580   9.000  22.748  0.00  0.00    +0.000 N 
ATOM     15  C   UNL     1       0.207   9.795  21.965  0.00  0.00    +0.000 C 
ATOM     16  O   UNL     1       0.392  10.976  22.238  0.00  0.00    +0.000 OA
ATOM     17  H   UNL     1      -0.935   9.414  23.601  0.00  0.00    +0.000 HD
ATOM     18  H   UNL     1      -0.530   7.992  22.701  0.00  0.00    +0.000 HD
ENDBRANCH   8  15
ENDBRANCH   1  12
BRANCH   3  19
ATOM     19  C   UNL     1       5.284   3.435  19.291  0.00  0.00    +0.000 C 
BRANCH  19  20
ATOM     20  C   UNL     1       6.061   4.532  18.574  0.00  0.00    +0.000 A 
ATOM     21  N   UNL     1       6.738   5.347  19.327  0.00  0.00    +0.000 NA
ATOM     22  N   UNL     1       7.430   6.340  18.711  0.00  0.00    +0.000 N 
ATOM     23  C   UNL     1       7.458   6.583  17.366  0.00  0.00    +0.000 A 
ATOM     24  O   UNL     1       8.050   7.547  16.888  0.00  0.00    +0.000 OA
ATOM     25  C   UNL     1       6.746   5.601  16.514  0.00  0.00    +0.000 A 
ATOM     26  C   UNL     1       6.047   4.598  17.077  0.00  0.00    +0.000 A 
ATOM     27  C   UNL     1       5.311   3.576  16.255  0.00  0.00    +0.000 C 
ATOM     28  C   UNL     1       5.190   3.949  14.773  0.00  0.00    +0.000 C 
ATOM     29  C   UNL     1       6.495   4.528  14.242  0.00  0.00    +0.000 C 
ATOM     30  C   UNL     1       6.889   5.780  15.027  0.00  0.00    +0.000 C 
ATOM     31  H   UNL     1       7.917   6.996  19.312  0.00  0.00    +0.000 HD
ENDBRANCH  19  20
ENDBRANCH   3  19
TORSDOF 4
ENDMDL
MODEL 6
REMARK VINA RESULT:      -8.7      2.697      3.827
REMARK  Name = 
REMARK  4 active torsions:
REMARK  status: ('A' for Active; 'I' for Inactive)
REMARK    1  A    between atoms: C_2  and  C_4
REMARK    2  A    between atoms: C_8  and  C_9
REMARK    3  A    between atoms: C_11  and  C_12
REMARK    4  A    between atoms: C_12  and  C_13
REMARK                            x       y       z     vdW  Elec       q    Type
REMARK                         _______ _______ _______ _____ _____    ______ ____
ROOT
ATOM      1  C   UNL     1       3.617   4.690  18.751  0.00  0.00    +0.000 A 
ATOM      2  C   UNL     1       3.147   5.761  19.541  0.00  0.00    +0.000 A 
ATOM      3  C   UNL     1       1.911   5.713  20.212  0.00  0.00    +0.000 A 
ATOM      4  C   UNL     1       1.076   4.610  20.018  0.00  0.00    +0.000 A 
ATOM      5  C   UNL     1       1.501   3.546  19.230  0.00  0.00    +0.000 A 
ATOM      6  C   UNL     1       2.761   3.580  18.632  0.00  0.00    +0.000 A 
ATOM      7  F   UNL     1       3.139   2.490  17.946  0.00  0.00    +0.000 F 
ENDROOT
BRANCH   1  12
ATOM      8  C   UNL     1       6.334   4.774  16.064  0.00  0.00    +0.000 A 
ATOM      9  C   UNL     1       7.497   4.807  16.835  0.00  0.00    +0.000 A 
ATOM     10  C   UNL     1       7.401   4.804  18.222  0.00  0.00    +0.000 A 
ATOM     11  C   UNL     1       6.146   4.758  18.838  0.00  0.00    +0.000 A 
ATOM     12  C   UNL     1       4.951   4.751  18.094  0.00  0.00    +0.000 A 
ATOM     13  C   UNL     1       5.079   4.784  16.691  0.00  0.00    +0.000 A 
BRANCH   8  15
ATOM     14  N   UNL     1       7.472   5.297  13.987  0.00  0.00    +0.000 N 
ATOM     15  C   UNL     1       6.391   4.714  14.585  0.00  0.00    +0.000 C 
ATOM     16  O   UNL     1       5.541   4.123  13.928  0.00  0.00    +0.000 OA
ATOM     17  H   UNL     1       7.573   5.148  12.991  0.00  0.00    +0.000 HD
ATOM     18  H   UNL     1       8.300   5.545  14.511  0.00  0.00    +0.000 HD
ENDBRANCH   8  15
ENDBRANCH   1  12
BRANCH   3  19
ATOM     19  C   UNL     1       1.505   6.827  21.152  0.00  0.00    +0.000 C 
BRANCH  19  20
ATOM     20  C   UNL     1       1.316   8.167  20.452  0.00  0.00    +0.000 A 
ATOM     21  N   UNL     1       1.806   8.268  19.252  0.00  0.00    +0.000 NA
ATOM     22  N   UNL     1       1.659   9.457  18.614  0.00  0.00    +0.000 N 
ATOM     23  C   UNL     1       1.066  10.576  19.128  0.00  0.00    +0.000 A 
ATOM     24  O   UNL     1       1.035  11.640  18.516  0.00  0.00    +0.000 OA
ATOM     25  C   UNL     1       0.443  10.424  20.466  0.00  0.00    +0.000 A 
ATOM     26  C   UNL     1       0.560   9.265  21.137  0.00  0.00    +0.000 A 
ATOM     27  C   UNL     1      -0.056   9.062  22.495  0.00  0.00    +0.000 C 
ATOM     28  C   UNL     1      -0.556  10.357  23.144  0.00  0.00    +0.000 C 
ATOM     29  C   UNL     1      -1.270  11.242  22.130  0.00  0.00    +0.000 C 
ATOM     30  C   UNL     1      -0.333  11.607  20.978  0.00  0.00    +0.000 C 
ATOM     31  H   UNL     1       2.085   9.537  17.697  0.00  0.00    +0.000 HD
ENDBRANCH  19  20
ENDBRANCH   3  19
TORSDOF 4
ENDMDL
MODEL 7
REMARK VINA RESULT:      -8.7      1.187      1.354
REMARK  Name = 
REMARK  4 active torsions:
REMARK  status: ('A' for Active; 'I' for Inactive)
REMARK    1  A    between atoms: C_2  and  C_4
REMARK    2  A    between atoms: C_8  and  C_9
REMARK    3  A    between atoms: C_11  and  C_12
REMARK    4  A    between atoms: C_12  and  C_13
REMARK                            x       y       z     vdW  Elec       q    Type
REMARK                         _______ _______ _______ _____ _____    ______ ____
ROOT
ATOM      1  C   UNL     1       1.955   7.626  19.380  0.00  0.00    +0.000 A 
ATOM      2  C   UNL     1       1.577   8.865  18.819  0.00  0.00    +0.000 A 
ATOM      3  C   UNL     1       0.954   9.874  19.577  0.00  0.00    +0.000 A 
ATOM      4  C   UNL     1       0.611   9.611  20.906  0.00  0.00    +0.000 A 
ATOM      5  C   UNL     1       0.952   8.393  21.484  0.00  0.00    +0.000 A 
ATOM      6  C   UNL     1       1.635   7.433  20.737  0.00  0.00    +0.000 A 
ATOM      7  F   UNL     1       1.999   6.310  21.376  0.00  0.00    +0.000 F 
ENDROOT
BRANCH   1  12
ATOM      8  C   UNL     1       4.430   5.969  16.985  0.00  0.00    +0.000 A 
ATOM      9  C   UNL     1       3.966   4.653  16.961  0.00  0.00    +0.000 A 
ATOM     10  C   UNL     1       2.856   4.303  17.721  0.00  0.00    +0.000 A 
ATOM     11  C   UNL     1       2.203   5.268  18.495  0.00  0.00    +0.000 A 
ATOM     12  C   UNL     1       2.657   6.599  18.565  0.00  0.00    +0.000 A 
ATOM     13  C   UNL     1       3.802   6.917  17.808  0.00  0.00    +0.000 A 
BRANCH   8  15
ATOM     14  N   UNL     1       6.807   6.377  16.727  0.00  0.00    +0.000 N 
ATOM     15  C   UNL     1       5.571   6.400  16.145  0.00  0.00    +0.000 C 
ATOM     16  O   UNL     1       5.427   6.709  14.967  0.00  0.00    +0.000 OA
ATOM     17  H   UNL     1       7.597   6.552  16.119  0.00  0.00    +0.000 HD
ATOM     18  H   UNL     1       6.978   5.879  17.589  0.00  0.00    +0.000 HD
ENDBRANCH   8  15
ENDBRANCH   1  12
BRANCH   3  19
ATOM     19  C   UNL     1       0.685  11.233  18.970  0.00  0.00    +0.000 C 
BRANCH  19  20
ATOM     20  C   UNL     1      -0.690  11.788  19.322  0.00  0.00    +0.000 A 
ATOM     21  N   UNL     1      -0.733  12.663  20.282  0.00  0.00    +0.000 NA
ATOM     22  N   UNL     1      -1.949  13.162  20.620  0.00  0.00    +0.000 N 
ATOM     23  C   UNL     1      -3.146  12.808  20.062  0.00  0.00    +0.000 A 
ATOM     24  O   UNL     1      -4.216  13.250  20.471  0.00  0.00    +0.000 OA
ATOM     25  C   UNL     1      -3.075  11.868  18.917  0.00  0.00    +0.000 A 
ATOM     26  C   UNL     1      -1.892  11.347  18.543  0.00  0.00    +0.000 A 
ATOM     27  C   UNL     1      -1.769  10.392  17.387  0.00  0.00    +0.000 C 
ATOM     28  C   UNL     1      -3.114   9.857  16.884  0.00  0.00    +0.000 C 
ATOM     29  C   UNL     1      -4.160  10.964  16.824  0.00  0.00    +0.000 C 
ATOM     30  C   UNL     1      -4.370  11.582  18.207  0.00  0.00    +0.000 C 
ATOM     31  H   UNL     1      -1.975  13.810  21.401  0.00  0.00    +0.000 HD
ENDBRANCH  19  20
ENDBRANCH   3  19
TORSDOF 4
ENDMDL
MODEL 8
REMARK VINA RESULT:      -8.6      2.846      8.621
REMARK  Name = 
REMARK  4 active torsions:
REMARK  status: ('A' for Active; 'I' for Inactive)
REMARK    1  A    between atoms: C_2  and  C_4
REMARK    2  A    between atoms: C_8  and  C_9
REMARK    3  A    between atoms: C_11  and  C_12
REMARK    4  A    between atoms: C_12  and  C_13
REMARK                            x       y       z     vdW  Elec       q    Type
REMARK                         _______ _______ _______ _____ _____    ______ ____
ROOT
ATOM      1  C   UNL     1       2.050   5.740  20.050  0.00  0.00    +0.000 A 
ATOM      2  C   UNL     1       3.321   5.245  19.688  0.00  0.00    +0.000 A 
ATOM      3  C   UNL     1       3.621   3.870  19.695  0.00  0.00    +0.000 A 
ATOM      4  C   UNL     1       2.662   2.968  20.163  0.00  0.00    +0.000 A 
ATOM      5  C   UNL     1       1.405   3.426  20.545  0.00  0.00    +0.000 A 
ATOM      6  C   UNL     1       1.103   4.785  20.462  0.00  0.00    +0.000 A 
ATOM      7  F   UNL     1      -0.150   5.150  20.776  0.00  0.00    +0.000 F 
ENDROOT
BRANCH   1  12
ATOM      8  C   UNL     1       0.920   9.255  21.038  0.00  0.00    +0.000 A 
ATOM      9  C   UNL     1       1.116   9.962  19.851  0.00  0.00    +0.000 A 
ATOM     10  C   UNL     1       1.615   9.302  18.734  0.00  0.00    +0.000 A 
ATOM     11  C   UNL     1       1.908   7.936  18.799  0.00  0.00    +0.000 A 
ATOM     12  C   UNL     1       1.749   7.196  19.986  0.00  0.00    +0.000 A 
ATOM     13  C   UNL     1       1.269   7.897  21.110  0.00  0.00    +0.000 A 
BRANCH   8  15
ATOM     14  N   UNL     1      -0.715  10.752  22.021  0.00  0.00    +0.000 N 
ATOM     15  C   UNL     1       0.334   9.904  22.234  0.00  0.00    +0.000 C 
ATOM     16  O   UNL     1       0.730   9.651  23.367  0.00  0.00    +0.000 OA
ATOM     17  H   UNL     1      -1.193  11.097  22.844  0.00  0.00    +0.000 HD
ATOM     18  H   UNL     1      -1.220  10.764  21.146  0.00  0.00    +0.000 HD
ENDBRANCH   8  15
ENDBRANCH   1  12
BRANCH   3  19
ATOM     19  C   UNL     1       4.952   3.372  19.175  0.00  0.00    +0.000 C 
BRANCH  19  20
ATOM     20  C   UNL     1       5.383   4.047  17.879  0.00  0.00    +0.000 A 
ATOM     21  N   UNL     1       4.819   3.621  16.789  0.00  0.00    +0.000 NA
ATOM     22  N   UNL     1       5.196   4.200  15.620  0.00  0.00    +0.000 N 
ATOM     23  C   UNL     1       6.142   5.176  15.477  0.00  0.00    +0.000 A 
ATOM     24  O   UNL     1       6.483   5.602  14.377  0.00  0.00    +0.000 OA
ATOM     25  C   UNL     1       6.721   5.708  16.735  0.00  0.00    +0.000 A 
ATOM     26  C   UNL     1       6.377   5.168  17.918  0.00  0.00    +0.000 A 
ATOM     27  C   UNL     1       6.935   5.674  19.220  0.00  0.00    +0.000 C 
ATOM     28  C   UNL     1       8.119   6.633  19.051  0.00  0.00    +0.000 C 
ATOM     29  C   UNL     1       7.873   7.619  17.917  0.00  0.00    +0.000 C 
ATOM     30  C   UNL     1       7.656   6.879  16.596  0.00  0.00    +0.000 C 
ATOM     31  H   UNL     1       4.782   3.827  14.772  0.00  0.00    +0.000 HD
ENDBRANCH  19  20
ENDBRANCH   3  19
TORSDOF 4
ENDMDL
MODEL 9
REMARK VINA RESULT:      -8.6      2.213      3.017
REMARK  Name = 
REMARK  4 active torsions:
REMARK  status: ('A' for Active; 'I' for Inactive)
REMARK    1  A    between atoms: C_2  and  C_4
REMARK    2  A    between atoms: C_8  and  C_9
REMARK    3  A    between atoms: C_11  and  C_12
REMARK    4  A    between atoms: C_12  and  C_13
REMARK                            x       y       z     vdW  Elec       q    Type
REMARK                         _______ _______ _______ _____ _____    ______ ____
ROOT
ATOM      1  C   UNL     1       2.237   7.326  19.064  0.00  0.00    +0.000 A 
ATOM      2  C   UNL     1       1.771   8.539  18.514  0.00  0.00    +0.000 A 
ATOM      3  C   UNL     1       1.075   9.492  19.280  0.00  0.00    +0.000 A 
ATOM      4  C   UNL     1       0.749   9.191  20.606  0.00  0.00    +0.000 A 
ATOM      5  C   UNL     1       1.176   7.995  21.172  0.00  0.00    +0.000 A 
ATOM      6  C   UNL     1       1.929   7.096  20.417  0.00  0.00    +0.000 A 
ATOM      7  F   UNL     1       2.372   5.996  21.046  0.00  0.00    +0.000 F 
ENDROOT
BRANCH   1  12
ATOM      8  C   UNL     1       3.467   4.062  17.502  0.00  0.00    +0.000 A 
ATOM      9  C   UNL     1       4.532   4.504  16.717  0.00  0.00    +0.000 A 
ATOM     10  C   UNL     1       4.849   5.857  16.691  0.00  0.00    +0.000 A 
ATOM     11  C   UNL     1       4.111   6.766  17.458  0.00  0.00    +0.000 A 
ATOM     12  C   UNL     1       3.014   6.360  18.241  0.00  0.00    +0.000 A 
ATOM     13  C   UNL     1       2.697   4.987  18.224  0.00  0.00    +0.000 A 
BRANCH   8  15
ATOM     14  N   UNL     1       4.165   1.768  17.867  0.00  0.00    +0.000 N 
ATOM     15  C   UNL     1       3.131   2.622  17.606  0.00  0.00    +0.000 C 
ATOM     16  O   UNL     1       1.977   2.218  17.519  0.00  0.00    +0.000 OA
ATOM     17  H   UNL     1       3.918   0.805  18.060  0.00  0.00    +0.000 HD
ATOM     18  H   UNL     1       5.058   2.101  18.204  0.00  0.00    +0.000 HD
ENDBRANCH   8  15
ENDBRANCH   1  12
BRANCH   3  19
ATOM     19  C   UNL     1       0.709  10.835  18.687  0.00  0.00    +0.000 C 
BRANCH  19  20
ATOM     20  C   UNL     1      -0.790  11.012  18.477  0.00  0.00    +0.000 A 
ATOM     21  N   UNL     1      -1.314  10.373  17.474  0.00  0.00    +0.000 NA
ATOM     22  N   UNL     1      -2.646  10.526  17.262  0.00  0.00    +0.000 N 
ATOM     23  C   UNL     1      -3.490  11.317  17.989  0.00  0.00    +0.000 A 
ATOM     24  O   UNL     1      -4.672  11.462  17.691  0.00  0.00    +0.000 OA
ATOM     25  C   UNL     1      -2.896  11.979  19.177  0.00  0.00    +0.000 A 
ATOM     26  C   UNL     1      -1.580  11.856  19.431  0.00  0.00    +0.000 A 
ATOM     27  C   UNL     1      -0.932  12.506  20.623  0.00  0.00    +0.000 C 
ATOM     28  C   UNL     1      -1.828  13.531  21.327  0.00  0.00    +0.000 C 
ATOM     29  C   UNL     1      -3.259  13.024  21.446  0.00  0.00    +0.000 C 
ATOM     30  C   UNL     1      -3.846  12.737  20.063  0.00  0.00    +0.000 C 
ATOM     31  H   UNL     1      -3.034  10.058  16.449  0.00  0.00    +0.000 HD
ENDBRANCH  19  20
ENDBRANCH   3  19
TORSDOF 4
ENDMDL
