MODEL 1
REMARK VINA RESULT:      -7.9      0.000      0.000
REMARK  Name = 
REMARK  12 active torsions:
REMARK  status: ('A' for Active; 'I' for Inactive)
REMARK    1  A    between atoms: C_1  and  O_2
REMARK    2  A    between atoms: O_2  and  C_3
REMARK    3  A    between atoms: C_3  and  C_4
REMARK    4  A    between atoms: C_4  and  N_5
REMARK    5  A    between atoms: C_6  and  C_7
REMARK    6  A    between atoms: C_7  and  C_8
REMARK    7  A    between atoms: C_8  and  C_9
REMARK    8  A    between atoms: N_11  and  C_12
REMARK    9  A    between atoms: C_15  and  O_16
REMARK   10  A    between atoms: O_16  and  C_17
REMARK   11  A    between atoms: C_18  and  O_19
REMARK   12  A    between atoms: O_19  and  C_20
REMARK                            x       y       z     vdW  Elec       q    Type
REMARK                         _______ _______ _______ _____ _____    ______ ____
ROOT
ATOM      1  C   UNL     1       7.962   6.540  18.708  0.00  0.00    +0.000 C 
ENDROOT
BRANCH   1   2
ATOM      2  C   UNL     1       8.131   8.001  18.323  0.00  0.00    +0.000 C 
ATOM      3  O   UNL     1       7.549   8.416  17.322  0.00  0.00    +0.000 OA
ATOM      4  N   UNL     1       8.956   8.760  19.136  0.00  0.00    +0.000 N 
ATOM      5  H   UNL     1       9.541   8.301  19.814  0.00  0.00    +0.000 HD
BRANCH   4   6
ATOM      6  C   UNL     1       9.139  10.154  19.078  0.00  0.00    +0.000 A 
ATOM      7  C   UNL     1       8.997  10.882  17.905  0.00  0.00    +0.000 A 
ATOM      8  C   UNL     1       9.161  12.261  17.914  0.00  0.00    +0.000 A 
ATOM      9  C   UNL     1       9.445  12.952  19.099  0.00  0.00    +0.000 A 
ATOM     10  C   UNL     1       9.607  12.224  20.288  0.00  0.00    +0.000 A 
ATOM     11  C   UNL     1       9.445  10.830  20.265  0.00  0.00    +0.000 A 
BRANCH   9  12
ATOM     12  O   UNL     1       9.631  14.310  19.100  0.00  0.00    +0.000 OA
ATOM     13  C   UNL     1      10.339  14.821  17.974  0.00  0.00    +0.000 C 
ENDBRANCH   9  12
BRANCH  10  14
ATOM     14  O   UNL     1       9.942  12.701  21.531  0.00  0.00    +0.000 OA
ATOM     15  C   UNL     1       8.881  13.098  22.390  0.00  0.00    +0.000 C 
ENDBRANCH  10  14
ENDBRANCH   4   6
ENDBRANCH   1   2
BRANCH   1  16
ATOM     16  C   UNL     1       7.511   5.632  17.580  0.00  0.00    +0.000 C 
BRANCH  16  18
ATOM     17  N   UNL     1       5.333   4.547  16.921  0.00  0.00    +0.000 N 
ATOM     18  C   UNL     1       6.272   4.872  17.880  0.00  0.00    +0.000 A 
ATOM     19  N   UNL     1       5.942   4.389  19.062  0.00  0.00    +0.000 NA
ATOM     20  C   UNL     1       4.760   3.728  18.865  0.00  0.00    +0.000 A 
ATOM     21  C   UNL     1       3.940   3.030  19.758  0.00  0.00    +0.000 A 
ATOM     22  C   UNL     1       2.785   2.452  19.232  0.00  0.00    +0.000 A 
ATOM     23  C   UNL     1       2.503   2.599  17.879  0.00  0.00    +0.000 A 
ATOM     24  N   UNL     1       3.251   3.285  16.982  0.00  0.00    +0.000 NA
ATOM     25  C   UNL     1       4.363   3.808  17.538  0.00  0.00    +0.000 A 
BRANCH  17  26
ATOM     26  C   UNL     1       5.282   4.990  15.539  0.00  0.00    +0.000 C 
BRANCH  26  27
ATOM     27  C   UNL     1       6.113   4.169  14.550  0.00  0.00    +0.000 C 
BRANCH  27  29
ATOM     28  C   UNL     1       6.165   3.376  12.330  0.00  0.00    +0.000 C 
ATOM     29  O   UNL     1       5.351   3.867  13.388  0.00  0.00    +0.000 OA
ENDBRANCH  27  29
ENDBRANCH  26  27
ENDBRANCH  17  26
ENDBRANCH  16  18
ENDBRANCH   1  16
TORSDOF 9
ENDMDL
MODEL 2
REMARK VINA RESULT:      -7.9      4.521      7.007
REMARK  Name = 
REMARK  12 active torsions:
REMARK  status: ('A' for Active; 'I' for Inactive)
REMARK    1  A    between atoms: C_1  and  O_2
REMARK    2  A    between atoms: O_2  and  C_3
REMARK    3  A    between atoms: C_3  and  C_4
REMARK    4  A    between atoms: C_4  and  N_5
REMARK    5  A    between atoms: C_6  and  C_7
REMARK    6  A    between atoms: C_7  and  C_8
REMARK    7  A    between atoms: C_8  and  C_9
REMARK    8  A    between atoms: N_11  and  C_12
REMARK    9  A    between atoms: C_15  and  O_16
REMARK   10  A    between atoms: O_16  and  C_17
REMARK   11  A    between atoms: C_18  and  O_19
REMARK   12  A    between atoms: O_19  and  C_20
REMARK                            x       y       z     vdW  Elec       q    Type
REMARK                         _______ _______ _______ _____ _____    ______ ____
ROOT
ATOM      1  C   UNL     1       3.766   3.962  19.178  0.00  0.00    +0.000 C 
ENDROOT
BRANCH   1   2
ATOM      2  C   UNL     1       2.799   5.087  18.847  0.00  0.00    +0.000 C 
ATOM      3  O   UNL     1       1.747   4.807  18.273  0.00  0.00    +0.000 OA
ATOM      4  N   UNL     1       3.191   6.364  19.210  0.00  0.00    +0.000 N 
ATOM      5  H   UNL     1       4.142   6.526  19.498  0.00  0.00    +0.000 HD
BRANCH   4   6
ATOM      6  C   UNL     1       2.407   7.531  19.155  0.00  0.00    +0.000 A 
ATOM      7  C   UNL     1       2.143   8.202  17.970  0.00  0.00    +0.000 A 
ATOM      8  C   UNL     1       1.337   9.334  17.972  0.00  0.00    +0.000 A 
ATOM      9  C   UNL     1       0.754   9.809  19.154  0.00  0.00    +0.000 A 
ATOM     10  C   UNL     1       1.028   9.148  20.360  0.00  0.00    +0.000 A 
ATOM     11  C   UNL     1       1.849   8.009  20.347  0.00  0.00    +0.000 A 
BRANCH   9  12
ATOM     12  O   UNL     1      -0.020  10.940  19.156  0.00  0.00    +0.000 OA
ATOM     13  C   UNL     1      -1.129  10.912  18.261  0.00  0.00    +0.000 C 
ENDBRANCH   9  12
BRANCH  10  14
ATOM     14  O   UNL     1       0.607   9.485  21.623  0.00  0.00    +0.000 OA
ATOM     15  C   UNL     1      -0.635   8.954  22.064  0.00  0.00    +0.000 C 
ENDBRANCH  10  14
ENDBRANCH   4   6
ENDBRANCH   1   2
BRANCH   1  16
ATOM     16  C   UNL     1       5.230   4.293  18.956  0.00  0.00    +0.000 C 
BRANCH  16  18
ATOM     17  N   UNL     1       6.679   5.113  17.064  0.00  0.00    +0.000 N 
ATOM     18  C   UNL     1       5.620   4.356  17.526  0.00  0.00    +0.000 A 
ATOM     19  N   UNL     1       5.048   3.681  16.549  0.00  0.00    +0.000 NA
ATOM     20  C   UNL     1       5.754   4.004  15.423  0.00  0.00    +0.000 A 
ATOM     21  C   UNL     1       5.598   3.598  14.093  0.00  0.00    +0.000 A 
ATOM     22  C   UNL     1       6.504   4.111  13.167  0.00  0.00    +0.000 A 
ATOM     23  C   UNL     1       7.494   4.989  13.594  0.00  0.00    +0.000 A 
ATOM     24  N   UNL     1       7.670   5.431  14.863  0.00  0.00    +0.000 NA
ATOM     25  C   UNL     1       6.779   4.891  15.719  0.00  0.00    +0.000 A 
BRANCH  17  26
ATOM     26  C   UNL     1       7.479   6.071  17.806  0.00  0.00    +0.000 C 
BRANCH  26  27
ATOM     27  C   UNL     1       7.054   7.535  17.670  0.00  0.00    +0.000 C 
BRANCH  27  29
ATOM     28  C   UNL     1       8.292   9.507  18.044  0.00  0.00    +0.000 C 
ATOM     29  O   UNL     1       8.151   8.336  17.248  0.00  0.00    +0.000 OA
ENDBRANCH  27  29
ENDBRANCH  26  27
ENDBRANCH  17  26
ENDBRANCH  16  18
ENDBRANCH   1  16
TORSDOF 9
ENDMDL
MODEL 3
REMARK VINA RESULT:      -7.6      4.210      6.295
REMARK  Name = 
REMARK  12 active torsions:
REMARK  status: ('A' for Active; 'I' for Inactive)
REMARK    1  A    between atoms: C_1  and  O_2
REMARK    2  A    between atoms: O_2  and  C_3
REMARK    3  A    between atoms: C_3  and  C_4
REMARK    4  A    between atoms: C_4  and  N_5
REMARK    5  A    between atoms: C_6  and  C_7
REMARK    6  A    between atoms: C_7  and  C_8
REMARK    7  A    between atoms: C_8  and  C_9
REMARK    8  A    between atoms: N_11  and  C_12
REMARK    9  A    between atoms: C_15  and  O_16
REMARK   10  A    between atoms: O_16  and  C_17
REMARK   11  A    between atoms: C_18  and  O_19
REMARK   12  A    between atoms: O_19  and  C_20
REMARK                            x       y       z     vdW  Elec       q    Type
REMARK                         _______ _______ _______ _____ _____    ______ ____
ROOT
ATOM      1  C   UNL     1       2.772   3.233  18.835  0.00  0.00    +0.000 C 
ENDROOT
BRANCH   1   2
ATOM      2  C   UNL     1       2.232   4.606  18.466  0.00  0.00    +0.000 C 
ATOM      3  O   UNL     1       1.357   4.681  17.604  0.00  0.00    +0.000 OA
ATOM      4  N   UNL     1       2.790   5.686  19.128  0.00  0.00    +0.000 N 
ATOM      5  H   UNL     1       3.627   5.554  19.671  0.00  0.00    +0.000 HD
BRANCH   4   6
ATOM      6  C   UNL     1       2.351   7.022  19.076  0.00  0.00    +0.000 A 
ATOM      7  C   UNL     1       2.568   7.840  17.976  0.00  0.00    +0.000 A 
ATOM      8  C   UNL     1       2.085   9.143  17.968  0.00  0.00    +0.000 A 
ATOM      9  C   UNL     1       1.353   9.653  19.047  0.00  0.00    +0.000 A 
ATOM     10  C   UNL     1       1.142   8.840  20.171  0.00  0.00    +0.000 A 
ATOM     11  C   UNL     1       1.640   7.528  20.170  0.00  0.00    +0.000 A 
BRANCH   9  12
ATOM     12  O   UNL     1       0.899  10.947  19.046  0.00  0.00    +0.000 OA
ATOM     13  C   UNL     1       1.837  11.912  18.578  0.00  0.00    +0.000 C 
ENDBRANCH   9  12
BRANCH  10  14
ATOM     14  O   UNL     1       0.507   9.167  21.344  0.00  0.00    +0.000 OA
ATOM     15  C   UNL     1       1.297   9.225  22.524  0.00  0.00    +0.000 C 
ENDBRANCH  10  14
ENDBRANCH   4   6
ENDBRANCH   1   2
BRANCH   1  16
ATOM     16  C   UNL     1       4.057   2.843  18.131  0.00  0.00    +0.000 C 
BRANCH  16  18
ATOM     17  N   UNL     1       5.407   4.661  17.024  0.00  0.00    +0.000 N 
ATOM     18  C   UNL     1       5.092   3.906  18.137  0.00  0.00    +0.000 A 
ATOM     19  N   UNL     1       5.791   4.282  19.189  0.00  0.00    +0.000 NA
ATOM     20  C   UNL     1       6.579   5.311  18.752  0.00  0.00    +0.000 A 
ATOM     21  C   UNL     1       7.528   6.090  19.423  0.00  0.00    +0.000 A 
ATOM     22  C   UNL     1       8.165   7.084  18.681  0.00  0.00    +0.000 A 
ATOM     23  C   UNL     1       7.844   7.246  17.338  0.00  0.00    +0.000 A 
ATOM     24  N   UNL     1       6.953   6.502  16.640  0.00  0.00    +0.000 NA
ATOM     25  C   UNL     1       6.355   5.569  17.407  0.00  0.00    +0.000 A 
BRANCH  17  26
ATOM     26  C   UNL     1       4.940   4.476  15.662  0.00  0.00    +0.000 C 
BRANCH  26  27
ATOM     27  C   UNL     1       5.815   3.587  14.776  0.00  0.00    +0.000 C 
BRANCH  27  29
ATOM     28  C   UNL     1       6.283   3.550  12.465  0.00  0.00    +0.000 C 
ATOM     29  O   UNL     1       6.305   4.321  13.660  0.00  0.00    +0.000 OA
ENDBRANCH  27  29
ENDBRANCH  26  27
ENDBRANCH  17  26
ENDBRANCH  16  18
ENDBRANCH   1  16
TORSDOF 9
ENDMDL
MODEL 4
REMARK VINA RESULT:      -7.6      1.004      1.108
REMARK  Name = 
REMARK  12 active torsions:
REMARK  status: ('A' for Active; 'I' for Inactive)
REMARK    1  A    between atoms: C_1  and  O_2
REMARK    2  A    between atoms: O_2  and  C_3
REMARK    3  A    between atoms: C_3  and  C_4
REMARK    4  A    between atoms: C_4  and  N_5
REMARK    5  A    between atoms: C_6  and  C_7
REMARK    6  A    between atoms: C_7  and  C_8
REMARK    7  A    between atoms: C_8  and  C_9
REMARK    8  A    between atoms: N_11  and  C_12
REMARK    9  A    between atoms: C_15  and  O_16
REMARK   10  A    between atoms: O_16  and  C_17
REMARK   11  A    between atoms: C_18  and  O_19
REMARK   12  A    between atoms: O_19  and  C_20
REMARK                            x       y       z     vdW  Elec       q    Type
REMARK                         _______ _______ _______ _____ _____    ______ ____
ROOT
ATOM      1  C   UNL     1       8.082   6.430  18.971  0.00  0.00    +0.000 C 
ENDROOT
BRANCH   1   2
ATOM      2  C   UNL     1       8.270   7.847  18.455  0.00  0.00    +0.000 C 
ATOM      3  O   UNL     1       7.827   8.132  17.343  0.00  0.00    +0.000 OA
ATOM      4  N   UNL     1       8.954   8.719  19.285  0.00  0.00    +0.000 N 
ATOM      5  H   UNL     1       9.447   8.357  20.085  0.00  0.00    +0.000 HD
BRANCH   4   6
ATOM      6  C   UNL     1       9.112  10.105  19.101  0.00  0.00    +0.000 A 
ATOM      7  C   UNL     1       8.846  10.736  17.894  0.00  0.00    +0.000 A 
ATOM      8  C   UNL     1       8.991  12.113  17.778  0.00  0.00    +0.000 A 
ATOM      9  C   UNL     1       9.379  12.898  18.872  0.00  0.00    +0.000 A 
ATOM     10  C   UNL     1       9.666  12.268  20.092  0.00  0.00    +0.000 A 
ATOM     11  C   UNL     1       9.522  10.875  20.195  0.00  0.00    +0.000 A 
BRANCH   9  12
ATOM     12  O   UNL     1       9.545  14.253  18.748  0.00  0.00    +0.000 OA
ATOM     13  C   UNL     1       8.387  14.964  18.321  0.00  0.00    +0.000 C 
ENDBRANCH   9  12
BRANCH  10  14
ATOM     14  O   UNL     1      10.114  12.844  21.255  0.00  0.00    +0.000 OA
ATOM     15  C   UNL     1       9.138  13.352  22.154  0.00  0.00    +0.000 C 
ENDBRANCH  10  14
ENDBRANCH   4   6
ENDBRANCH   1   2
BRANCH   1  16
ATOM     16  C   UNL     1       7.530   5.449  17.954  0.00  0.00    +0.000 C 
BRANCH  16  18
ATOM     17  N   UNL     1       5.040   5.371  17.573  0.00  0.00    +0.000 N 
ATOM     18  C   UNL     1       6.163   4.965  18.267  0.00  0.00    +0.000 A 
ATOM     19  N   UNL     1       5.862   4.079  19.195  0.00  0.00    +0.000 NA
ATOM     20  C   UNL     1       4.510   3.899  19.100  0.00  0.00    +0.000 A 
ATOM     21  C   UNL     1       3.638   3.086  19.833  0.00  0.00    +0.000 A 
ATOM     22  C   UNL     1       2.291   3.125  19.477  0.00  0.00    +0.000 A 
ATOM     23  C   UNL     1       1.882   3.957  18.440  0.00  0.00    +0.000 A 
ATOM     24  N   UNL     1       2.682   4.780  17.720  0.00  0.00    +0.000 NA
ATOM     25  C   UNL     1       3.975   4.690  18.093  0.00  0.00    +0.000 A 
BRANCH  17  26
ATOM     26  C   UNL     1       4.944   6.411  16.564  0.00  0.00    +0.000 C 
BRANCH  26  27
ATOM     27  C   UNL     1       5.122   5.947  15.117  0.00  0.00    +0.000 C 
BRANCH  27  29
ATOM     28  C   UNL     1       6.704   4.363  14.378  0.00  0.00    +0.000 C 
ATOM     29  O   UNL     1       6.493   5.692  14.838  0.00  0.00    +0.000 OA
ENDBRANCH  27  29
ENDBRANCH  26  27
ENDBRANCH  17  26
ENDBRANCH  16  18
ENDBRANCH   1  16
TORSDOF 9
ENDMDL
MODEL 5
REMARK VINA RESULT:      -7.6      1.676      2.436
REMARK  Name = 
REMARK  12 active torsions:
REMARK  status: ('A' for Active; 'I' for Inactive)
REMARK    1  A    between atoms: C_1  and  O_2
REMARK    2  A    between atoms: O_2  and  C_3
REMARK    3  A    between atoms: C_3  and  C_4
REMARK    4  A    between atoms: C_4  and  N_5
REMARK    5  A    between atoms: C_6  and  C_7
REMARK    6  A    between atoms: C_7  and  C_8
REMARK    7  A    between atoms: C_8  and  C_9
REMARK    8  A    between atoms: N_11  and  C_12
REMARK    9  A    between atoms: C_15  and  O_16
REMARK   10  A    between atoms: O_16  and  C_17
REMARK   11  A    between atoms: C_18  and  O_19
REMARK   12  A    between atoms: O_19  and  C_20
REMARK                            x       y       z     vdW  Elec       q    Type
REMARK                         _______ _______ _______ _____ _____    ______ ____
ROOT
ATOM      1  C   UNL     1       7.992   7.570  18.317  0.00  0.00    +0.000 C 
ENDROOT
BRANCH   1   2
ATOM      2  C   UNL     1       8.286   9.061  18.300  0.00  0.00    +0.000 C 
ATOM      3  O   UNL     1       7.670   9.772  17.508  0.00  0.00    +0.000 OA
ATOM      4  N   UNL     1       9.254   9.509  19.183  0.00  0.00    +0.000 N 
ATOM      5  H   UNL     1       9.841   8.840  19.654  0.00  0.00    +0.000 HD
BRANCH   4   6
ATOM      6  C   UNL     1       9.583  10.848  19.462  0.00  0.00    +0.000 A 
ATOM      7  C   UNL     1       9.658  11.348  20.754  0.00  0.00    +0.000 A 
ATOM      8  C   UNL     1      10.017  12.673  20.971  0.00  0.00    +0.000 A 
ATOM      9  C   UNL     1      10.334  13.524  19.905  0.00  0.00    +0.000 A 
ATOM     10  C   UNL     1      10.246  13.033  18.593  0.00  0.00    +0.000 A 
ATOM     11  C   UNL     1       9.876  11.695  18.386  0.00  0.00    +0.000 A 
BRANCH   9  12
ATOM     12  O   UNL     1      10.664  14.837  20.121  0.00  0.00    +0.000 OA
ATOM     13  C   UNL     1      12.037  15.155  19.913  0.00  0.00    +0.000 C 
ENDBRANCH   9  12
BRANCH  10  14
ATOM     14  O   UNL     1      10.456  13.715  17.420  0.00  0.00    +0.000 OA
ATOM     15  C   UNL     1      11.562  13.319  16.620  0.00  0.00    +0.000 C 
ENDBRANCH  10  14
ENDBRANCH   4   6
ENDBRANCH   1   2
BRANCH   1  16
ATOM     16  C   UNL     1       7.433   7.015  17.021  0.00  0.00    +0.000 C 
BRANCH  16  18
ATOM     17  N   UNL     1       5.843   5.077  16.762  0.00  0.00    +0.000 N 
ATOM     18  C   UNL     1       6.104   6.371  17.168  0.00  0.00    +0.000 A 
ATOM     19  N   UNL     1       5.047   6.924  17.728  0.00  0.00    +0.000 NA
ATOM     20  C   UNL     1       4.073   5.964  17.690  0.00  0.00    +0.000 A 
ATOM     21  C   UNL     1       2.745   5.986  18.131  0.00  0.00    +0.000 A 
ATOM     22  C   UNL     1       2.003   4.820  17.950  0.00  0.00    +0.000 A 
ATOM     23  C   UNL     1       2.597   3.718  17.347  0.00  0.00    +0.000 A 
ATOM     24  N   UNL     1       3.868   3.657  16.882  0.00  0.00    +0.000 NA
ATOM     25  C   UNL     1       4.546   4.802  17.097  0.00  0.00    +0.000 A 
BRANCH  17  26
ATOM     26  C   UNL     1       6.708   4.188  16.008  0.00  0.00    +0.000 C 
BRANCH  26  27
ATOM     27  C   UNL     1       6.688   4.374  14.490  0.00  0.00    +0.000 C 
BRANCH  27  29
ATOM     28  C   UNL     1       7.862   5.318  12.676  0.00  0.00    +0.000 C 
ATOM     29  O   UNL     1       7.683   5.307  14.087  0.00  0.00    +0.000 OA
ENDBRANCH  27  29
ENDBRANCH  26  27
ENDBRANCH  17  26
ENDBRANCH  16  18
ENDBRANCH   1  16
TORSDOF 9
ENDMDL
MODEL 6
REMARK VINA RESULT:      -7.4      1.621      1.861
REMARK  Name = 
REMARK  12 active torsions:
REMARK  status: ('A' for Active; 'I' for Inactive)
REMARK    1  A    between atoms: C_1  and  O_2
REMARK    2  A    between atoms: O_2  and  C_3
REMARK    3  A    between atoms: C_3  and  C_4
REMARK    4  A    between atoms: C_4  and  N_5
REMARK    5  A    between atoms: C_6  and  C_7
REMARK    6  A    between atoms: C_7  and  C_8
REMARK    7  A    between atoms: C_8  and  C_9
REMARK    8  A    between atoms: N_11  and  C_12
REMARK    9  A    between atoms: C_15  and  O_16
REMARK   10  A    between atoms: O_16  and  C_17
REMARK   11  A    between atoms: C_18  and  O_19
REMARK   12  A    between atoms: O_19  and  C_20
REMARK                            x       y       z     vdW  Elec       q    Type
REMARK                         _______ _______ _______ _____ _____    ______ ____
ROOT
ATOM      1  C   UNL     1       8.018   7.715  18.235  0.00  0.00    +0.000 C 
ENDROOT
BRANCH   1   2
ATOM      2  C   UNL     1       8.424   9.173  18.374  0.00  0.00    +0.000 C 
ATOM      3  O   UNL     1       7.948   9.992  17.588  0.00  0.00    +0.000 OA
ATOM      4  N   UNL     1       9.326   9.469  19.381  0.00  0.00    +0.000 N 
ATOM      5  H   UNL     1       9.809   8.719  19.848  0.00  0.00    +0.000 HD
BRANCH   4   6
ATOM      6  C   UNL     1       9.724  10.751  19.803  0.00  0.00    +0.000 A 
ATOM      7  C   UNL     1      10.686  11.496  19.135  0.00  0.00    +0.000 A 
ATOM      8  C   UNL     1      11.018  12.769  19.580  0.00  0.00    +0.000 A 
ATOM      9  C   UNL     1      10.380  13.341  20.688  0.00  0.00    +0.000 A 
ATOM     10  C   UNL     1       9.417  12.591  21.380  0.00  0.00    +0.000 A 
ATOM     11  C   UNL     1       9.095  11.303  20.925  0.00  0.00    +0.000 A 
BRANCH   9  12
ATOM     12  O   UNL     1      10.727  14.588  21.139  0.00  0.00    +0.000 OA
ATOM     13  C   UNL     1      11.540  15.346  20.247  0.00  0.00    +0.000 C 
ENDBRANCH   9  12
BRANCH  10  14
ATOM     14  O   UNL     1       8.726  12.943  22.513  0.00  0.00    +0.000 OA
ATOM     15  C   UNL     1       8.336  11.899  23.395  0.00  0.00    +0.000 C 
ENDBRANCH  10  14
ENDBRANCH   4   6
ENDBRANCH   1   2
BRANCH   1  16
ATOM     16  C   UNL     1       7.326   7.366  16.931  0.00  0.00    +0.000 C 
BRANCH  16  18
ATOM     17  N   UNL     1       5.909   5.288  16.762  0.00  0.00    +0.000 N 
ATOM     18  C   UNL     1       6.057   6.618  17.107  0.00  0.00    +0.000 A 
ATOM     19  N   UNL     1       4.953   7.104  17.638  0.00  0.00    +0.000 NA
ATOM     20  C   UNL     1       4.065   6.064  17.645  0.00  0.00    +0.000 A 
ATOM     21  C   UNL     1       2.738   5.992  18.082  0.00  0.00    +0.000 A 
ATOM     22  C   UNL     1       2.099   4.760  17.957  0.00  0.00    +0.000 A 
ATOM     23  C   UNL     1       2.789   3.685  17.407  0.00  0.00    +0.000 A 
ATOM     24  N   UNL     1       4.063   3.711  16.948  0.00  0.00    +0.000 NA
ATOM     25  C   UNL     1       4.639   4.920  17.108  0.00  0.00    +0.000 A 
BRANCH  17  26
ATOM     26  C   UNL     1       6.852   4.443  16.053  0.00  0.00    +0.000 C 
BRANCH  26  27
ATOM     27  C   UNL     1       6.914   4.646  14.538  0.00  0.00    +0.000 C 
BRANCH  27  29
ATOM     28  C   UNL     1       6.359   3.549  12.526  0.00  0.00    +0.000 C 
ATOM     29  O   UNL     1       5.992   3.786  13.879  0.00  0.00    +0.000 OA
ENDBRANCH  27  29
ENDBRANCH  26  27
ENDBRANCH  17  26
ENDBRANCH  16  18
ENDBRANCH   1  16
TORSDOF 9
ENDMDL
MODEL 7
REMARK VINA RESULT:      -7.4      1.306      2.034
REMARK  Name = 
REMARK  12 active torsions:
REMARK  status: ('A' for Active; 'I' for Inactive)
REMARK    1  A    between atoms: C_1  and  O_2
REMARK    2  A    between atoms: O_2  and  C_3
REMARK    3  A    between atoms: C_3  and  C_4
REMARK    4  A    between atoms: C_4  and  N_5
REMARK    5  A    between atoms: C_6  and  C_7
REMARK    6  A    between atoms: C_7  and  C_8
REMARK    7  A    between atoms: C_8  and  C_9
REMARK    8  A    between atoms: N_11  and  C_12
REMARK    9  A    between atoms: C_15  and  O_16
REMARK   10  A    between atoms: O_16  and  C_17
REMARK   11  A    between atoms: C_18  and  O_19
REMARK   12  A    between atoms: O_19  and  C_20
REMARK                            x       y       z     vdW  Elec       q    Type
REMARK                         _______ _______ _______ _____ _____    ______ ____
ROOT
ATOM      1  C   UNL     1       7.981   6.786  18.452  0.00  0.00    +0.000 C 
ENDROOT
BRANCH   1   2
ATOM      2  C   UNL     1       8.185   8.281  18.269  0.00  0.00    +0.000 C 
ATOM      3  O   UNL     1       7.608   8.843  17.339  0.00  0.00    +0.000 OA
ATOM      4  N   UNL     1       9.033   8.902  19.170  0.00  0.00    +0.000 N 
ATOM      5  H   UNL     1       9.610   8.341  19.775  0.00  0.00    +0.000 HD
BRANCH   4   6
ATOM      6  C   UNL     1       9.251  10.286  19.302  0.00  0.00    +0.000 A 
ATOM      7  C   UNL     1       9.091  10.959  20.505  0.00  0.00    +0.000 A 
ATOM      8  C   UNL     1       9.350  12.322  20.583  0.00  0.00    +0.000 A 
ATOM      9  C   UNL     1       9.799  13.042  19.469  0.00  0.00    +0.000 A 
ATOM     10  C   UNL     1       9.949  12.374  18.244  0.00  0.00    +0.000 A 
ATOM     11  C   UNL     1       9.678  10.999  18.175  0.00  0.00    +0.000 A 
BRANCH   9  12
ATOM     12  O   UNL     1      10.030  14.391  19.543  0.00  0.00    +0.000 OA
ATOM     13  C   UNL     1      10.875  14.799  20.615  0.00  0.00    +0.000 C 
ENDBRANCH   9  12
BRANCH  10  14
ATOM     14  O   UNL     1      10.317  12.905  17.032  0.00  0.00    +0.000 OA
ATOM     15  C   UNL     1      11.685  13.248  16.855  0.00  0.00    +0.000 C 
ENDBRANCH  10  14
ENDBRANCH   4   6
ENDBRANCH   1   2
BRANCH   1  16
ATOM     16  C   UNL     1       7.293   6.089  17.294  0.00  0.00    +0.000 C 
BRANCH  16  18
ATOM     17  N   UNL     1       5.273   4.638  16.886  0.00  0.00    +0.000 N 
ATOM     18  C   UNL     1       5.918   5.627  17.603  0.00  0.00    +0.000 A 
ATOM     19  N   UNL     1       5.174   6.062  18.602  0.00  0.00    +0.000 NA
ATOM     20  C   UNL     1       4.018   5.334  18.536  0.00  0.00    +0.000 A 
ATOM     21  C   UNL     1       2.867   5.366  19.330  0.00  0.00    +0.000 A 
ATOM     22  C   UNL     1       1.848   4.474  18.999  0.00  0.00    +0.000 A 
ATOM     23  C   UNL     1       2.015   3.618  17.916  0.00  0.00    +0.000 A 
ATOM     24  N   UNL     1       3.097   3.567  17.104  0.00  0.00    +0.000 NA
ATOM     25  C   UNL     1       4.057   4.437  17.478  0.00  0.00    +0.000 A 
BRANCH  17  26
ATOM     26  C   UNL     1       5.713   3.998  15.659  0.00  0.00    +0.000 C 
BRANCH  26  27
ATOM     27  C   UNL     1       5.799   4.908  14.432  0.00  0.00    +0.000 C 
BRANCH  27  29
ATOM     28  C   UNL     1       6.120   3.343  12.698  0.00  0.00    +0.000 C 
ATOM     29  O   UNL     1       6.710   4.375  13.478  0.00  0.00    +0.000 OA
ENDBRANCH  27  29
ENDBRANCH  26  27
ENDBRANCH  17  26
ENDBRANCH  16  18
ENDBRANCH   1  16
TORSDOF 9
ENDMDL
MODEL 8
REMARK VINA RESULT:      -7.4      1.243      2.038
REMARK  Name = 
REMARK  12 active torsions:
REMARK  status: ('A' for Active; 'I' for Inactive)
REMARK    1  A    between atoms: C_1  and  O_2
REMARK    2  A    between atoms: O_2  and  C_3
REMARK    3  A    between atoms: C_3  and  C_4
REMARK    4  A    between atoms: C_4  and  N_5
REMARK    5  A    between atoms: C_6  and  C_7
REMARK    6  A    between atoms: C_7  and  C_8
REMARK    7  A    between atoms: C_8  and  C_9
REMARK    8  A    between atoms: N_11  and  C_12
REMARK    9  A    between atoms: C_15  and  O_16
REMARK   10  A    between atoms: O_16  and  C_17
REMARK   11  A    between atoms: C_18  and  O_19
REMARK   12  A    between atoms: O_19  and  C_20
REMARK                            x       y       z     vdW  Elec       q    Type
REMARK                         _______ _______ _______ _____ _____    ______ ____
ROOT
ATOM      1  C   UNL     1       8.172   7.532  18.378  0.00  0.00    +0.000 C 
ENDROOT
BRANCH   1   2
ATOM      2  C   UNL     1       8.440   9.025  18.480  0.00  0.00    +0.000 C 
ATOM      3  O   UNL     1       7.811   9.786  17.745  0.00  0.00    +0.000 OA
ATOM      4  N   UNL     1       9.399   9.419  19.397  0.00  0.00    +0.000 N 
ATOM      5  H   UNL     1       9.997   8.725  19.816  0.00  0.00    +0.000 HD
BRANCH   4   6
ATOM      6  C   UNL     1       9.702  10.738  19.782  0.00  0.00    +0.000 A 
ATOM      7  C   UNL     1       9.231  11.303  20.959  0.00  0.00    +0.000 A 
ATOM      8  C   UNL     1       9.588  12.601  21.302  0.00  0.00    +0.000 A 
ATOM      9  C   UNL     1      10.446  13.357  20.494  0.00  0.00    +0.000 A 
ATOM     10  C   UNL     1      10.915  12.801  19.294  0.00  0.00    +0.000 A 
ATOM     11  C   UNL     1      10.542  11.491  18.954  0.00  0.00    +0.000 A 
BRANCH   9  12
ATOM     12  O   UNL     1      10.776  14.646  20.824  0.00  0.00    +0.000 OA
ATOM     13  C   UNL     1      10.133  15.152  21.990  0.00  0.00    +0.000 C 
ENDBRANCH   9  12
BRANCH  10  14
ATOM     14  O   UNL     1      11.709  13.392  18.343  0.00  0.00    +0.000 OA
ATOM     15  C   UNL     1      11.068  13.921  17.190  0.00  0.00    +0.000 C 
ENDBRANCH  10  14
ENDBRANCH   4   6
ENDBRANCH   1   2
BRANCH   1  16
ATOM     16  C   UNL     1       7.218   7.129  17.271  0.00  0.00    +0.000 C 
BRANCH  16  18
ATOM     17  N   UNL     1       5.627   5.256  16.709  0.00  0.00    +0.000 N 
ATOM     18  C   UNL     1       6.306   6.018  17.640  0.00  0.00    +0.000 A 
ATOM     19  N   UNL     1       6.070   5.602  18.869  0.00  0.00    +0.000 NA
ATOM     20  C   UNL     1       5.219   4.540  18.734  0.00  0.00    +0.000 A 
ATOM     21  C   UNL     1       4.625   3.712  19.693  0.00  0.00    +0.000 A 
ATOM     22  C   UNL     1       3.798   2.694  19.222  0.00  0.00    +0.000 A 
ATOM     23  C   UNL     1       3.597   2.556  17.853  0.00  0.00    +0.000 A 
ATOM     24  N   UNL     1       4.128   3.346  16.889  0.00  0.00    +0.000 NA
ATOM     25  C   UNL     1       4.932   4.301  17.398  0.00  0.00    +0.000 A 
BRANCH  17  26
ATOM     26  C   UNL     1       5.540   5.471  15.276  0.00  0.00    +0.000 C 
BRANCH  26  27
ATOM     27  C   UNL     1       6.416   4.558  14.415  0.00  0.00    +0.000 C 
BRANCH  27  29
ATOM     28  C   UNL     1       6.410   3.475  12.321  0.00  0.00    +0.000 C 
ATOM     29  O   UNL     1       5.630   3.891  13.435  0.00  0.00    +0.000 OA
ENDBRANCH  27  29
ENDBRANCH  26  27
ENDBRANCH  17  26
ENDBRANCH  16  18
ENDBRANCH   1  16
TORSDOF 9
ENDMDL
MODEL 9
REMARK VINA RESULT:      -7.4      1.745      3.938
REMARK  Name = 
REMARK  12 active torsions:
REMARK  status: ('A' for Active; 'I' for Inactive)
REMARK    1  A    between atoms: C_1  and  O_2
REMARK    2  A    between atoms: O_2  and  C_3
REMARK    3  A    between atoms: C_3  and  C_4
REMARK    4  A    between atoms: C_4  and  N_5
REMARK    5  A    between atoms: C_6  and  C_7
REMARK    6  A    between atoms: C_7  and  C_8
REMARK    7  A    between atoms: C_8  and  C_9
REMARK    8  A    between atoms: N_11  and  C_12
REMARK    9  A    between atoms: C_15  and  O_16
REMARK   10  A    between atoms: O_16  and  C_17
REMARK   11  A    between atoms: C_18  and  O_19
REMARK   12  A    between atoms: O_19  and  C_20
REMARK                            x       y       z     vdW  Elec       q    Type
REMARK                         _______ _______ _______ _____ _____    ______ ____
ROOT
ATOM      1  C   UNL     1       8.030   6.722  18.402  0.00  0.00    +0.000 C 
ENDROOT
BRANCH   1   2
ATOM      2  C   UNL     1       8.159   8.232  18.287  0.00  0.00    +0.000 C 
ATOM      3  O   UNL     1       7.466   8.820  17.457  0.00  0.00    +0.000 OA
ATOM      4  N   UNL     1       9.076   8.839  19.129  0.00  0.00    +0.000 N 
ATOM      5  H   UNL     1       9.734   8.269  19.635  0.00  0.00    +0.000 HD
BRANCH   4   6
ATOM      6  C   UNL     1       9.257  10.221  19.318  0.00  0.00    +0.000 A 
ATOM      7  C   UNL     1       9.179  10.823  20.566  0.00  0.00    +0.000 A 
ATOM      8  C   UNL     1       9.396  12.189  20.697  0.00  0.00    +0.000 A 
ATOM      9  C   UNL     1       9.723  12.983  19.591  0.00  0.00    +0.000 A 
ATOM     10  C   UNL     1       9.788  12.387  18.322  0.00  0.00    +0.000 A 
ATOM     11  C   UNL     1       9.560  11.007  18.201  0.00  0.00    +0.000 A 
BRANCH   9  12
ATOM     12  O   UNL     1       9.912  14.335  19.720  0.00  0.00    +0.000 OA
ATOM     13  C   UNL     1       8.721  15.094  19.912  0.00  0.00    +0.000 C 
ENDBRANCH   9  12
BRANCH  10  14
ATOM     14  O   UNL     1      10.032  12.994  17.115  0.00  0.00    +0.000 OA
ATOM     15  C   UNL     1      11.389  13.226  16.759  0.00  0.00    +0.000 C 
ENDBRANCH  10  14
ENDBRANCH   4   6
ENDBRANCH   1   2
BRANCH   1  16
ATOM     16  C   UNL     1       6.697   6.159  17.949  0.00  0.00    +0.000 C 
BRANCH  16  18
ATOM     17  N   UNL     1       5.818   4.632  16.146  0.00  0.00    +0.000 N 
ATOM     18  C   UNL     1       6.723   5.580  16.583  0.00  0.00    +0.000 A 
ATOM     19  N   UNL     1       7.564   5.921  15.627  0.00  0.00    +0.000 NA
ATOM     20  C   UNL     1       7.196   5.179  14.538  0.00  0.00    +0.000 A 
ATOM     21  C   UNL     1       7.730   5.115  13.247  0.00  0.00    +0.000 A 
ATOM     22  C   UNL     1       7.109   4.247  12.350  0.00  0.00    +0.000 A 
ATOM     23  C   UNL     1       6.017   3.496  12.771  0.00  0.00    +0.000 A 
ATOM     24  N   UNL     1       5.480   3.504  14.015  0.00  0.00    +0.000 NA
ATOM     25  C   UNL     1       6.107   4.371  14.836  0.00  0.00    +0.000 A 
BRANCH  17  26
ATOM     26  C   UNL     1       4.819   3.928  16.929  0.00  0.00    +0.000 C 
BRANCH  26  27
ATOM     27  C   UNL     1       3.540   4.713  17.229  0.00  0.00    +0.000 C 
BRANCH  27  29
ATOM     28  C   UNL     1       4.052   3.900  19.382  0.00  0.00    +0.000 C 
ATOM     29  O   UNL     1       3.030   4.367  18.511  0.00  0.00    +0.000 OA
ENDBRANCH  27  29
ENDBRANCH  26  27
ENDBRANCH  17  26
ENDBRANCH  16  18
ENDBRANCH   1  16
TORSDOF 9
ENDMDL
