MODEL 1
REMARK VINA RESULT:      -7.3      0.000      0.000
REMARK  Name = 
REMARK  4 active torsions:
REMARK  status: ('A' for Active; 'I' for Inactive)
REMARK    1  A    between atoms: C_2  and  C_3
REMARK    2  A    between atoms: C_3  and  C_4
REMARK    3  A    between atoms: C_7  and  C_8
REMARK    4  A    between atoms: N_10  and  C_11
REMARK                            x       y       z     vdW  Elec       q    Type
REMARK                         _______ _______ _______ _____ _____    ______ ____
ROOT
ATOM      1  C   UNL     1       1.643   8.137  20.030  0.00  0.00    +0.000 A 
ATOM      2  C   UNL     1       2.051   6.863  20.364  0.00  0.00    +0.000 A 
ATOM      3  N   UNL     1       2.701   6.419  19.246  0.00  0.00    +0.000 N 
ATOM      4  N   UNL     1       2.742   7.373  18.302  0.00  0.00    +0.000 NA
ATOM      5  N   UNL     1       2.081   8.423  18.763  0.00  0.00    +0.000 NA
ENDROOT
BRANCH   3   6
ATOM      6  C   UNL     1       3.293   5.111  19.034  0.00  0.00    +0.000 C 
ATOM      7  C   UNL     1       2.979   4.074  20.144  0.00  0.00    +0.000 C 
ATOM      8  N   UNL     1       2.424   2.810  19.590  0.00  0.00    +0.000 NA
ATOM      9  C   UNL     1       1.174   3.140  18.863  0.00  0.00    +0.000 C 
ATOM     10  C   UNL     1       1.438   4.073  17.669  0.00  0.00    +0.000 C 
ATOM     11  C   UNL     1       2.918   4.492  17.663  0.00  0.00    +0.000 C 
ATOM     12  C   UNL     1       3.743   3.200  17.506  0.00  0.00    +0.000 C 
ATOM     13  C   UNL     1       3.393   2.224  18.642  0.00  0.00    +0.000 C 
ENDBRANCH   3   6
BRANCH   1  17
ATOM     14  C   UNL     1      -0.773  10.834  22.312  0.00  0.00    +0.000 A 
ATOM     15  C   UNL     1      -0.082   9.798  22.952  0.00  0.00    +0.000 A 
ATOM     16  C   UNL     1       0.720   8.915  22.218  0.00  0.00    +0.000 A 
ATOM     17  C   UNL     1       0.850   9.056  20.831  0.00  0.00    +0.000 A 
ATOM     18  C   UNL     1       0.176  10.112  20.200  0.00  0.00    +0.000 A 
ATOM     19  C   UNL     1      -0.626  10.992  20.931  0.00  0.00    +0.000 A 
BRANCH  14  20
ATOM     20  C   UNL     1      -1.655  11.769  23.097  0.00  0.00    +0.000 C 
BRANCH  20  22
ATOM     21  F   UNL     1      -1.652  13.877  24.117  0.00  0.00    +0.000 F 
ATOM     22  C   UNL     1      -1.193  13.215  23.020  0.00  0.00    +0.000 C 
ENDBRANCH  20  22
ENDBRANCH  14  20
ENDBRANCH   1  17
TORSDOF 4
ENDMDL
MODEL 2
REMARK VINA RESULT:      -7.2      2.374      3.402
REMARK  Name = 
REMARK  4 active torsions:
REMARK  status: ('A' for Active; 'I' for Inactive)
REMARK    1  A    between atoms: C_2  and  C_3
REMARK    2  A    between atoms: C_3  and  C_4
REMARK    3  A    between atoms: C_7  and  C_8
REMARK    4  A    between atoms: N_10  and  C_11
REMARK                            x       y       z     vdW  Elec       q    Type
REMARK                         _______ _______ _______ _____ _____    ______ ____
ROOT
ATOM      1  C   UNL     1       2.369   7.057  19.312  0.00  0.00    +0.000 A 
ATOM      2  C   UNL     1       3.026   7.108  18.101  0.00  0.00    +0.000 A 
ATOM      3  N   UNL     1       3.598   5.873  17.981  0.00  0.00    +0.000 N 
ATOM      4  N   UNL     1       3.273   5.088  19.022  0.00  0.00    +0.000 NA
ATOM      5  N   UNL     1       2.536   5.809  19.852  0.00  0.00    +0.000 NA
ENDROOT
BRANCH   3   6
ATOM      6  C   UNL     1       4.452   5.398  16.907  0.00  0.00    +0.000 C 
ATOM      7  C   UNL     1       5.115   6.522  16.067  0.00  0.00    +0.000 C 
ATOM      8  N   UNL     1       6.590   6.354  15.971  0.00  0.00    +0.000 NA
ATOM      9  C   UNL     1       7.143   6.381  17.346  0.00  0.00    +0.000 C 
ATOM     10  C   UNL     1       6.616   5.213  18.197  0.00  0.00    +0.000 C 
ATOM     11  C   UNL     1       5.560   4.432  17.396  0.00  0.00    +0.000 C 
ATOM     12  C   UNL     1       6.271   3.883  16.145  0.00  0.00    +0.000 C 
ATOM     13  C   UNL     1       6.894   5.047  15.354  0.00  0.00    +0.000 C 
ENDBRANCH   3   6
BRANCH   1  17
ATOM     14  C   UNL     1       0.140  10.206  21.166  0.00  0.00    +0.000 A 
ATOM     15  C   UNL     1       0.487   9.066  21.900  0.00  0.00    +0.000 A 
ATOM     16  C   UNL     1       1.226   8.033  21.308  0.00  0.00    +0.000 A 
ATOM     17  C   UNL     1       1.635   8.125  19.972  0.00  0.00    +0.000 A 
ATOM     18  C   UNL     1       1.306   9.281  19.250  0.00  0.00    +0.000 A 
ATOM     19  C   UNL     1       0.567  10.311  19.839  0.00  0.00    +0.000 A 
BRANCH  14  20
ATOM     20  C   UNL     1      -0.675  11.306  21.794  0.00  0.00    +0.000 C 
BRANCH  20  22
ATOM     21  F   UNL     1      -2.448  11.531  23.306  0.00  0.00    +0.000 F 
ATOM     22  C   UNL     1      -1.244  10.916  23.147  0.00  0.00    +0.000 C 
ENDBRANCH  20  22
ENDBRANCH  14  20
ENDBRANCH   1  17
TORSDOF 4
ENDMDL
MODEL 3
REMARK VINA RESULT:      -7.2      0.254      1.058
REMARK  Name = 
REMARK  4 active torsions:
REMARK  status: ('A' for Active; 'I' for Inactive)
REMARK    1  A    between atoms: C_2  and  C_3
REMARK    2  A    between atoms: C_3  and  C_4
REMARK    3  A    between atoms: C_7  and  C_8
REMARK    4  A    between atoms: N_10  and  C_11
REMARK                            x       y       z     vdW  Elec       q    Type
REMARK                         _______ _______ _______ _____ _____    ______ ____
ROOT
ATOM      1  C   UNL     1       1.517   8.273  20.033  0.00  0.00    +0.000 A 
ATOM      2  C   UNL     1       1.954   7.016  20.393  0.00  0.00    +0.000 A 
ATOM      3  N   UNL     1       2.650   6.580  19.300  0.00  0.00    +0.000 N 
ATOM      4  N   UNL     1       2.689   7.525  18.346  0.00  0.00    +0.000 NA
ATOM      5  N   UNL     1       1.983   8.559  18.776  0.00  0.00    +0.000 NA
ENDROOT
BRANCH   3   6
ATOM      6  C   UNL     1       3.288   5.289  19.120  0.00  0.00    +0.000 C 
ATOM      7  C   UNL     1       2.955   4.247  20.221  0.00  0.00    +0.000 C 
ATOM      8  N   UNL     1       2.462   2.966  19.648  0.00  0.00    +0.000 NA
ATOM      9  C   UNL     1       1.236   3.257  18.866  0.00  0.00    +0.000 C 
ATOM     10  C   UNL     1       1.526   4.193  17.680  0.00  0.00    +0.000 C 
ATOM     11  C   UNL     1       2.992   4.655  17.738  0.00  0.00    +0.000 C 
ATOM     12  C   UNL     1       3.860   3.387  17.623  0.00  0.00    +0.000 C 
ATOM     13  C   UNL     1       3.488   2.405  18.747  0.00  0.00    +0.000 C 
ENDBRANCH   3   6
BRANCH   1  17
ATOM     14  C   UNL     1      -0.883  10.941  22.365  0.00  0.00    +0.000 A 
ATOM     15  C   UNL     1      -0.802  11.102  20.976  0.00  0.00    +0.000 A 
ATOM     16  C   UNL     1      -0.029  10.229  20.201  0.00  0.00    +0.000 A 
ATOM     17  C   UNL     1       0.673   9.175  20.799  0.00  0.00    +0.000 A 
ATOM     18  C   UNL     1       0.567   9.005  22.187  0.00  0.00    +0.000 A 
ATOM     19  C   UNL     1      -0.203   9.877  22.963  0.00  0.00    +0.000 A 
BRANCH  14  20
ATOM     20  C   UNL     1      -1.695  11.893  23.203  0.00  0.00    +0.000 C 
BRANCH  20  22
ATOM     21  F   UNL     1      -2.173  14.161  23.540  0.00  0.00    +0.000 F 
ATOM     22  C   UNL     1      -1.182  13.322  23.133  0.00  0.00    +0.000 C 
ENDBRANCH  20  22
ENDBRANCH  14  20
ENDBRANCH   1  17
TORSDOF 4
ENDMDL
MODEL 4
REMARK VINA RESULT:      -7.1      2.338      3.497
REMARK  Name = 
REMARK  4 active torsions:
REMARK  status: ('A' for Active; 'I' for Inactive)
REMARK    1  A    between atoms: C_2  and  C_3
REMARK    2  A    between atoms: C_3  and  C_4
REMARK    3  A    between atoms: C_7  and  C_8
REMARK    4  A    between atoms: N_10  and  C_11
REMARK                            x       y       z     vdW  Elec       q    Type
REMARK                         _______ _______ _______ _____ _____    ______ ____
ROOT
ATOM      1  C   UNL     1       2.335   7.203  19.324  0.00  0.00    +0.000 A 
ATOM      2  C   UNL     1       3.021   7.233  18.129  0.00  0.00    +0.000 A 
ATOM      3  N   UNL     1       3.578   5.988  18.033  0.00  0.00    +0.000 N 
ATOM      4  N   UNL     1       3.216   5.219  19.073  0.00  0.00    +0.000 NA
ATOM      5  N   UNL     1       2.470   5.958  19.879  0.00  0.00    +0.000 NA
ENDROOT
BRANCH   3   6
ATOM      6  C   UNL     1       4.450   5.491  16.985  0.00  0.00    +0.000 C 
ATOM      7  C   UNL     1       5.135   6.597  16.139  0.00  0.00    +0.000 C 
ATOM      8  N   UNL     1       6.611   6.419  16.075  0.00  0.00    +0.000 NA
ATOM      9  C   UNL     1       7.138   6.468  17.460  0.00  0.00    +0.000 C 
ATOM     10  C   UNL     1       6.587   5.317  18.320  0.00  0.00    +0.000 C 
ATOM     11  C   UNL     1       5.543   4.528  17.512  0.00  0.00    +0.000 C 
ATOM     12  C   UNL     1       6.276   3.954  16.284  0.00  0.00    +0.000 C 
ATOM     13  C   UNL     1       6.920   5.100  15.487  0.00  0.00    +0.000 C 
ENDBRANCH   3   6
BRANCH   1  17
ATOM     14  C   UNL     1       0.247  10.391  21.272  0.00  0.00    +0.000 A 
ATOM     15  C   UNL     1       0.560  10.486  19.911  0.00  0.00    +0.000 A 
ATOM     16  C   UNL     1       1.233   9.445  19.260  0.00  0.00    +0.000 A 
ATOM     17  C   UNL     1       1.602   8.288  19.956  0.00  0.00    +0.000 A 
ATOM     18  C   UNL     1       1.263   8.189  21.313  0.00  0.00    +0.000 A 
ATOM     19  C   UNL     1       0.592   9.228  21.966  0.00  0.00    +0.000 A 
BRANCH  14  20
ATOM     20  C   UNL     1      -0.456  11.520  21.980  0.00  0.00    +0.000 C 
BRANCH  20  22
ATOM     21  F   UNL     1      -2.156  12.057  23.498  0.00  0.00    +0.000 F 
ATOM     22  C   UNL     1      -1.333  11.039  23.124  0.00  0.00    +0.000 C 
ENDBRANCH  20  22
ENDBRANCH  14  20
ENDBRANCH   1  17
TORSDOF 4
ENDMDL
MODEL 5
REMARK VINA RESULT:      -7.0      1.157      1.388
REMARK  Name = 
REMARK  4 active torsions:
REMARK  status: ('A' for Active; 'I' for Inactive)
REMARK    1  A    between atoms: C_2  and  C_3
REMARK    2  A    between atoms: C_3  and  C_4
REMARK    3  A    between atoms: C_7  and  C_8
REMARK    4  A    between atoms: N_10  and  C_11
REMARK                            x       y       z     vdW  Elec       q    Type
REMARK                         _______ _______ _______ _____ _____    ______ ____
ROOT
ATOM      1  C   UNL     1       2.250   7.549  19.173  0.00  0.00    +0.000 A 
ATOM      2  C   UNL     1       2.380   6.214  19.492  0.00  0.00    +0.000 A 
ATOM      3  N   UNL     1       3.150   5.704  18.484  0.00  0.00    +0.000 N 
ATOM      4  N   UNL     1       3.520   6.669  17.626  0.00  0.00    +0.000 NA
ATOM      5  N   UNL     1       2.960   7.800  18.028  0.00  0.00    +0.000 NA
ENDROOT
BRANCH   3   6
ATOM      6  C   UNL     1       3.554   4.323  18.297  0.00  0.00    +0.000 C 
ATOM      7  C   UNL     1       4.038   3.613  19.589  0.00  0.00    +0.000 C 
ATOM      8  N   UNL     1       3.325   2.328  19.823  0.00  0.00    +0.000 NA
ATOM      9  C   UNL     1       1.877   2.624  19.942  0.00  0.00    +0.000 C 
ATOM     10  C   UNL     1       1.309   3.219  18.642  0.00  0.00    +0.000 C 
ATOM     11  C   UNL     1       2.453   3.453  17.641  0.00  0.00    +0.000 C 
ATOM     12  C   UNL     1       3.075   2.073  17.352  0.00  0.00    +0.000 C 
ATOM     13  C   UNL     1       3.542   1.432  18.670  0.00  0.00    +0.000 C 
ENDBRANCH   3   6
BRANCH   1  17
ATOM     14  C   UNL     1      -0.097  10.528  21.156  0.00  0.00    +0.000 A 
ATOM     15  C   UNL     1       0.389   9.427  21.871  0.00  0.00    +0.000 A 
ATOM     16  C   UNL     1       1.167   8.451  21.236  0.00  0.00    +0.000 A 
ATOM     17  C   UNL     1       1.478   8.561  19.875  0.00  0.00    +0.000 A 
ATOM     18  C   UNL     1       1.010   9.680  19.171  0.00  0.00    +0.000 A 
ATOM     19  C   UNL     1       0.231  10.654  19.803  0.00  0.00    +0.000 A 
BRANCH  14  20
ATOM     20  C   UNL     1      -0.954  11.566  21.832  0.00  0.00    +0.000 C 
BRANCH  20  22
ATOM     21  F   UNL     1      -2.693  11.586  23.399  0.00  0.00    +0.000 F 
ATOM     22  C   UNL     1      -1.424  11.133  23.210  0.00  0.00    +0.000 C 
ENDBRANCH  20  22
ENDBRANCH  14  20
ENDBRANCH   1  17
TORSDOF 4
ENDMDL
MODEL 6
REMARK VINA RESULT:      -7.0      4.175      8.772
REMARK  Name = 
REMARK  4 active torsions:
REMARK  status: ('A' for Active; 'I' for Inactive)
REMARK    1  A    between atoms: C_2  and  C_3
REMARK    2  A    between atoms: C_3  and  C_4
REMARK    3  A    between atoms: C_7  and  C_8
REMARK    4  A    between atoms: N_10  and  C_11
REMARK                            x       y       z     vdW  Elec       q    Type
REMARK                         _______ _______ _______ _____ _____    ______ ____
ROOT
ATOM      1  C   UNL     1       2.449   7.831  18.378  0.00  0.00    +0.000 A 
ATOM      2  C   UNL     1       1.854   8.919  17.777  0.00  0.00    +0.000 A 
ATOM      3  N   UNL     1       1.098   9.476  18.771  0.00  0.00    +0.000 N 
ATOM      4  N   UNL     1       1.257   8.810  19.927  0.00  0.00    +0.000 NA
ATOM      5  N   UNL     1       2.068   7.790  19.694  0.00  0.00    +0.000 NA
ENDROOT
BRANCH   3   6
ATOM      6  C   UNL     1       0.220  10.627  18.669  0.00  0.00    +0.000 C 
ATOM      7  C   UNL     1      -0.953  10.634  19.685  0.00  0.00    +0.000 C 
ATOM      8  N   UNL     1      -1.019  11.905  20.456  0.00  0.00    +0.000 NA
ATOM      9  C   UNL     1       0.261  12.062  21.187  0.00  0.00    +0.000 C 
ATOM     10  C   UNL     1       1.456  12.186  20.226  0.00  0.00    +0.000 C 
ATOM     11  C   UNL     1       0.974  11.976  18.780  0.00  0.00    +0.000 C 
ATOM     12  C   UNL     1      -0.045  13.093  18.488  0.00  0.00    +0.000 C 
ATOM     13  C   UNL     1      -1.183  13.036  19.521  0.00  0.00    +0.000 C 
ENDBRANCH   3   6
BRANCH   1  17
ATOM     14  C   UNL     1       4.916   4.857  16.536  0.00  0.00    +0.000 A 
ATOM     15  C   UNL     1       5.213   6.216  16.372  0.00  0.00    +0.000 A 
ATOM     16  C   UNL     1       4.420   7.198  16.978  0.00  0.00    +0.000 A 
ATOM     17  C   UNL     1       3.318   6.840  17.765  0.00  0.00    +0.000 A 
ATOM     18  C   UNL     1       3.042   5.477  17.947  0.00  0.00    +0.000 A 
ATOM     19  C   UNL     1       3.831   4.495  17.340  0.00  0.00    +0.000 A 
BRANCH  14  20
ATOM     20  C   UNL     1       5.753   3.800  15.865  0.00  0.00    +0.000 C 
BRANCH  20  22
ATOM     21  F   UNL     1       5.212   4.082  13.605  0.00  0.00    +0.000 F 
ATOM     22  C   UNL     1       6.238   4.222  14.488  0.00  0.00    +0.000 C 
ENDBRANCH  20  22
ENDBRANCH  14  20
ENDBRANCH   1  17
TORSDOF 4
ENDMDL
MODEL 7
REMARK VINA RESULT:      -6.9      0.912      1.439
REMARK  Name = 
REMARK  4 active torsions:
REMARK  status: ('A' for Active; 'I' for Inactive)
REMARK    1  A    between atoms: C_2  and  C_3
REMARK    2  A    between atoms: C_3  and  C_4
REMARK    3  A    between atoms: C_7  and  C_8
REMARK    4  A    between atoms: N_10  and  C_11
REMARK                            x       y       z     vdW  Elec       q    Type
REMARK                         _______ _______ _______ _____ _____    ______ ____
ROOT
ATOM      1  C   UNL     1       1.822   8.363  19.288  0.00  0.00    +0.000 A 
ATOM      2  C   UNL     1       2.181   7.122  19.769  0.00  0.00    +0.000 A 
ATOM      3  N   UNL     1       2.973   6.600  18.785  0.00  0.00    +0.000 N 
ATOM      4  N   UNL     1       3.141   7.480  17.785  0.00  0.00    +0.000 NA
ATOM      5  N   UNL     1       2.426   8.556  18.073  0.00  0.00    +0.000 NA
ENDROOT
BRANCH   3   6
ATOM      6  C   UNL     1       3.586   5.285  18.753  0.00  0.00    +0.000 C 
ATOM      7  C   UNL     1       3.351   4.433  20.029  0.00  0.00    +0.000 C 
ATOM      8  N   UNL     1       2.801   3.088  19.710  0.00  0.00    +0.000 NA
ATOM      9  C   UNL     1       1.511   3.277  19.005  0.00  0.00    +0.000 C 
ATOM     10  C   UNL     1       1.695   4.011  17.666  0.00  0.00    +0.000 C 
ATOM     11  C   UNL     1       3.163   4.449  17.519  0.00  0.00    +0.000 C 
ATOM     12  C   UNL     1       4.010   3.162  17.527  0.00  0.00    +0.000 C 
ATOM     13  C   UNL     1       3.738   2.374  18.819  0.00  0.00    +0.000 C 
ENDBRANCH   3   6
BRANCH   1  17
ATOM     14  C   UNL     1      -0.720  11.239  21.180  0.00  0.00    +0.000 A 
ATOM     15  C   UNL     1      -0.566  11.247  19.789  0.00  0.00    +0.000 A 
ATOM     16  C   UNL     1       0.255  10.304  19.157  0.00  0.00    +0.000 A 
ATOM     17  C   UNL     1       0.932   9.333  19.905  0.00  0.00    +0.000 A 
ATOM     18  C   UNL     1       0.752   9.315  21.295  0.00  0.00    +0.000 A 
ATOM     19  C   UNL     1      -0.065  10.256  21.928  0.00  0.00    +0.000 A 
BRANCH  14  20
ATOM     20  C   UNL     1      -1.584  12.267  21.864  0.00  0.00    +0.000 C 
BRANCH  20  22
ATOM     21  F   UNL     1      -3.358  11.943  23.357  0.00  0.00    +0.000 F 
ATOM     22  C   UNL     1      -2.004  11.845  23.262  0.00  0.00    +0.000 C 
ENDBRANCH  20  22
ENDBRANCH  14  20
ENDBRANCH   1  17
TORSDOF 4
ENDMDL
MODEL 8
REMARK VINA RESULT:      -6.9      3.739      8.248
REMARK  Name = 
REMARK  4 active torsions:
REMARK  status: ('A' for Active; 'I' for Inactive)
REMARK    1  A    between atoms: C_2  and  C_3
REMARK    2  A    between atoms: C_3  and  C_4
REMARK    3  A    between atoms: C_7  and  C_8
REMARK    4  A    between atoms: N_10  and  C_11
REMARK                            x       y       z     vdW  Elec       q    Type
REMARK                         _______ _______ _______ _____ _____    ______ ____
ROOT
ATOM      1  C   UNL     1       2.191   8.027  18.652  0.00  0.00    +0.000 A 
ATOM      2  C   UNL     1       1.508   8.771  19.591  0.00  0.00    +0.000 A 
ATOM      3  N   UNL     1       1.285   9.967  18.969  0.00  0.00    +0.000 N 
ATOM      4  N   UNL     1       1.749   9.949  17.708  0.00  0.00    +0.000 NA
ATOM      5  N   UNL     1       2.322   8.772  17.509  0.00  0.00    +0.000 NA
ENDROOT
BRANCH   3   6
ATOM      6  C   UNL     1       0.642  11.143  19.526  0.00  0.00    +0.000 C 
ATOM      7  C   UNL     1       0.673  12.392  18.606  0.00  0.00    +0.000 C 
ATOM      8  N   UNL     1      -0.681  12.973  18.405  0.00  0.00    +0.000 NA
ATOM      9  C   UNL     1      -1.538  11.933  17.787  0.00  0.00    +0.000 C 
ATOM     10  C   UNL     1      -1.709  10.714  18.709  0.00  0.00    +0.000 C 
ATOM     11  C   UNL     1      -0.824  10.885  19.956  0.00  0.00    +0.000 C 
ATOM     12  C   UNL     1      -1.318  12.155  20.676  0.00  0.00    +0.000 C 
ATOM     13  C   UNL     1      -1.250  13.353  19.714  0.00  0.00    +0.000 C 
ENDBRANCH   3   6
BRANCH   1  17
ATOM     14  C   UNL     1       3.686   4.044  19.120  0.00  0.00    +0.000 A 
ATOM     15  C   UNL     1       4.046   4.802  17.999  0.00  0.00    +0.000 A 
ATOM     16  C   UNL     1       3.572   6.110  17.840  0.00  0.00    +0.000 A 
ATOM     17  C   UNL     1       2.733   6.687  18.801  0.00  0.00    +0.000 A 
ATOM     18  C   UNL     1       2.398   5.931  19.934  0.00  0.00    +0.000 A 
ATOM     19  C   UNL     1       2.869   4.625  20.094  0.00  0.00    +0.000 A 
BRANCH  14  20
ATOM     20  C   UNL     1       4.176   2.629  19.281  0.00  0.00    +0.000 C 
BRANCH  20  22
ATOM     21  F   UNL     1       2.108   1.584  18.944  0.00  0.00    +0.000 F 
ATOM     22  C   UNL     1       3.378   1.634  18.457  0.00  0.00    +0.000 C 
ENDBRANCH  20  22
ENDBRANCH  14  20
ENDBRANCH   1  17
TORSDOF 4
ENDMDL
MODEL 9
REMARK VINA RESULT:      -6.9      4.127      8.719
REMARK  Name = 
REMARK  4 active torsions:
REMARK  status: ('A' for Active; 'I' for Inactive)
REMARK    1  A    between atoms: C_2  and  C_3
REMARK    2  A    between atoms: C_3  and  C_4
REMARK    3  A    between atoms: C_7  and  C_8
REMARK    4  A    between atoms: N_10  and  C_11
REMARK                            x       y       z     vdW  Elec       q    Type
REMARK                         _______ _______ _______ _____ _____    ______ ____
ROOT
ATOM      1  C   UNL     1       2.295   7.880  18.470  0.00  0.00    +0.000 A 
ATOM      2  C   UNL     1       1.721   8.972  17.854  0.00  0.00    +0.000 A 
ATOM      3  N   UNL     1       1.021   9.588  18.854  0.00  0.00    +0.000 N 
ATOM      4  N   UNL     1       1.195   8.953  20.024  0.00  0.00    +0.000 NA
ATOM      5  N   UNL     1       1.959   7.895  19.798  0.00  0.00    +0.000 NA
ENDROOT
BRANCH   3   6
ATOM      6  C   UNL     1       0.184  10.769  18.744  0.00  0.00    +0.000 C 
ATOM      7  C   UNL     1      -0.921  10.877  19.828  0.00  0.00    +0.000 C 
ATOM      8  N   UNL     1      -0.888  12.187  20.532  0.00  0.00    +0.000 NA
ATOM      9  C   UNL     1       0.440  12.328  21.175  0.00  0.00    +0.000 C 
ATOM     10  C   UNL     1       1.576  12.351  20.137  0.00  0.00    +0.000 C 
ATOM     11  C   UNL     1       0.996  12.088  18.736  0.00  0.00    +0.000 C 
ATOM     12  C   UNL     1       0.005  13.232  18.448  0.00  0.00    +0.000 C 
ATOM     13  C   UNL     1      -1.067  13.275  19.550  0.00  0.00    +0.000 C 
ENDBRANCH   3   6
BRANCH   1  17
ATOM     14  C   UNL     1       4.768   4.860  16.715  0.00  0.00    +0.000 A 
ATOM     15  C   UNL     1       3.605   4.500  17.407  0.00  0.00    +0.000 A 
ATOM     16  C   UNL     1       2.782   5.480  17.976  0.00  0.00    +0.000 A 
ATOM     17  C   UNL     1       3.104   6.838  17.860  0.00  0.00    +0.000 A 
ATOM     18  C   UNL     1       4.256   7.192  17.143  0.00  0.00    +0.000 A 
ATOM     19  C   UNL     1       5.080   6.215  16.576  0.00  0.00    +0.000 A 
BRANCH  14  20
ATOM     20  C   UNL     1       5.667   3.806  16.123  0.00  0.00    +0.000 C 
BRANCH  20  22
ATOM     21  F   UNL     1       5.179   4.195  13.866  0.00  0.00    +0.000 F 
ATOM     22  C   UNL     1       6.207   4.196  14.757  0.00  0.00    +0.000 C 
ENDBRANCH  20  22
ENDBRANCH  14  20
ENDBRANCH   1  17
TORSDOF 4
ENDMDL
