MODEL 1
REMARK VINA RESULT:      -7.6      0.000      0.000
REMARK  Name = 
REMARK  6 active torsions:
REMARK  status: ('A' for Active; 'I' for Inactive)
REMARK    1  A    between atoms: C_1  and  C_2
REMARK    2  A    between atoms: C_2  and  N_3
REMARK    3  A    between atoms: C_5  and  C_6
REMARK    4  A    between atoms: N_11  and  S_12
REMARK    5  A    between atoms: S_12  and  C_15
REMARK    6  A    between atoms: C_18  and  N_19
REMARK                            x       y       z     vdW  Elec       q    Type
REMARK                         _______ _______ _______ _____ _____    ______ ____
ROOT
ATOM      1  C   UNL     1      -2.326  13.067  20.372  0.00  0.00    +0.000 C 
ATOM      2  O   UNL     1      -2.056  14.206  20.749  0.00  0.00    +0.000 OA
ATOM      3  N   UNL     1      -1.309  12.117  20.174  0.00  0.00    +0.000 N 
ATOM      4  C   UNL     1      -1.529  10.803  19.573  0.00  0.00    +0.000 C 
ATOM      5  C   UNL     1      -0.302  10.252  18.861  0.00  0.00    +0.000 C 
ATOM      6  N   UNL     1       0.887  10.223  19.755  0.00  0.00    +0.000 NA
ATOM      7  C   UNL     1       1.175  11.634  20.212  0.00  0.00    +0.000 C 
ATOM      8  C   UNL     1      -0.041  12.290  20.905  0.00  0.00    +0.000 C 
ENDROOT
BRANCH   1  11
ATOM      9  N   UNL     1      -5.571  12.005  19.024  0.00  0.00    +0.000 N 
ATOM     10  C   UNL     1      -4.215  12.128  18.928  0.00  0.00    +0.000 A 
ATOM     11  C   UNL     1      -3.720  12.674  20.104  0.00  0.00    +0.000 A 
ATOM     12  C   UNL     1      -4.830  12.657  21.022  0.00  0.00    +0.000 A 
ATOM     13  C   UNL     1      -4.971  12.965  22.394  0.00  0.00    +0.000 A 
ATOM     14  C   UNL     1      -6.214  12.809  23.019  0.00  0.00    +0.000 A 
ATOM     15  C   UNL     1      -7.322  12.379  22.296  0.00  0.00    +0.000 A 
ATOM     16  C   UNL     1      -7.223  12.100  20.932  0.00  0.00    +0.000 A 
ATOM     17  C   UNL     1      -5.967  12.234  20.319  0.00  0.00    +0.000 A 
BRANCH   9  19
ATOM     18  C   UNL     1      -7.029  12.856  17.223  0.00  0.00    +0.000 C 
ATOM     19  C   UNL     1      -6.420  11.639  17.902  0.00  0.00    +0.000 C 
ENDBRANCH   9  19
ENDBRANCH   1  11
BRANCH   6  20
ATOM     20  S   UNL     1       0.928   9.062  21.012  0.00  0.00    +0.000 S 
ATOM     21  O   UNL     1       1.828   9.544  22.034  0.00  0.00    +0.000 OA
ATOM     22  O   UNL     1      -0.435   8.697  21.332  0.00  0.00    +0.000 OA
BRANCH  20  23
ATOM     23  C   UNL     1       1.685   7.630  20.264  0.00  0.00    +0.000 A 
ATOM     24  C   UNL     1       2.331   7.751  19.030  0.00  0.00    +0.000 A 
ATOM     25  C   UNL     1       2.837   6.609  18.401  0.00  0.00    +0.000 A 
ATOM     26  C   UNL     1       2.710   5.356  19.021  0.00  0.00    +0.000 A 
ATOM     27  C   UNL     1       2.091   5.241  20.275  0.00  0.00    +0.000 A 
ATOM     28  C   UNL     1       1.575   6.384  20.895  0.00  0.00    +0.000 A 
BRANCH  26  29
ATOM     29  N   UNL     1       3.198   4.149  18.341  0.00  0.00    +0.000 N 
ATOM     30  O   UNL     1       4.289   3.687  18.705  0.00  0.00    +0.000 OA
ATOM     31  O   UNL     1       2.500   3.678  17.434  0.00  0.00    +0.000 OA
ENDBRANCH  26  29
ENDBRANCH  20  23
ENDBRANCH   6  20
TORSDOF 5
ENDMDL
MODEL 2
REMARK VINA RESULT:      -7.5      0.680      1.173
REMARK  Name = 
REMARK  6 active torsions:
REMARK  status: ('A' for Active; 'I' for Inactive)
REMARK    1  A    between atoms: C_1  and  C_2
REMARK    2  A    between atoms: C_2  and  N_3
REMARK    3  A    between atoms: C_5  and  C_6
REMARK    4  A    between atoms: N_11  and  S_12
REMARK    5  A    between atoms: S_12  and  C_15
REMARK    6  A    between atoms: C_18  and  N_19
REMARK                            x       y       z     vdW  Elec       q    Type
REMARK                         _______ _______ _______ _____ _____    ______ ____
ROOT
ATOM      1  C   UNL     1      -2.227  13.257  20.938  0.00  0.00    +0.000 C 
ATOM      2  O   UNL     1      -1.860  14.363  21.332  0.00  0.00    +0.000 OA
ATOM      3  N   UNL     1      -1.287  12.267  20.601  0.00  0.00    +0.000 N 
ATOM      4  C   UNL     1      -1.636  10.995  19.972  0.00  0.00    +0.000 C 
ATOM      5  C   UNL     1      -0.515  10.415  19.121  0.00  0.00    +0.000 C 
ATOM      6  N   UNL     1       0.751  10.286  19.891  0.00  0.00    +0.000 NA
ATOM      7  C   UNL     1       1.158  11.658  20.374  0.00  0.00    +0.000 C 
ATOM      8  C   UNL     1       0.053  12.342  21.210  0.00  0.00    +0.000 C 
ENDROOT
BRANCH   1  11
ATOM      9  N   UNL     1      -5.650  12.471  19.870  0.00  0.00    +0.000 N 
ATOM     10  C   UNL     1      -4.309  12.555  19.630  0.00  0.00    +0.000 A 
ATOM     11  C   UNL     1      -3.660  12.948  20.793  0.00  0.00    +0.000 A 
ATOM     12  C   UNL     1      -4.659  12.868  21.827  0.00  0.00    +0.000 A 
ATOM     13  C   UNL     1      -4.631  13.024  23.230  0.00  0.00    +0.000 A 
ATOM     14  C   UNL     1      -5.803  12.843  23.976  0.00  0.00    +0.000 A 
ATOM     15  C   UNL     1      -7.005  12.538  23.345  0.00  0.00    +0.000 A 
ATOM     16  C   UNL     1      -7.072  12.410  21.956  0.00  0.00    +0.000 A 
ATOM     17  C   UNL     1      -5.888  12.567  21.220  0.00  0.00    +0.000 A 
BRANCH   9  19
ATOM     18  C   UNL     1      -6.815  10.793  18.484  0.00  0.00    +0.000 C 
ATOM     19  C   UNL     1      -6.636  12.265  18.822  0.00  0.00    +0.000 C 
ENDBRANCH   9  19
ENDBRANCH   1  11
BRANCH   6  20
ATOM     20  S   UNL     1       0.850   9.068  21.090  0.00  0.00    +0.000 S 
ATOM     21  O   UNL     1       1.769   9.520  22.109  0.00  0.00    +0.000 OA
ATOM     22  O   UNL     1      -0.496   8.659  21.429  0.00  0.00    +0.000 OA
BRANCH  20  23
ATOM     23  C   UNL     1       1.615   7.689  20.255  0.00  0.00    +0.000 A 
ATOM     24  C   UNL     1       1.610   6.425  20.852  0.00  0.00    +0.000 A 
ATOM     25  C   UNL     1       2.295   5.370  20.240  0.00  0.00    +0.000 A 
ATOM     26  C   UNL     1       2.965   5.584  19.025  0.00  0.00    +0.000 A 
ATOM     27  C   UNL     1       2.940   6.845  18.411  0.00  0.00    +0.000 A 
ATOM     28  C   UNL     1       2.264   7.900  19.032  0.00  0.00    +0.000 A 
BRANCH  26  29
ATOM     29  N   UNL     1       3.724   4.490  18.404  0.00  0.00    +0.000 N 
ATOM     30  O   UNL     1       4.632   3.971  19.069  0.00  0.00    +0.000 OA
ATOM     31  O   UNL     1       3.424   4.167  17.248  0.00  0.00    +0.000 OA
ENDBRANCH  26  29
ENDBRANCH  20  23
ENDBRANCH   6  20
TORSDOF 5
ENDMDL
MODEL 3
REMARK VINA RESULT:      -7.3      4.053      9.931
REMARK  Name = 
REMARK  6 active torsions:
REMARK  status: ('A' for Active; 'I' for Inactive)
REMARK    1  A    between atoms: C_1  and  C_2
REMARK    2  A    between atoms: C_2  and  N_3
REMARK    3  A    between atoms: C_5  and  C_6
REMARK    4  A    between atoms: N_11  and  S_12
REMARK    5  A    between atoms: S_12  and  C_15
REMARK    6  A    between atoms: C_18  and  N_19
REMARK                            x       y       z     vdW  Elec       q    Type
REMARK                         _______ _______ _______ _____ _____    ______ ____
ROOT
ATOM      1  C   UNL     1       1.723   7.289  20.238  0.00  0.00    +0.000 C 
ATOM      2  O   UNL     1       1.468   6.732  21.305  0.00  0.00    +0.000 OA
ATOM      3  N   UNL     1       1.276   8.598  19.987  0.00  0.00    +0.000 N 
ATOM      4  C   UNL     1       1.394   9.263  18.691  0.00  0.00    +0.000 C 
ATOM      5  C   UNL     1       0.316  10.310  18.450  0.00  0.00    +0.000 C 
ATOM      6  N   UNL     1       0.267  11.313  19.547  0.00  0.00    +0.000 NA
ATOM      7  C   UNL     1      -0.029  10.591  20.840  0.00  0.00    +0.000 C 
ATOM      8  C   UNL     1       0.995   9.472  21.140  0.00  0.00    +0.000 C 
ENDROOT
BRANCH   1  11
ATOM      9  N   UNL     1       3.973   6.185  17.557  0.00  0.00    +0.000 N 
ATOM     10  C   UNL     1       3.618   7.067  18.535  0.00  0.00    +0.000 A 
ATOM     11  C   UNL     1       2.490   6.592  19.191  0.00  0.00    +0.000 A 
ATOM     12  C   UNL     1       2.315   5.245  18.711  0.00  0.00    +0.000 A 
ATOM     13  C   UNL     1       1.438   4.191  19.050  0.00  0.00    +0.000 A 
ATOM     14  C   UNL     1       1.550   2.955  18.401  0.00  0.00    +0.000 A 
ATOM     15  C   UNL     1       2.499   2.762  17.402  0.00  0.00    +0.000 A 
ATOM     16  C   UNL     1       3.357   3.796  17.021  0.00  0.00    +0.000 A 
ATOM     17  C   UNL     1       3.256   5.022  17.695  0.00  0.00    +0.000 A 
BRANCH   9  19
ATOM     18  C   UNL     1       6.261   7.038  17.190  0.00  0.00    +0.000 C 
ATOM     19  C   UNL     1       4.999   6.466  16.565  0.00  0.00    +0.000 C 
ENDBRANCH   9  19
ENDBRANCH   1  11
BRANCH   6  20
ATOM     20  S   UNL     1       1.539  12.454  19.661  0.00  0.00    +0.000 S 
ATOM     21  O   UNL     1       2.086  12.377  20.996  0.00  0.00    +0.000 OA
ATOM     22  O   UNL     1       2.385  12.301  18.498  0.00  0.00    +0.000 OA
BRANCH  20  23
ATOM     23  C   UNL     1       0.726  14.035  19.506  0.00  0.00    +0.000 A 
ATOM     24  C   UNL     1      -0.543  14.221  20.061  0.00  0.00    +0.000 A 
ATOM     25  C   UNL     1      -1.217  15.429  19.852  0.00  0.00    +0.000 A 
ATOM     26  C   UNL     1      -0.607  16.449  19.105  0.00  0.00    +0.000 A 
ATOM     27  C   UNL     1       0.681  16.272  18.577  0.00  0.00    +0.000 A 
ATOM     28  C   UNL     1       1.346  15.058  18.777  0.00  0.00    +0.000 A 
BRANCH  26  29
ATOM     29  N   UNL     1      -1.331  17.700  18.845  0.00  0.00    +0.000 N 
ATOM     30  O   UNL     1      -0.701  18.630  18.321  0.00  0.00    +0.000 OA
ATOM     31  O   UNL     1      -2.520  17.757  19.184  0.00  0.00    +0.000 OA
ENDBRANCH  26  29
ENDBRANCH  20  23
ENDBRANCH   6  20
TORSDOF 5
ENDMDL
MODEL 4
REMARK VINA RESULT:      -7.1      0.760      2.325
REMARK  Name = 
REMARK  6 active torsions:
REMARK  status: ('A' for Active; 'I' for Inactive)
REMARK    1  A    between atoms: C_1  and  C_2
REMARK    2  A    between atoms: C_2  and  N_3
REMARK    3  A    between atoms: C_5  and  C_6
REMARK    4  A    between atoms: N_11  and  S_12
REMARK    5  A    between atoms: S_12  and  C_15
REMARK    6  A    between atoms: C_18  and  N_19
REMARK                            x       y       z     vdW  Elec       q    Type
REMARK                         _______ _______ _______ _____ _____    ______ ____
ROOT
ATOM      1  C   UNL     1      -2.371  13.200  20.988  0.00  0.00    +0.000 C 
ATOM      2  O   UNL     1      -2.013  14.327  21.329  0.00  0.00    +0.000 OA
ATOM      3  N   UNL     1      -1.424  12.224  20.631  0.00  0.00    +0.000 N 
ATOM      4  C   UNL     1      -1.771  10.925  20.059  0.00  0.00    +0.000 C 
ATOM      5  C   UNL     1      -0.682  10.348  19.167  0.00  0.00    +0.000 C 
ATOM      6  N   UNL     1       0.626  10.274  19.871  0.00  0.00    +0.000 NA
ATOM      7  C   UNL     1       1.022  11.670  20.291  0.00  0.00    +0.000 C 
ATOM      8  C   UNL     1      -0.056  12.352  21.164  0.00  0.00    +0.000 C 
ENDROOT
BRANCH   1  11
ATOM      9  N   UNL     1      -5.924  12.468  21.549  0.00  0.00    +0.000 N 
ATOM     10  C   UNL     1      -4.735  13.010  21.943  0.00  0.00    +0.000 A 
ATOM     11  C   UNL     1      -3.801  12.851  20.929  0.00  0.00    +0.000 A 
ATOM     12  C   UNL     1      -4.555  12.390  19.791  0.00  0.00    +0.000 A 
ATOM     13  C   UNL     1      -4.234  12.144  18.438  0.00  0.00    +0.000 A 
ATOM     14  C   UNL     1      -5.232  11.720  17.551  0.00  0.00    +0.000 A 
ATOM     15  C   UNL     1      -6.533  11.511  17.995  0.00  0.00    +0.000 A 
ATOM     16  C   UNL     1      -6.874  11.712  19.335  0.00  0.00    +0.000 A 
ATOM     17  C   UNL     1      -5.874  12.162  20.210  0.00  0.00    +0.000 A 
BRANCH   9  19
ATOM     18  C   UNL     1      -6.769  12.817  23.842  0.00  0.00    +0.000 C 
ATOM     19  C   UNL     1      -7.059  12.301  22.441  0.00  0.00    +0.000 C 
ENDBRANCH   9  19
ENDBRANCH   1  11
BRANCH   6  20
ATOM     20  S   UNL     1       0.821   9.097  21.099  0.00  0.00    +0.000 S 
ATOM     21  O   UNL     1       1.750   9.620  22.073  0.00  0.00    +0.000 OA
ATOM     22  O   UNL     1      -0.493   8.637  21.494  0.00  0.00    +0.000 OA
BRANCH  20  23
ATOM     23  C   UNL     1       1.621   7.731  20.275  0.00  0.00    +0.000 A 
ATOM     24  C   UNL     1       2.231   7.930  19.032  0.00  0.00    +0.000 A 
ATOM     25  C   UNL     1       2.771   6.838  18.346  0.00  0.00    +0.000 A 
ATOM     26  C   UNL     1       2.713   5.556  18.916  0.00  0.00    +0.000 A 
ATOM     27  C   UNL     1       2.130   5.364  20.178  0.00  0.00    +0.000 A 
ATOM     28  C   UNL     1       1.581   6.457  20.856  0.00  0.00    +0.000 A 
BRANCH  26  29
ATOM     29  N   UNL     1       3.237   4.400  18.177  0.00  0.00    +0.000 N 
ATOM     30  O   UNL     1       2.416   3.617  17.678  0.00  0.00    +0.000 OA
ATOM     31  O   UNL     1       4.466   4.268  18.114  0.00  0.00    +0.000 OA
ENDBRANCH  26  29
ENDBRANCH  20  23
ENDBRANCH   6  20
TORSDOF 5
ENDMDL
MODEL 5
REMARK VINA RESULT:      -7.0      1.268      1.734
REMARK  Name = 
REMARK  6 active torsions:
REMARK  status: ('A' for Active; 'I' for Inactive)
REMARK    1  A    between atoms: C_1  and  C_2
REMARK    2  A    between atoms: C_2  and  N_3
REMARK    3  A    between atoms: C_5  and  C_6
REMARK    4  A    between atoms: N_11  and  S_12
REMARK    5  A    between atoms: S_12  and  C_15
REMARK    6  A    between atoms: C_18  and  N_19
REMARK                            x       y       z     vdW  Elec       q    Type
REMARK                         _______ _______ _______ _____ _____    ______ ____
ROOT
ATOM      1  C   UNL     1      -2.175  12.496  20.001  0.00  0.00    +0.000 C 
ATOM      2  O   UNL     1      -2.268  13.527  20.665  0.00  0.00    +0.000 OA
ATOM      3  N   UNL     1      -1.038  11.675  20.106  0.00  0.00    +0.000 N 
ATOM      4  C   UNL     1      -0.779  10.529  19.236  0.00  0.00    +0.000 C 
ATOM      5  C   UNL     1       0.702  10.227  19.062  0.00  0.00    +0.000 C 
ATOM      6  N   UNL     1       1.387  10.053  20.371  0.00  0.00    +0.000 NA
ATOM      7  C   UNL     1       1.235  11.329  21.163  0.00  0.00    +0.000 C 
ATOM      8  C   UNL     1      -0.244  11.738  21.347  0.00  0.00    +0.000 C 
ENDROOT
BRANCH   1  11
ATOM      9  N   UNL     1      -4.300  11.431  17.204  0.00  0.00    +0.000 N 
ATOM     10  C   UNL     1      -3.080  11.552  17.804  0.00  0.00    +0.000 A 
ATOM     11  C   UNL     1      -3.244  12.104  19.067  0.00  0.00    +0.000 A 
ATOM     12  C   UNL     1      -4.666  12.093  19.301  0.00  0.00    +0.000 A 
ATOM     13  C   UNL     1      -5.478  12.408  20.412  0.00  0.00    +0.000 A 
ATOM     14  C   UNL     1      -6.868  12.256  20.325  0.00  0.00    +0.000 A 
ATOM     15  C   UNL     1      -7.462  11.824  19.144  0.00  0.00    +0.000 A 
ATOM     16  C   UNL     1      -6.688  11.538  18.017  0.00  0.00    +0.000 A 
ATOM     17  C   UNL     1      -5.295  11.668  18.121  0.00  0.00    +0.000 A 
BRANCH   9  19
ATOM     18  C   UNL     1      -3.215  10.426  15.227  0.00  0.00    +0.000 C 
ATOM     19  C   UNL     1      -4.469  11.061  15.808  0.00  0.00    +0.000 C 
ENDBRANCH   9  19
ENDBRANCH   1  11
BRANCH   6  20
ATOM     20  S   UNL     1       1.065   8.632  21.271  0.00  0.00    +0.000 S 
ATOM     21  O   UNL     1       1.856   8.681  22.478  0.00  0.00    +0.000 OA
ATOM     22  O   UNL     1      -0.369   8.449  21.326  0.00  0.00    +0.000 OA
BRANCH  20  23
ATOM     23  C   UNL     1       1.715   7.314  20.259  0.00  0.00    +0.000 A 
ATOM     24  C   UNL     1       2.344   7.614  19.047  0.00  0.00    +0.000 A 
ATOM     25  C   UNL     1       2.764   6.574  18.211  0.00  0.00    +0.000 A 
ATOM     26  C   UNL     1       2.569   5.240  18.603  0.00  0.00    +0.000 A 
ATOM     27  C   UNL     1       1.967   4.941  19.835  0.00  0.00    +0.000 A 
ATOM     28  C   UNL     1       1.538   5.984  20.662  0.00  0.00    +0.000 A 
BRANCH  26  29
ATOM     29  N   UNL     1       2.966   4.147  17.707  0.00  0.00    +0.000 N 
ATOM     30  O   UNL     1       4.177   3.989  17.494  0.00  0.00    +0.000 OA
ATOM     31  O   UNL     1       2.067   3.461  17.203  0.00  0.00    +0.000 OA
ENDBRANCH  26  29
ENDBRANCH  20  23
ENDBRANCH   6  20
TORSDOF 5
ENDMDL
MODEL 6
REMARK VINA RESULT:      -7.0      1.835      2.163
REMARK  Name = 
REMARK  6 active torsions:
REMARK  status: ('A' for Active; 'I' for Inactive)
REMARK    1  A    between atoms: C_1  and  C_2
REMARK    2  A    between atoms: C_2  and  N_3
REMARK    3  A    between atoms: C_5  and  C_6
REMARK    4  A    between atoms: N_11  and  S_12
REMARK    5  A    between atoms: S_12  and  C_15
REMARK    6  A    between atoms: C_18  and  N_19
REMARK                            x       y       z     vdW  Elec       q    Type
REMARK                         _______ _______ _______ _____ _____    ______ ____
ROOT
ATOM      1  C   UNL     1      -1.520  14.244  21.330  0.00  0.00    +0.000 C 
ATOM      2  O   UNL     1      -0.868  15.263  21.556  0.00  0.00    +0.000 OA
ATOM      3  N   UNL     1      -0.893  13.087  20.837  0.00  0.00    +0.000 N 
ATOM      4  C   UNL     1      -1.616  11.898  20.389  0.00  0.00    +0.000 C 
ATOM      5  C   UNL     1      -0.869  11.101  19.329  0.00  0.00    +0.000 C 
ATOM      6  N   UNL     1       0.502  10.739  19.775  0.00  0.00    +0.000 NA
ATOM      7  C   UNL     1       1.263  12.012  20.061  0.00  0.00    +0.000 C 
ATOM      8  C   UNL     1       0.548  12.908  21.097  0.00  0.00    +0.000 C 
ENDROOT
BRANCH   1  11
ATOM      9  N   UNL     1      -5.175  14.578  21.294  0.00  0.00    +0.000 N 
ATOM     10  C   UNL     1      -3.957  14.669  20.686  0.00  0.00    +0.000 A 
ATOM     11  C   UNL     1      -2.975  14.216  21.556  0.00  0.00    +0.000 A 
ATOM     12  C   UNL     1      -3.691  13.616  22.652  0.00  0.00    +0.000 A 
ATOM     13  C   UNL     1      -3.299  12.887  23.796  0.00  0.00    +0.000 A 
ATOM     14  C   UNL     1      -4.271  12.397  24.678  0.00  0.00    +0.000 A 
ATOM     15  C   UNL     1      -5.621  12.646  24.454  0.00  0.00    +0.000 A 
ATOM     16  C   UNL     1      -6.038  13.393  23.351  0.00  0.00    +0.000 A 
ATOM     17  C   UNL     1      -5.060  13.857  22.459  0.00  0.00    +0.000 A 
BRANCH   9  19
ATOM     18  C   UNL     1      -6.739  16.487  21.343  0.00  0.00    +0.000 C 
ATOM     19  C   UNL     1      -6.392  15.138  20.731  0.00  0.00    +0.000 C 
ENDBRANCH   9  19
ENDBRANCH   1  11
BRANCH   6  20
ATOM     20  S   UNL     1       0.671   9.540  20.986  0.00  0.00    +0.000 S 
ATOM     21  O   UNL     1       1.567  10.053  21.997  0.00  0.00    +0.000 OA
ATOM     22  O   UNL     1      -0.650   9.063  21.333  0.00  0.00    +0.000 OA
BRANCH  20  23
ATOM     23  C   UNL     1       1.507   8.197  20.162  0.00  0.00    +0.000 A 
ATOM     24  C   UNL     1       1.973   8.366  18.854  0.00  0.00    +0.000 A 
ATOM     25  C   UNL     1       2.539   7.281  18.177  0.00  0.00    +0.000 A 
ATOM     26  C   UNL     1       2.652   6.039  18.821  0.00  0.00    +0.000 A 
ATOM     27  C   UNL     1       2.215   5.880  20.145  0.00  0.00    +0.000 A 
ATOM     28  C   UNL     1       1.638   6.964  20.813  0.00  0.00    +0.000 A 
BRANCH  26  29
ATOM     29  N   UNL     1       3.203   4.886  18.097  0.00  0.00    +0.000 N 
ATOM     30  O   UNL     1       2.434   4.243  17.368  0.00  0.00    +0.000 OA
ATOM     31  O   UNL     1       4.398   4.614  18.274  0.00  0.00    +0.000 OA
ENDBRANCH  26  29
ENDBRANCH  20  23
ENDBRANCH   6  20
TORSDOF 5
ENDMDL
MODEL 7
REMARK VINA RESULT:      -7.0      5.414      7.714
REMARK  Name = 
REMARK  6 active torsions:
REMARK  status: ('A' for Active; 'I' for Inactive)
REMARK    1  A    between atoms: C_1  and  C_2
REMARK    2  A    between atoms: C_2  and  N_3
REMARK    3  A    between atoms: C_5  and  C_6
REMARK    4  A    between atoms: N_11  and  S_12
REMARK    5  A    between atoms: S_12  and  C_15
REMARK    6  A    between atoms: C_18  and  N_19
REMARK                            x       y       z     vdW  Elec       q    Type
REMARK                         _______ _______ _______ _____ _____    ______ ____
ROOT
ATOM      1  C   UNL     1       0.435  12.449  20.770  0.00  0.00    +0.000 C 
ATOM      2  O   UNL     1       0.930  11.560  21.461  0.00  0.00    +0.000 OA
ATOM      3  N   UNL     1       1.175  13.599  20.443  0.00  0.00    +0.000 N 
ATOM      4  C   UNL     1       0.608  14.767  19.772  0.00  0.00    +0.000 C 
ATOM      5  C   UNL     1       1.326  16.066  20.111  0.00  0.00    +0.000 C 
ATOM      6  N   UNL     1       2.787  15.972  19.849  0.00  0.00    +0.000 NA
ATOM      7  C   UNL     1       3.354  14.859  20.699  0.00  0.00    +0.000 C 
ATOM      8  C   UNL     1       2.646  13.508  20.452  0.00  0.00    +0.000 C 
ENDROOT
BRANCH   1  11
ATOM      9  N   UNL     1      -3.169  12.622  20.098  0.00  0.00    +0.000 N 
ATOM     10  C   UNL     1      -2.039  13.092  20.700  0.00  0.00    +0.000 A 
ATOM     11  C   UNL     1      -0.950  12.339  20.282  0.00  0.00    +0.000 A 
ATOM     12  C   UNL     1      -1.447  11.528  19.200  0.00  0.00    +0.000 A 
ATOM     13  C   UNL     1      -0.843  10.638  18.285  0.00  0.00    +0.000 A 
ATOM     14  C   UNL     1      -1.621  10.013  17.302  0.00  0.00    +0.000 A 
ATOM     15  C   UNL     1      -2.992  10.239  17.234  0.00  0.00    +0.000 A 
ATOM     16  C   UNL     1      -3.624  11.087  18.146  0.00  0.00    +0.000 A 
ATOM     17  C   UNL     1      -2.833  11.728  19.110  0.00  0.00    +0.000 A 
BRANCH   9  19
ATOM     18  C   UNL     1      -4.771  12.945  21.948  0.00  0.00    +0.000 C 
ATOM     19  C   UNL     1      -4.507  13.066  20.456  0.00  0.00    +0.000 C 
ENDBRANCH   9  19
ENDBRANCH   1  11
BRANCH   6  20
ATOM     20  S   UNL     1       3.319  15.946  18.222  0.00  0.00    +0.000 S 
ATOM     21  O   UNL     1       2.877  14.704  17.629  0.00  0.00    +0.000 OA
ATOM     22  O   UNL     1       2.987  17.219  17.619  0.00  0.00    +0.000 OA
BRANCH  20  23
ATOM     23  C   UNL     1       5.098  15.878  18.341  0.00  0.00    +0.000 A 
ATOM     24  C   UNL     1       5.802  16.973  18.851  0.00  0.00    +0.000 A 
ATOM     25  C   UNL     1       7.201  16.954  18.852  0.00  0.00    +0.000 A 
ATOM     26  C   UNL     1       7.885  15.832  18.360  0.00  0.00    +0.000 A 
ATOM     27  C   UNL     1       7.176  14.720  17.879  0.00  0.00    +0.000 A 
ATOM     28  C   UNL     1       5.778  14.748  17.869  0.00  0.00    +0.000 A 
BRANCH  26  29
ATOM     29  N   UNL     1       9.353  15.828  18.316  0.00  0.00    +0.000 N 
ATOM     30  O   UNL     1       9.900  16.384  17.353  0.00  0.00    +0.000 OA
ATOM     31  O   UNL     1       9.954  15.254  19.233  0.00  0.00    +0.000 OA
ENDBRANCH  26  29
ENDBRANCH  20  23
ENDBRANCH   6  20
TORSDOF 5
ENDMDL
MODEL 8
REMARK VINA RESULT:      -7.0      1.292      2.030
REMARK  Name = 
REMARK  6 active torsions:
REMARK  status: ('A' for Active; 'I' for Inactive)
REMARK    1  A    between atoms: C_1  and  C_2
REMARK    2  A    between atoms: C_2  and  N_3
REMARK    3  A    between atoms: C_5  and  C_6
REMARK    4  A    between atoms: N_11  and  S_12
REMARK    5  A    between atoms: S_12  and  C_15
REMARK    6  A    between atoms: C_18  and  N_19
REMARK                            x       y       z     vdW  Elec       q    Type
REMARK                         _______ _______ _______ _____ _____    ______ ____
ROOT
ATOM      1  C   UNL     1      -2.080  12.517  19.702  0.00  0.00    +0.000 C 
ATOM      2  O   UNL     1      -2.098  13.613  20.262  0.00  0.00    +0.000 OA
ATOM      3  N   UNL     1      -0.984  11.650  19.857  0.00  0.00    +0.000 N 
ATOM      4  C   UNL     1      -0.813  10.413  19.100  0.00  0.00    +0.000 C 
ATOM      5  C   UNL     1       0.645  10.015  18.915  0.00  0.00    +0.000 C 
ATOM      6  N   UNL     1       1.363   9.934  20.216  0.00  0.00    +0.000 NA
ATOM      7  C   UNL     1       1.302  11.289  20.880  0.00  0.00    +0.000 C 
ATOM      8  C   UNL     1      -0.147  11.793  21.063  0.00  0.00    +0.000 C 
ENDROOT
BRANCH   1  11
ATOM      9  N   UNL     1      -4.354  11.353  17.067  0.00  0.00    +0.000 N 
ATOM     10  C   UNL     1      -3.103  11.492  17.595  0.00  0.00    +0.000 A 
ATOM     11  C   UNL     1      -3.199  12.093  18.843  0.00  0.00    +0.000 A 
ATOM     12  C   UNL     1      -4.606  12.097  19.152  0.00  0.00    +0.000 A 
ATOM     13  C   UNL     1      -5.357  12.458  20.292  0.00  0.00    +0.000 A 
ATOM     14  C   UNL     1      -6.750  12.309  20.286  0.00  0.00    +0.000 A 
ATOM     15  C   UNL     1      -7.407  11.833  19.155  0.00  0.00    +0.000 A 
ATOM     16  C   UNL     1      -6.695  11.500  18.001  0.00  0.00    +0.000 A 
ATOM     17  C   UNL     1      -5.298  11.628  18.025  0.00  0.00    +0.000 A 
BRANCH   9  19
ATOM     18  C   UNL     1      -3.324  10.468  15.004  0.00  0.00    +0.000 C 
ATOM     19  C   UNL     1      -4.597  10.929  15.697  0.00  0.00    +0.000 C 
ENDBRANCH   9  19
ENDBRANCH   1  11
BRANCH   6  20
ATOM     20  S   UNL     1       0.999   8.628  21.262  0.00  0.00    +0.000 S 
ATOM     21  O   UNL     1       1.743   8.819  22.486  0.00  0.00    +0.000 OA
ATOM     22  O   UNL     1      -0.437   8.454  21.281  0.00  0.00    +0.000 OA
BRANCH  20  23
ATOM     23  C   UNL     1       1.683   7.201  20.438  0.00  0.00    +0.000 A 
ATOM     24  C   UNL     1       1.464   5.924  20.964  0.00  0.00    +0.000 A 
ATOM     25  C   UNL     1       2.083   4.818  20.371  0.00  0.00    +0.000 A 
ATOM     26  C   UNL     1       2.902   4.997  19.245  0.00  0.00    +0.000 A 
ATOM     27  C   UNL     1       3.093   6.275  18.699  0.00  0.00    +0.000 A 
ATOM     28  C   UNL     1       2.482   7.379  19.301  0.00  0.00    +0.000 A 
BRANCH  26  29
ATOM     29  N   UNL     1       3.590   3.844  18.649  0.00  0.00    +0.000 N 
ATOM     30  O   UNL     1       3.347   3.580  17.462  0.00  0.00    +0.000 OA
ATOM     31  O   UNL     1       4.356   3.195  19.373  0.00  0.00    +0.000 OA
ENDBRANCH  26  29
ENDBRANCH  20  23
ENDBRANCH   6  20
TORSDOF 5
ENDMDL
MODEL 9
REMARK VINA RESULT:      -6.9      2.028      2.507
REMARK  Name = 
REMARK  6 active torsions:
REMARK  status: ('A' for Active; 'I' for Inactive)
REMARK    1  A    between atoms: C_1  and  C_2
REMARK    2  A    between atoms: C_2  and  N_3
REMARK    3  A    between atoms: C_5  and  C_6
REMARK    4  A    between atoms: N_11  and  S_12
REMARK    5  A    between atoms: S_12  and  C_15
REMARK    6  A    between atoms: C_18  and  N_19
REMARK                            x       y       z     vdW  Elec       q    Type
REMARK                         _______ _______ _______ _____ _____    ______ ____
ROOT
ATOM      1  C   UNL     1      -2.014  14.599  20.997  0.00  0.00    +0.000 C 
ATOM      2  O   UNL     1      -1.424  15.675  21.084  0.00  0.00    +0.000 OA
ATOM      3  N   UNL     1      -1.360  13.461  20.494  0.00  0.00    +0.000 N 
ATOM      4  C   UNL     1      -2.033  12.196  20.207  0.00  0.00    +0.000 C 
ATOM      5  C   UNL     1      -1.357  11.389  19.107  0.00  0.00    +0.000 C 
ATOM      6  N   UNL     1       0.083  11.158  19.400  0.00  0.00    +0.000 NA
ATOM      7  C   UNL     1       0.768  12.499  19.518  0.00  0.00    +0.000 C 
ATOM      8  C   UNL     1       0.111  13.405  20.584  0.00  0.00    +0.000 C 
ENDROOT
BRANCH   1  11
ATOM      9  N   UNL     1      -5.654  14.738  21.445  0.00  0.00    +0.000 N 
ATOM     10  C   UNL     1      -4.531  14.931  20.695  0.00  0.00    +0.000 A 
ATOM     11  C   UNL     1      -3.425  14.480  21.402  0.00  0.00    +0.000 A 
ATOM     12  C   UNL     1      -3.966  13.778  22.538  0.00  0.00    +0.000 A 
ATOM     13  C   UNL     1      -3.396  13.004  23.573  0.00  0.00    +0.000 A 
ATOM     14  C   UNL     1      -4.222  12.412  24.536  0.00  0.00    +0.000 A 
ATOM     15  C   UNL     1      -5.600  12.600  24.502  0.00  0.00    +0.000 A 
ATOM     16  C   UNL     1      -6.190  13.389  23.511  0.00  0.00    +0.000 A 
ATOM     17  C   UNL     1      -5.357  13.957  22.535  0.00  0.00    +0.000 A 
BRANCH   9  19
ATOM     18  C   UNL     1      -7.277  16.564  21.803  0.00  0.00    +0.000 C 
ATOM     19  C   UNL     1      -6.959  15.266  21.078  0.00  0.00    +0.000 C 
ENDBRANCH   9  19
ENDBRANCH   1  11
BRANCH   6  20
ATOM     20  S   UNL     1       0.490  10.055  20.645  0.00  0.00    +0.000 S 
ATOM     21  O   UNL     1       1.421  10.712  21.533  0.00  0.00    +0.000 OA
ATOM     22  O   UNL     1      -0.736   9.472  21.148  0.00  0.00    +0.000 OA
BRANCH  20  23
ATOM     23  C   UNL     1       1.377   8.753  19.807  0.00  0.00    +0.000 A 
ATOM     24  C   UNL     1       1.749   7.603  20.509  0.00  0.00    +0.000 A 
ATOM     25  C   UNL     1       2.529   6.630  19.875  0.00  0.00    +0.000 A 
ATOM     26  C   UNL     1       2.915   6.807  18.537  0.00  0.00    +0.000 A 
ATOM     27  C   UNL     1       2.512   7.947  17.825  0.00  0.00    +0.000 A 
ATOM     28  C   UNL     1       1.743   8.923  18.466  0.00  0.00    +0.000 A 
BRANCH  26  29
ATOM     29  N   UNL     1       3.773   5.810  17.884  0.00  0.00    +0.000 N 
ATOM     30  O   UNL     1       4.999   5.982  17.938  0.00  0.00    +0.000 OA
ATOM     31  O   UNL     1       3.218   4.869  17.301  0.00  0.00    +0.000 OA
ENDBRANCH  26  29
ENDBRANCH  20  23
ENDBRANCH   6  20
TORSDOF 5
ENDMDL
