MODEL 1
REMARK VINA RESULT:      -8.4      0.000      0.000
REMARK  Name = 
REMARK  4 active torsions:
REMARK  status: ('A' for Active; 'I' for Inactive)
REMARK    1  A    between atoms: C_2  and  C_3
REMARK    2  A    between atoms: C_8  and  C_9
REMARK    3  A    between atoms: C_9  and  N_10
REMARK    4  A    between atoms: C_12  and  C_13
REMARK                            x       y       z     vdW  Elec       q    Type
REMARK                         _______ _______ _______ _____ _____    ______ ____
ROOT
ATOM      1  N   UNL     1       2.188   6.080  19.947  0.00  0.00    +0.000 N 
ATOM      2  C   UNL     1       2.970   6.300  18.843  0.00  0.00    +0.000 A 
ATOM      3  C   UNL     1       3.683   5.143  18.598  0.00  0.00    +0.000 A 
ATOM      4  C   UNL     1       3.376   4.205  19.623  0.00  0.00    +0.000 A 
ATOM      5  C   UNL     1       3.779   2.912  20.005  0.00  0.00    +0.000 A 
ATOM      6  N   UNL     1       4.763   2.177  19.367  0.00  0.00    +0.000 N 
ATOM      7  N   UNL     1       3.219   2.346  21.091  0.00  0.00    +0.000 NA
ATOM      8  C   UNL     1       2.267   3.027  21.748  0.00  0.00    +0.000 A 
ATOM      9  N   UNL     1       1.793   4.251  21.475  0.00  0.00    +0.000 NA
ATOM     10  C   UNL     1       2.402   4.805  20.414  0.00  0.00    +0.000 A 
ATOM     11  H   UNL     1       5.404   2.715  18.795  0.00  0.00    +0.000 HD
ATOM     12  H   UNL     1       5.154   1.462  19.967  0.00  0.00    +0.000 HD
ENDROOT
BRANCH   3  13
ATOM     13  C   UNL     1       4.573   4.957  17.424  0.00  0.00    +0.000 A 
ATOM     14  C   UNL     1       5.771   5.610  17.206  0.00  0.00    +0.000 A 
ATOM     15  C   UNL     1       6.230   5.212  15.924  0.00  0.00    +0.000 A 
ATOM     16  C   UNL     1       7.335   5.524  15.121  0.00  0.00    +0.000 A 
ATOM     17  C   UNL     1       7.417   4.939  13.852  0.00  0.00    +0.000 A 
ATOM     18  C   UNL     1       6.432   4.066  13.388  0.00  0.00    +0.000 A 
ATOM     19  C   UNL     1       5.332   3.727  14.185  0.00  0.00    +0.000 A 
ATOM     20  C   UNL     1       5.279   4.324  15.446  0.00  0.00    +0.000 A 
ATOM     21  O   UNL     1       4.297   4.141  16.362  0.00  0.00    +0.000 OA
ENDBRANCH   3  13
BRANCH   1  22
ATOM     22  C   UNL     1       1.238   7.043  20.478  0.00  0.00    +0.000 C 
BRANCH  22  28
ATOM     23  C   UNL     1      -0.957  11.274  22.118  0.00  0.00    +0.000 C 
ATOM     24  O   UNL     1      -0.783  11.616  23.287  0.00  0.00    +0.000 OA
ATOM     25  N   UNL     1      -0.421  10.118  21.580  0.00  0.00    +0.000 N 
ATOM     26  C   UNL     1       0.237   9.189  22.494  0.00  0.00    +0.000 C 
ATOM     27  C   UNL     1       1.694   9.008  22.090  0.00  0.00    +0.000 C 
ATOM     28  C   UNL     1       1.803   8.471  20.654  0.00  0.00    +0.000 C 
ATOM     29  C   UNL     1       1.082   9.468  19.721  0.00  0.00    +0.000 C 
ATOM     30  C   UNL     1      -0.360   9.757  20.159  0.00  0.00    +0.000 C 
BRANCH  23  32
ATOM     31  C   UNL     1      -2.899  12.697  21.706  0.00  0.00    +0.000 C 
ATOM     32  C   UNL     1      -1.797  12.108  21.225  0.00  0.00    +0.000 C 
ENDBRANCH  23  32
ENDBRANCH  22  28
ENDBRANCH   1  22
TORSDOF 4
ENDMDL
MODEL 2
REMARK VINA RESULT:      -8.2      0.521      1.087
REMARK  Name = 
REMARK  4 active torsions:
REMARK  status: ('A' for Active; 'I' for Inactive)
REMARK    1  A    between atoms: C_2  and  C_3
REMARK    2  A    between atoms: C_8  and  C_9
REMARK    3  A    between atoms: C_9  and  N_10
REMARK    4  A    between atoms: C_12  and  C_13
REMARK                            x       y       z     vdW  Elec       q    Type
REMARK                         _______ _______ _______ _____ _____    ______ ____
ROOT
ATOM      1  N   UNL     1       2.107   6.160  20.096  0.00  0.00    +0.000 N 
ATOM      2  C   UNL     1       2.810   6.422  18.948  0.00  0.00    +0.000 A 
ATOM      3  C   UNL     1       3.517   5.282  18.620  0.00  0.00    +0.000 A 
ATOM      4  C   UNL     1       3.291   4.310  19.636  0.00  0.00    +0.000 A 
ATOM      5  C   UNL     1       3.734   3.013  19.951  0.00  0.00    +0.000 A 
ATOM      6  N   UNL     1       4.679   2.309  19.226  0.00  0.00    +0.000 N 
ATOM      7  N   UNL     1       3.255   2.408  21.056  0.00  0.00    +0.000 NA
ATOM      8  C   UNL     1       2.343   3.057  21.795  0.00  0.00    +0.000 A 
ATOM      9  N   UNL     1       1.838   4.283  21.592  0.00  0.00    +0.000 NA
ATOM     10  C   UNL     1       2.367   4.875  20.509  0.00  0.00    +0.000 A 
ATOM     11  H   UNL     1       5.274   2.871  18.628  0.00  0.00    +0.000 HD
ATOM     12  H   UNL     1       5.118   1.582  19.777  0.00  0.00    +0.000 HD
ENDROOT
BRANCH   3  13
ATOM     13  C   UNL     1       4.326   5.141  17.384  0.00  0.00    +0.000 A 
ATOM     14  C   UNL     1       4.062   4.277  16.339  0.00  0.00    +0.000 A 
ATOM     15  C   UNL     1       5.139   4.396  15.423  0.00  0.00    +0.000 A 
ATOM     16  C   UNL     1       5.484   3.790  14.207  0.00  0.00    +0.000 A 
ATOM     17  C   UNL     1       6.694   4.155  13.606  0.00  0.00    +0.000 A 
ATOM     18  C   UNL     1       7.542   5.096  14.191  0.00  0.00    +0.000 A 
ATOM     19  C   UNL     1       7.204   5.726  15.395  0.00  0.00    +0.000 A 
ATOM     20  C   UNL     1       5.990   5.343  15.969  0.00  0.00    +0.000 A 
ATOM     21  O   UNL     1       5.486   5.821  17.133  0.00  0.00    +0.000 OA
ENDBRANCH   3  13
BRANCH   1  22
ATOM     22  C   UNL     1       1.186   7.095  20.719  0.00  0.00    +0.000 C 
BRANCH  22  28
ATOM     23  C   UNL     1      -1.093  11.376  22.094  0.00  0.00    +0.000 C 
ATOM     24  O   UNL     1      -0.999  11.746  23.263  0.00  0.00    +0.000 OA
ATOM     25  N   UNL     1      -0.527  10.204  21.624  0.00  0.00    +0.000 N 
ATOM     26  C   UNL     1       0.059   9.296  22.605  0.00  0.00    +0.000 C 
ATOM     27  C   UNL     1       1.540   9.097  22.310  0.00  0.00    +0.000 C 
ATOM     28  C   UNL     1       1.745   8.524  20.898  0.00  0.00    +0.000 C 
ATOM     29  C   UNL     1       1.098   9.501  19.893  0.00  0.00    +0.000 C 
ATOM     30  C   UNL     1      -0.369   9.807  20.221  0.00  0.00    +0.000 C 
BRANCH  23  32
ATOM     31  C   UNL     1      -3.050  12.700  21.476  0.00  0.00    +0.000 C 
ATOM     32  C   UNL     1      -1.862  12.191  21.124  0.00  0.00    +0.000 C 
ENDBRANCH  23  32
ENDBRANCH  22  28
ENDBRANCH   1  22
TORSDOF 4
ENDMDL
MODEL 3
REMARK VINA RESULT:      -8.2      1.754      2.058
REMARK  Name = 
REMARK  4 active torsions:
REMARK  status: ('A' for Active; 'I' for Inactive)
REMARK    1  A    between atoms: C_2  and  C_3
REMARK    2  A    between atoms: C_8  and  C_9
REMARK    3  A    between atoms: C_9  and  N_10
REMARK    4  A    between atoms: C_12  and  C_13
REMARK                            x       y       z     vdW  Elec       q    Type
REMARK                         _______ _______ _______ _____ _____    ______ ____
ROOT
ATOM      1  N   UNL     1       2.700   7.236  18.790  0.00  0.00    +0.000 N 
ATOM      2  C   UNL     1       3.507   7.198  17.682  0.00  0.00    +0.000 A 
ATOM      3  C   UNL     1       3.987   5.909  17.558  0.00  0.00    +0.000 A 
ATOM      4  C   UNL     1       3.511   5.148  18.662  0.00  0.00    +0.000 A 
ATOM      5  C   UNL     1       3.664   3.846  19.170  0.00  0.00    +0.000 A 
ATOM      6  N   UNL     1       4.487   2.880  18.619  0.00  0.00    +0.000 N 
ATOM      7  N   UNL     1       3.010   3.501  20.297  0.00  0.00    +0.000 NA
ATOM      8  C   UNL     1       2.207   4.409  20.872  0.00  0.00    +0.000 A 
ATOM      9  N   UNL     1       1.972   5.670  20.478  0.00  0.00    +0.000 NA
ATOM     10  C   UNL     1       2.671   5.995  19.379  0.00  0.00    +0.000 A 
ATOM     11  H   UNL     1       5.217   3.230  18.008  0.00  0.00    +0.000 HD
ATOM     12  H   UNL     1       4.738   2.165  19.290  0.00  0.00    +0.000 HD
ENDROOT
BRANCH   3  13
ATOM     13  C   UNL     1       4.821   5.447  16.420  0.00  0.00    +0.000 A 
ATOM     14  C   UNL     1       6.026   5.997  16.025  0.00  0.00    +0.000 A 
ATOM     15  C   UNL     1       6.419   5.320  14.843  0.00  0.00    +0.000 A 
ATOM     16  C   UNL     1       7.498   5.416  13.952  0.00  0.00    +0.000 A 
ATOM     17  C   UNL     1       7.511   4.572  12.835  0.00  0.00    +0.000 A 
ATOM     18  C   UNL     1       6.484   3.655  12.604  0.00  0.00    +0.000 A 
ATOM     19  C   UNL     1       5.410   3.532  13.494  0.00  0.00    +0.000 A 
ATOM     20  C   UNL     1       5.426   4.385  14.599  0.00  0.00    +0.000 A 
ATOM     21  O   UNL     1       4.479   4.435  15.567  0.00  0.00    +0.000 OA
ENDBRANCH   3  13
BRANCH   1  22
ATOM     22  C   UNL     1       1.953   8.408  19.214  0.00  0.00    +0.000 C 
BRANCH  22  28
ATOM     23  C   UNL     1      -0.747  12.665  19.272  0.00  0.00    +0.000 C 
ATOM     24  O   UNL     1      -0.154  13.741  19.224  0.00  0.00    +0.000 OA
ATOM     25  N   UNL     1      -0.097  11.444  19.288  0.00  0.00    +0.000 N 
ATOM     26  C   UNL     1       1.356  11.453  19.424  0.00  0.00    +0.000 C 
ATOM     27  C   UNL     1       1.996  10.787  18.212  0.00  0.00    +0.000 C 
ATOM     28  C   UNL     1       1.507   9.337  18.062  0.00  0.00    +0.000 C 
ATOM     29  C   UNL     1      -0.031   9.366  17.940  0.00  0.00    +0.000 C 
ATOM     30  C   UNL     1      -0.706  10.123  19.093  0.00  0.00    +0.000 C 
BRANCH  23  32
ATOM     31  C   UNL     1      -2.844  12.870  20.507  0.00  0.00    +0.000 C 
ATOM     32  C   UNL     1      -2.228  12.642  19.340  0.00  0.00    +0.000 C 
ENDBRANCH  23  32
ENDBRANCH  22  28
ENDBRANCH   1  22
TORSDOF 4
ENDMDL
MODEL 4
REMARK VINA RESULT:      -8.1      3.468      6.170
REMARK  Name = 
REMARK  4 active torsions:
REMARK  status: ('A' for Active; 'I' for Inactive)
REMARK    1  A    between atoms: C_2  and  C_3
REMARK    2  A    between atoms: C_8  and  C_9
REMARK    3  A    between atoms: C_9  and  N_10
REMARK    4  A    between atoms: C_12  and  C_13
REMARK                            x       y       z     vdW  Elec       q    Type
REMARK                         _______ _______ _______ _____ _____    ______ ____
ROOT
ATOM      1  N   UNL     1      -0.558  10.743  18.508  0.00  0.00    +0.000 N 
ATOM      2  C   UNL     1       0.349   9.868  17.968  0.00  0.00    +0.000 A 
ATOM      3  C   UNL     1       1.009   9.252  19.013  0.00  0.00    +0.000 A 
ATOM      4  C   UNL     1       0.536   9.815  20.232  0.00  0.00    +0.000 A 
ATOM      5  C   UNL     1       0.814   9.702  21.606  0.00  0.00    +0.000 A 
ATOM      6  N   UNL     1       1.810   8.906  22.143  0.00  0.00    +0.000 N 
ATOM      7  N   UNL     1       0.107  10.445  22.481  0.00  0.00    +0.000 NA
ATOM      8  C   UNL     1      -0.863  11.240  22.005  0.00  0.00    +0.000 A 
ATOM      9  N   UNL     1      -1.228  11.422  20.727  0.00  0.00    +0.000 NA
ATOM     10  C   UNL     1      -0.476  10.702  19.879  0.00  0.00    +0.000 A 
ATOM     11  H   UNL     1       2.542   8.631  21.496  0.00  0.00    +0.000 HD
ATOM     12  H   UNL     1       2.089   9.214  23.065  0.00  0.00    +0.000 HD
ENDROOT
BRANCH   3  13
ATOM     13  C   UNL     1       2.004   8.166  18.833  0.00  0.00    +0.000 A 
ATOM     14  C   UNL     1       2.823   7.994  17.733  0.00  0.00    +0.000 A 
ATOM     15  C   UNL     1       3.532   6.782  17.934  0.00  0.00    +0.000 A 
ATOM     16  C   UNL     1       4.472   6.044  17.199  0.00  0.00    +0.000 A 
ATOM     17  C   UNL     1       4.921   4.830  17.730  0.00  0.00    +0.000 A 
ATOM     18  C   UNL     1       4.454   4.355  18.957  0.00  0.00    +0.000 A 
ATOM     19  C   UNL     1       3.532   5.089  19.713  0.00  0.00    +0.000 A 
ATOM     20  C   UNL     1       3.104   6.296  19.159  0.00  0.00    +0.000 A 
ATOM     21  O   UNL     1       2.210   7.146  19.720  0.00  0.00    +0.000 OA
ENDBRANCH   3  13
BRANCH   1  22
ATOM     22  C   UNL     1      -1.495  11.532  17.725  0.00  0.00    +0.000 C 
BRANCH  22  28
ATOM     23  C   UNL     1      -6.450  10.855  18.361  0.00  0.00    +0.000 C 
ATOM     24  O   UNL     1      -7.229  11.521  17.681  0.00  0.00    +0.000 OA
ATOM     25  N   UNL     1      -5.075  10.986  18.280  0.00  0.00    +0.000 N 
ATOM     26  C   UNL     1      -4.546  12.080  17.473  0.00  0.00    +0.000 C 
ATOM     27  C   UNL     1      -3.680  11.526  16.349  0.00  0.00    +0.000 C 
ATOM     28  C   UNL     1      -2.513  10.699  16.913  0.00  0.00    +0.000 C 
ATOM     29  C   UNL     1      -3.110   9.565  17.774  0.00  0.00    +0.000 C 
ATOM     30  C   UNL     1      -4.072  10.080  18.853  0.00  0.00    +0.000 C 
BRANCH  23  32
ATOM     31  C   UNL     1      -7.493  10.305  20.499  0.00  0.00    +0.000 C 
ATOM     32  C   UNL     1      -6.979   9.876  19.340  0.00  0.00    +0.000 C 
ENDBRANCH  23  32
ENDBRANCH  22  28
ENDBRANCH   1  22
TORSDOF 4
ENDMDL
MODEL 5
REMARK VINA RESULT:      -8.1      2.139      8.847
REMARK  Name = 
REMARK  4 active torsions:
REMARK  status: ('A' for Active; 'I' for Inactive)
REMARK    1  A    between atoms: C_2  and  C_3
REMARK    2  A    between atoms: C_8  and  C_9
REMARK    3  A    between atoms: C_9  and  N_10
REMARK    4  A    between atoms: C_12  and  C_13
REMARK                            x       y       z     vdW  Elec       q    Type
REMARK                         _______ _______ _______ _____ _____    ______ ____
ROOT
ATOM      1  N   UNL     1       4.783   5.236  18.191  0.00  0.00    +0.000 N 
ATOM      2  C   UNL     1       4.176   6.441  18.436  0.00  0.00    +0.000 A 
ATOM      3  C   UNL     1       3.028   6.191  19.161  0.00  0.00    +0.000 A 
ATOM      4  C   UNL     1       2.892   4.781  19.309  0.00  0.00    +0.000 A 
ATOM      5  C   UNL     1       1.963   3.878  19.855  0.00  0.00    +0.000 A 
ATOM      6  N   UNL     1       0.756   4.242  20.427  0.00  0.00    +0.000 N 
ATOM      7  N   UNL     1       2.218   2.556  19.790  0.00  0.00    +0.000 NA
ATOM      8  C   UNL     1       3.372   2.155  19.235  0.00  0.00    +0.000 A 
ATOM      9  N   UNL     1       4.336   2.917  18.696  0.00  0.00    +0.000 NA
ATOM     10  C   UNL     1       4.031   4.223  18.738  0.00  0.00    +0.000 A 
ATOM     11  H   UNL     1       0.416   5.163  20.171  0.00  0.00    +0.000 HD
ATOM     12  H   UNL     1       0.092   3.479  20.433  0.00  0.00    +0.000 HD
ENDROOT
BRANCH   3  13
ATOM     13  C   UNL     1       2.146   7.256  19.701  0.00  0.00    +0.000 A 
ATOM     14  C   UNL     1       1.870   8.464  19.090  0.00  0.00    +0.000 A 
ATOM     15  C   UNL     1       1.076   9.212  19.996  0.00  0.00    +0.000 A 
ATOM     16  C   UNL     1       0.503  10.492  19.996  0.00  0.00    +0.000 A 
ATOM     17  C   UNL     1      -0.199  10.902  21.136  0.00  0.00    +0.000 A 
ATOM     18  C   UNL     1      -0.333  10.069  22.247  0.00  0.00    +0.000 A 
ATOM     19  C   UNL     1       0.216   8.780  22.256  0.00  0.00    +0.000 A 
ATOM     20  C   UNL     1       0.908   8.399  21.106  0.00  0.00    +0.000 A 
ATOM     21  O   UNL     1       1.522   7.205  20.917  0.00  0.00    +0.000 OA
ENDBRANCH   3  13
BRANCH   1  22
ATOM     22  C   UNL     1       6.059   5.090  17.510  0.00  0.00    +0.000 C 
BRANCH  22  28
ATOM     23  C   UNL     1       5.704   3.601  12.708  0.00  0.00    +0.000 C 
ATOM     24  O   UNL     1       4.641   3.771  12.113  0.00  0.00    +0.000 OA
ATOM     25  N   UNL     1       5.894   3.950  14.033  0.00  0.00    +0.000 N 
ATOM     26  C   UNL     1       4.725   4.382  14.792  0.00  0.00    +0.000 C 
ATOM     27  C   UNL     1       4.932   5.804  15.300  0.00  0.00    +0.000 C 
ATOM     28  C   UNL     1       6.180   5.890  16.194  0.00  0.00    +0.000 C 
ATOM     29  C   UNL     1       7.389   5.408  15.365  0.00  0.00    +0.000 C 
ATOM     30  C   UNL     1       7.174   4.019  14.748  0.00  0.00    +0.000 C 
BRANCH  23  32
ATOM     31  C   UNL     1       6.667   1.829  11.330  0.00  0.00    +0.000 C 
ATOM     32  C   UNL     1       6.848   2.971  12.005  0.00  0.00    +0.000 C 
ENDBRANCH  23  32
ENDBRANCH  22  28
ENDBRANCH   1  22
TORSDOF 4
ENDMDL
MODEL 6
REMARK VINA RESULT:      -7.9      2.328      8.927
REMARK  Name = 
REMARK  4 active torsions:
REMARK  status: ('A' for Active; 'I' for Inactive)
REMARK    1  A    between atoms: C_2  and  C_3
REMARK    2  A    between atoms: C_8  and  C_9
REMARK    3  A    between atoms: C_9  and  N_10
REMARK    4  A    between atoms: C_12  and  C_13
REMARK                            x       y       z     vdW  Elec       q    Type
REMARK                         _______ _______ _______ _____ _____    ______ ____
ROOT
ATOM      1  N   UNL     1       4.741   6.250  17.551  0.00  0.00    +0.000 N 
ATOM      2  C   UNL     1       3.909   7.340  17.537  0.00  0.00    +0.000 A 
ATOM      3  C   UNL     1       2.966   7.160  18.529  0.00  0.00    +0.000 A 
ATOM      4  C   UNL     1       3.187   5.888  19.128  0.00  0.00    +0.000 A 
ATOM      5  C   UNL     1       2.583   5.081  20.109  0.00  0.00    +0.000 A 
ATOM      6  N   UNL     1       1.418   5.404  20.782  0.00  0.00    +0.000 N 
ATOM      7  N   UNL     1       3.129   3.884  20.400  0.00  0.00    +0.000 NA
ATOM      8  C   UNL     1       4.254   3.524  19.765  0.00  0.00    +0.000 A 
ATOM      9  N   UNL     1       4.926   4.207  18.827  0.00  0.00    +0.000 NA
ATOM     10  C   UNL     1       4.333   5.374  18.528  0.00  0.00    +0.000 A 
ATOM     11  H   UNL     1       0.839   6.105  20.334  0.00  0.00    +0.000 HD
ATOM     12  H   UNL     1       0.959   4.587  21.163  0.00  0.00    +0.000 HD
ENDROOT
BRANCH   3  13
ATOM     13  C   UNL     1       1.946   8.175  18.890  0.00  0.00    +0.000 A 
ATOM     14  C   UNL     1       1.358   9.075  18.021  0.00  0.00    +0.000 A 
ATOM     15  C   UNL     1       0.528   9.919  18.801  0.00  0.00    +0.000 A 
ATOM     16  C   UNL     1      -0.297  11.023  18.540  0.00  0.00    +0.000 A 
ATOM     17  C   UNL     1      -0.942  11.637  19.620  0.00  0.00    +0.000 A 
ATOM     18  C   UNL     1      -0.777  11.172  20.926  0.00  0.00    +0.000 A 
ATOM     19  C   UNL     1       0.026  10.059  21.202  0.00  0.00    +0.000 A 
ATOM     20  C   UNL     1       0.655   9.467  20.105  0.00  0.00    +0.000 A 
ATOM     21  O   UNL     1       1.480   8.393  20.157  0.00  0.00    +0.000 OA
ENDBRANCH   3  13
BRANCH   1  22
ATOM     22  C   UNL     1       5.906   6.102  16.694  0.00  0.00    +0.000 C 
BRANCH  22  28
ATOM     23  C   UNL     1       6.126   3.481  12.395  0.00  0.00    +0.000 C 
ATOM     24  O   UNL     1       7.214   3.354  11.835  0.00  0.00    +0.000 OA
ATOM     25  N   UNL     1       5.956   4.203  13.563  0.00  0.00    +0.000 N 
ATOM     26  C   UNL     1       7.092   4.980  14.048  0.00  0.00    +0.000 C 
ATOM     27  C   UNL     1       7.494   4.501  15.437  0.00  0.00    +0.000 C 
ATOM     28  C   UNL     1       6.323   4.639  16.424  0.00  0.00    +0.000 C 
ATOM     29  C   UNL     1       5.138   3.821  15.869  0.00  0.00    +0.000 C 
ATOM     30  C   UNL     1       4.772   4.204  14.429  0.00  0.00    +0.000 C 
BRANCH  23  32
ATOM     31  C   UNL     1       4.127   3.585  10.995  0.00  0.00    +0.000 C 
ATOM     32  C   UNL     1       4.916   2.863  11.801  0.00  0.00    +0.000 C 
ENDBRANCH  23  32
ENDBRANCH  22  28
ENDBRANCH   1  22
TORSDOF 4
ENDMDL
MODEL 7
REMARK VINA RESULT:      -7.9      1.082      1.380
REMARK  Name = 
REMARK  4 active torsions:
REMARK  status: ('A' for Active; 'I' for Inactive)
REMARK    1  A    between atoms: C_2  and  C_3
REMARK    2  A    between atoms: C_8  and  C_9
REMARK    3  A    between atoms: C_9  and  N_10
REMARK    4  A    between atoms: C_12  and  C_13
REMARK                            x       y       z     vdW  Elec       q    Type
REMARK                         _______ _______ _______ _____ _____    ______ ____
ROOT
ATOM      1  N   UNL     1       2.497   6.469  19.848  0.00  0.00    +0.000 N 
ATOM      2  C   UNL     1       3.459   6.592  18.878  0.00  0.00    +0.000 A 
ATOM      3  C   UNL     1       3.641   5.348  18.308  0.00  0.00    +0.000 A 
ATOM      4  C   UNL     1       2.810   4.418  18.995  0.00  0.00    +0.000 A 
ATOM      5  C   UNL     1       2.561   3.034  18.975  0.00  0.00    +0.000 A 
ATOM      6  N   UNL     1       3.223   2.129  18.164  0.00  0.00    +0.000 N 
ATOM      7  N   UNL     1       1.653   2.519  19.827  0.00  0.00    +0.000 NA
ATOM      8  C   UNL     1       0.992   3.358  20.640  0.00  0.00    +0.000 A 
ATOM      9  N   UNL     1       1.132   4.689  20.741  0.00  0.00    +0.000 NA
ATOM     10  C   UNL     1       2.074   5.163  19.911  0.00  0.00    +0.000 A 
ATOM     11  H   UNL     1       4.112   2.447  17.795  0.00  0.00    +0.000 HD
ATOM     12  H   UNL     1       3.175   1.186  18.528  0.00  0.00    +0.000 HD
ENDROOT
BRANCH   3  13
ATOM     13  C   UNL     1       4.536   5.094  17.152  0.00  0.00    +0.000 A 
ATOM     14  C   UNL     1       5.730   5.740  16.897  0.00  0.00    +0.000 A 
ATOM     15  C   UNL     1       6.196   5.265  15.644  0.00  0.00    +0.000 A 
ATOM     16  C   UNL     1       7.303   5.534  14.826  0.00  0.00    +0.000 A 
ATOM     17  C   UNL     1       7.393   4.870  13.597  0.00  0.00    +0.000 A 
ATOM     18  C   UNL     1       6.415   3.963  13.186  0.00  0.00    +0.000 A 
ATOM     19  C   UNL     1       5.315   3.667  13.999  0.00  0.00    +0.000 A 
ATOM     20  C   UNL     1       5.253   4.343  15.220  0.00  0.00    +0.000 A 
ATOM     21  O   UNL     1       4.269   4.211  16.143  0.00  0.00    +0.000 OA
ENDBRANCH   3  13
BRANCH   1  22
ATOM     22  C   UNL     1       1.978   7.581  20.627  0.00  0.00    +0.000 C 
BRANCH  22  28
ATOM     23  C   UNL     1      -0.563  11.720  21.976  0.00  0.00    +0.000 C 
ATOM     24  O   UNL     1      -0.451  12.733  21.288  0.00  0.00    +0.000 OA
ATOM     25  N   UNL     1       0.113  10.544  21.706  0.00  0.00    +0.000 N 
ATOM     26  C   UNL     1       1.125  10.572  20.655  0.00  0.00    +0.000 C 
ATOM     27  C   UNL     1       0.757   9.586  19.553  0.00  0.00    +0.000 C 
ATOM     28  C   UNL     1       0.641   8.158  20.110  0.00  0.00    +0.000 C 
ATOM     29  C   UNL     1      -0.422   8.173  21.229  0.00  0.00    +0.000 C 
ATOM     30  C   UNL     1      -0.140   9.229  22.306  0.00  0.00    +0.000 C 
BRANCH  23  32
ATOM     31  C   UNL     1      -2.706  12.150  23.066  0.00  0.00    +0.000 C 
ATOM     32  C   UNL     1      -1.436  11.737  23.174  0.00  0.00    +0.000 C 
ENDBRANCH  23  32
ENDBRANCH  22  28
ENDBRANCH   1  22
TORSDOF 4
ENDMDL
MODEL 8
REMARK VINA RESULT:      -7.8      1.798      2.033
REMARK  Name = 
REMARK  4 active torsions:
REMARK  status: ('A' for Active; 'I' for Inactive)
REMARK    1  A    between atoms: C_2  and  C_3
REMARK    2  A    between atoms: C_8  and  C_9
REMARK    3  A    between atoms: C_9  and  N_10
REMARK    4  A    between atoms: C_12  and  C_13
REMARK                            x       y       z     vdW  Elec       q    Type
REMARK                         _______ _______ _______ _____ _____    ______ ____
ROOT
ATOM      1  N   UNL     1       2.460   6.853  19.277  0.00  0.00    +0.000 N 
ATOM      2  C   UNL     1       3.267   6.920  18.171  0.00  0.00    +0.000 A 
ATOM      3  C   UNL     1       3.835   5.675  17.991  0.00  0.00    +0.000 A 
ATOM      4  C   UNL     1       3.413   4.834  19.059  0.00  0.00    +0.000 A 
ATOM      5  C   UNL     1       3.655   3.523  19.508  0.00  0.00    +0.000 A 
ATOM      6  N   UNL     1       4.544   2.643  18.918  0.00  0.00    +0.000 N 
ATOM      7  N   UNL     1       3.026   3.085  20.616  0.00  0.00    +0.000 NA
ATOM      8  C   UNL     1       2.162   3.908  21.229  0.00  0.00    +0.000 A 
ATOM      9  N   UNL     1       1.841   5.166  20.891  0.00  0.00    +0.000 NA
ATOM     10  C   UNL     1       2.516   5.588  19.810  0.00  0.00    +0.000 A 
ATOM     11  H   UNL     1       5.247   3.069  18.325  0.00  0.00    +0.000 HD
ATOM     12  H   UNL     1       4.842   1.917  19.557  0.00  0.00    +0.000 HD
ENDROOT
BRANCH   3  13
ATOM     13  C   UNL     1       4.699   5.323  16.836  0.00  0.00    +0.000 A 
ATOM     14  C   UNL     1       5.871   5.963  16.479  0.00  0.00    +0.000 A 
ATOM     15  C   UNL     1       6.309   5.373  15.265  0.00  0.00    +0.000 A 
ATOM     16  C   UNL     1       7.383   5.579  14.388  0.00  0.00    +0.000 A 
ATOM     17  C   UNL     1       7.450   4.796  13.230  0.00  0.00    +0.000 A 
ATOM     18  C   UNL     1       6.481   3.833  12.944  0.00  0.00    +0.000 A 
ATOM     19  C   UNL     1       5.413   3.600  13.819  0.00  0.00    +0.000 A 
ATOM     20  C   UNL     1       5.374   4.395  14.967  0.00  0.00    +0.000 A 
ATOM     21  O   UNL     1       4.422   4.337  15.930  0.00  0.00    +0.000 OA
ENDBRANCH   3  13
BRANCH   1  22
ATOM     22  C   UNL     1       1.633   7.951  19.750  0.00  0.00    +0.000 C 
BRANCH  22  28
ATOM     23  C   UNL     1      -1.680  11.517  18.441  0.00  0.00    +0.000 C 
ATOM     24  O   UNL     1      -1.768  12.527  19.138  0.00  0.00    +0.000 OA
ATOM     25  N   UNL     1      -0.822  10.471  18.730  0.00  0.00    +0.000 N 
ATOM     26  C   UNL     1      -0.120  10.506  20.009  0.00  0.00    +0.000 C 
ATOM     27  C   UNL     1       1.385  10.520  19.776  0.00  0.00    +0.000 C 
ATOM     28  C   UNL     1       1.829   9.279  18.985  0.00  0.00    +0.000 C 
ATOM     29  C   UNL     1       1.053   9.266  17.651  0.00  0.00    +0.000 C 
ATOM     30  C   UNL     1      -0.467   9.357  17.844  0.00  0.00    +0.000 C 
BRANCH  23  32
ATOM     31  C   UNL     1      -3.777  10.877  17.365  0.00  0.00    +0.000 C 
ATOM     32  C   UNL     1      -2.539  11.374  17.241  0.00  0.00    +0.000 C 
ENDBRANCH  23  32
ENDBRANCH  22  28
ENDBRANCH   1  22
TORSDOF 4
ENDMDL
MODEL 9
REMARK VINA RESULT:      -7.7      1.872      2.263
REMARK  Name = 
REMARK  4 active torsions:
REMARK  status: ('A' for Active; 'I' for Inactive)
REMARK    1  A    between atoms: C_2  and  C_3
REMARK    2  A    between atoms: C_8  and  C_9
REMARK    3  A    between atoms: C_9  and  N_10
REMARK    4  A    between atoms: C_12  and  C_13
REMARK                            x       y       z     vdW  Elec       q    Type
REMARK                         _______ _______ _______ _____ _____    ______ ____
ROOT
ATOM      1  N   UNL     1       2.996   6.713  18.925  0.00  0.00    +0.000 N 
ATOM      2  C   UNL     1       3.868   6.767  17.867  0.00  0.00    +0.000 A 
ATOM      3  C   UNL     1       4.107   5.471  17.455  0.00  0.00    +0.000 A 
ATOM      4  C   UNL     1       3.410   4.590  18.329  0.00  0.00    +0.000 A 
ATOM      5  C   UNL     1       3.275   3.203  18.516  0.00  0.00    +0.000 A 
ATOM      6  N   UNL     1       3.945   2.242  17.779  0.00  0.00    +0.000 N 
ATOM      7  N   UNL     1       2.480   2.749  19.505  0.00  0.00    +0.000 NA
ATOM      8  C   UNL     1       1.817   3.645  20.253  0.00  0.00    +0.000 A 
ATOM      9  N   UNL     1       1.854   4.983  20.163  0.00  0.00    +0.000 NA
ATOM     10  C   UNL     1       2.688   5.402  19.198  0.00  0.00    +0.000 A 
ATOM     11  H   UNL     1       4.774   2.568  17.294  0.00  0.00    +0.000 HD
ATOM     12  H   UNL     1       4.003   1.358  18.268  0.00  0.00    +0.000 HD
ENDROOT
BRANCH   3  13
ATOM     13  C   UNL     1       4.929   5.122  16.270  0.00  0.00    +0.000 A 
ATOM     14  C   UNL     1       6.118   5.724  15.905  0.00  0.00    +0.000 A 
ATOM     15  C   UNL     1       6.502   5.157  14.662  0.00  0.00    +0.000 A 
ATOM     16  C   UNL     1       7.564   5.347  13.766  0.00  0.00    +0.000 A 
ATOM     17  C   UNL     1       7.571   4.602  12.581  0.00  0.00    +0.000 A 
ATOM     18  C   UNL     1       6.555   3.691  12.288  0.00  0.00    +0.000 A 
ATOM     19  C   UNL     1       5.498   3.474  13.181  0.00  0.00    +0.000 A 
ATOM     20  C   UNL     1       5.519   4.230  14.354  0.00  0.00    +0.000 A 
ATOM     21  O   UNL     1       4.588   4.181  15.339  0.00  0.00    +0.000 OA
ENDBRANCH   3  13
BRANCH   1  22
ATOM     22  C   UNL     1       2.449   7.884  19.591  0.00  0.00    +0.000 C 
BRANCH  22  28
ATOM     23  C   UNL     1       0.729  12.604  19.187  0.00  0.00    +0.000 C 
ATOM     24  O   UNL     1       0.893  13.204  18.126  0.00  0.00    +0.000 OA
ATOM     25  N   UNL     1       1.187  11.317  19.407  0.00  0.00    +0.000 N 
ATOM     26  C   UNL     1       2.044  10.722  18.387  0.00  0.00    +0.000 C 
ATOM     27  C   UNL     1       1.397   9.458  17.836  0.00  0.00    +0.000 C 
ATOM     28  C   UNL     1       1.152   8.435  18.957  0.00  0.00    +0.000 C 
ATOM     29  C   UNL     1       0.259   9.105  20.023  0.00  0.00    +0.000 C 
ATOM     30  C   UNL     1       0.830  10.438  20.526  0.00  0.00    +0.000 C 
BRANCH  23  32
ATOM     31  C   UNL     1      -1.128  13.905  20.095  0.00  0.00    +0.000 C 
ATOM     32  C   UNL     1       0.033  13.274  20.312  0.00  0.00    +0.000 C 
ENDBRANCH  23  32
ENDBRANCH  22  28
ENDBRANCH   1  22
TORSDOF 4
ENDMDL
