MODEL 1
REMARK VINA RESULT:      -8.5      0.000      0.000
REMARK  Name = 
REMARK  8 active torsions:
REMARK  status: ('A' for Active; 'I' for Inactive)
REMARK    1  A    between atoms: C_1  and  C_2
REMARK    2  A    between atoms: N_4  and  C_5
REMARK    3  A    between atoms: C_6  and  O_7
REMARK    4  A    between atoms: O_7  and  C_8
REMARK    5  A    between atoms: C_8  and  C_9
REMARK    6  A    between atoms: C_8  and  C_10
REMARK    7  A    between atoms: N_12  and  C_13
REMARK    8  A    between atoms: C_19  and  O_20
REMARK                            x       y       z     vdW  Elec       q    Type
REMARK                         _______ _______ _______ _____ _____    ______ ____
ROOT
ATOM      1  C   UNL     1       3.027   5.791  19.706  0.00  0.00    +0.000 C 
ATOM      2  C   UNL     1       4.207   4.890  19.253  0.00  0.00    +0.000 C 
ATOM      3  C   UNL     1       3.698   3.646  18.469  0.00  0.00    +0.000 C 
ATOM      4  C   UNL     1       2.412   3.045  19.074  0.00  0.00    +0.000 C 
ATOM      5  C   UNL     1       2.490   2.731  20.552  0.00  0.00    +0.000 C 
ATOM      6  O   UNL     1       2.331   4.001  21.201  0.00  0.00    +0.000 OA
ATOM      7  C   UNL     1       1.848   4.896  20.180  0.00  0.00    +0.000 C 
ATOM      8  O   UNL     1       1.424   4.088  19.066  0.00  0.00    +0.000 OA
ENDROOT
BRANCH   1  12
ATOM      9  C   UNL     1       1.776   8.770  17.735  0.00  0.00    +0.000 C 
ATOM     10  C   UNL     1       2.088   7.939  18.945  0.00  0.00    +0.000 C 
ATOM     11  O   UNL     1       1.862   8.308  20.090  0.00  0.00    +0.000 OA
ATOM     12  N   UNL     1       2.637   6.717  18.640  0.00  0.00    +0.000 N 
ATOM     13  H   UNL     1       3.026   6.565  17.716  0.00  0.00    +0.000 HD
ENDBRANCH   1  12
BRANCH   3  14
ATOM     14  O   UNL     1       3.410   4.012  17.106  0.00  0.00    +0.000 OA
ATOM     15  H   UNL     1       2.765   4.742  17.149  0.00  0.00    +0.000 HD
ENDBRANCH   3  14
BRANCH   2  16
ATOM     16  O   UNL     1       5.218   5.578  18.465  0.00  0.00    +0.000 OA
BRANCH  16  17
ATOM     17  C   UNL     1       6.503   4.956  18.447  0.00  0.00    +0.000 C 
ATOM     18  C   UNL     1       7.540   5.861  19.112  0.00  0.00    +0.000 C 
BRANCH  17  19
ATOM     19  C   UNL     1       7.039   4.614  17.060  0.00  0.00    +0.000 C 
ATOM     20  O   UNL     1       8.187   4.195  16.954  0.00  0.00    +0.000 OA
ATOM     21  N   UNL     1       6.157   4.887  16.027  0.00  0.00    +0.000 N 
ATOM     22  H   UNL     1       5.306   5.384  16.271  0.00  0.00    +0.000 HD
BRANCH  21  23
ATOM     23  C   UNL     1       6.416   4.649  14.664  0.00  0.00    +0.000 A 
ATOM     24  C   UNL     1       5.688   3.709  13.923  0.00  0.00    +0.000 A 
ATOM     25  C   UNL     1       6.007   3.438  12.599  0.00  0.00    +0.000 A 
ATOM     26  C   UNL     1       7.046   4.123  11.983  0.00  0.00    +0.000 A 
ATOM     27  C   UNL     1       7.752   5.093  12.693  0.00  0.00    +0.000 A 
ATOM     28  C   UNL     1       7.434   5.361  14.029  0.00  0.00    +0.000 A 
ENDBRANCH  21  23
ENDBRANCH  17  19
ENDBRANCH  16  17
ENDBRANCH   2  16
TORSDOF 6
ENDMDL
MODEL 2
REMARK VINA RESULT:      -7.9      0.741      1.248
REMARK  Name = 
REMARK  8 active torsions:
REMARK  status: ('A' for Active; 'I' for Inactive)
REMARK    1  A    between atoms: C_1  and  C_2
REMARK    2  A    between atoms: N_4  and  C_5
REMARK    3  A    between atoms: C_6  and  O_7
REMARK    4  A    between atoms: O_7  and  C_8
REMARK    5  A    between atoms: C_8  and  C_9
REMARK    6  A    between atoms: C_8  and  C_10
REMARK    7  A    between atoms: N_12  and  C_13
REMARK    8  A    between atoms: C_19  and  O_20
REMARK                            x       y       z     vdW  Elec       q    Type
REMARK                         _______ _______ _______ _____ _____    ______ ____
ROOT
ATOM      1  C   UNL     1       2.895   5.379  19.796  0.00  0.00    +0.000 C 
ATOM      2  C   UNL     1       3.592   4.166  19.123  0.00  0.00    +0.000 C 
ATOM      3  C   UNL     1       2.557   3.081  18.706  0.00  0.00    +0.000 C 
ATOM      4  C   UNL     1       1.441   2.888  19.753  0.00  0.00    +0.000 C 
ATOM      5  C   UNL     1       1.927   2.628  21.162  0.00  0.00    +0.000 C 
ATOM      6  O   UNL     1       2.316   3.918  21.655  0.00  0.00    +0.000 OA
ATOM      7  C   UNL     1       1.759   4.868  20.726  0.00  0.00    +0.000 C 
ATOM      8  O   UNL     1       0.800   4.164  19.915  0.00  0.00    +0.000 OA
ENDROOT
BRANCH   1  12
ATOM      9  C   UNL     1       1.645   8.462  17.993  0.00  0.00    +0.000 C 
ATOM     10  C   UNL     1       2.089   7.616  19.150  0.00  0.00    +0.000 C 
ATOM     11  O   UNL     1       2.141   8.028  20.302  0.00  0.00    +0.000 OA
ATOM     12  N   UNL     1       2.416   6.330  18.793  0.00  0.00    +0.000 N 
ATOM     13  H   UNL     1       2.591   6.117  17.817  0.00  0.00    +0.000 HD
ENDBRANCH   1  12
BRANCH   3  14
ATOM     14  O   UNL     1       1.932   3.455  17.464  0.00  0.00    +0.000 OA
ATOM     15  H   UNL     1       2.642   3.804  16.893  0.00  0.00    +0.000 HD
ENDBRANCH   3  14
BRANCH   2  16
ATOM     16  O   UNL     1       4.420   4.511  17.978  0.00  0.00    +0.000 OA
BRANCH  16  17
ATOM     17  C   UNL     1       5.823   4.324  18.162  0.00  0.00    +0.000 C 
ATOM     18  C   UNL     1       6.389   5.419  19.066  0.00  0.00    +0.000 C 
BRANCH  17  19
ATOM     19  C   UNL     1       6.653   4.335  16.882  0.00  0.00    +0.000 C 
ATOM     20  O   UNL     1       7.877   4.342  16.968  0.00  0.00    +0.000 OA
ATOM     21  N   UNL     1       5.902   4.404  15.719  0.00  0.00    +0.000 N 
ATOM     22  H   UNL     1       4.905   4.555  15.827  0.00  0.00    +0.000 HD
BRANCH  21  23
ATOM     23  C   UNL     1       6.437   4.415  14.416  0.00  0.00    +0.000 A 
ATOM     24  C   UNL     1       7.462   5.293  14.041  0.00  0.00    +0.000 A 
ATOM     25  C   UNL     1       7.924   5.337  12.733  0.00  0.00    +0.000 A 
ATOM     26  C   UNL     1       7.386   4.482  11.780  0.00  0.00    +0.000 A 
ATOM     27  C   UNL     1       6.396   3.572  12.146  0.00  0.00    +0.000 A 
ATOM     28  C   UNL     1       5.926   3.533  13.463  0.00  0.00    +0.000 A 
ENDBRANCH  21  23
ENDBRANCH  17  19
ENDBRANCH  16  17
ENDBRANCH   2  16
TORSDOF 6
ENDMDL
MODEL 3
REMARK VINA RESULT:      -7.3      2.722      7.732
REMARK  Name = 
REMARK  8 active torsions:
REMARK  status: ('A' for Active; 'I' for Inactive)
REMARK    1  A    between atoms: C_1  and  C_2
REMARK    2  A    between atoms: N_4  and  C_5
REMARK    3  A    between atoms: C_6  and  O_7
REMARK    4  A    between atoms: O_7  and  C_8
REMARK    5  A    between atoms: C_8  and  C_9
REMARK    6  A    between atoms: C_8  and  C_10
REMARK    7  A    between atoms: N_12  and  C_13
REMARK    8  A    between atoms: C_19  and  O_20
REMARK                            x       y       z     vdW  Elec       q    Type
REMARK                         _______ _______ _______ _____ _____    ______ ____
ROOT
ATOM      1  C   UNL     1       5.606   4.632  18.924  0.00  0.00    +0.000 C 
ATOM      2  C   UNL     1       4.892   5.969  18.591  0.00  0.00    +0.000 C 
ATOM      3  C   UNL     1       5.378   6.545  17.230  0.00  0.00    +0.000 C 
ATOM      4  C   UNL     1       6.896   6.368  17.016  0.00  0.00    +0.000 C 
ATOM      5  C   UNL     1       7.762   6.892  18.140  0.00  0.00    +0.000 C 
ATOM      6  O   UNL     1       7.680   5.885  19.160  0.00  0.00    +0.000 OA
ATOM      7  C   UNL     1       7.103   4.733  18.516  0.00  0.00    +0.000 C 
ATOM      8  O   UNL     1       7.164   4.959  17.095  0.00  0.00    +0.000 OA
ENDROOT
BRANCH   1  12
ATOM      9  C   UNL     1       3.591   1.504  18.238  0.00  0.00    +0.000 C 
ATOM     10  C   UNL     1       4.255   2.575  19.052  0.00  0.00    +0.000 C 
ATOM     11  O   UNL     1       4.216   2.610  20.275  0.00  0.00    +0.000 OA
ATOM     12  N   UNL     1       4.925   3.503  18.290  0.00  0.00    +0.000 N 
ATOM     13  H   UNL     1       4.722   3.568  17.299  0.00  0.00    +0.000 HD
ENDBRANCH   1  12
BRANCH   3  14
ATOM     14  O   UNL     1       4.703   5.875  16.148  0.00  0.00    +0.000 OA
ATOM     15  H   UNL     1       5.180   5.036  16.005  0.00  0.00    +0.000 HD
ENDBRANCH   3  14
BRANCH   2  16
ATOM     16  O   UNL     1       3.439   5.889  18.592  0.00  0.00    +0.000 OA
BRANCH  16  17
ATOM     17  C   UNL     1       2.813   6.190  19.838  0.00  0.00    +0.000 C 
ATOM     18  C   UNL     1       1.823   5.088  20.215  0.00  0.00    +0.000 C 
BRANCH  17  19
ATOM     19  C   UNL     1       2.043   7.507  19.876  0.00  0.00    +0.000 C 
ATOM     20  O   UNL     1       2.112   8.263  18.913  0.00  0.00    +0.000 OA
ATOM     21  N   UNL     1       1.377   7.739  21.069  0.00  0.00    +0.000 N 
ATOM     22  H   UNL     1       1.553   7.088  21.826  0.00  0.00    +0.000 HD
BRANCH  21  23
ATOM     23  C   UNL     1       0.590   8.875  21.342  0.00  0.00    +0.000 A 
ATOM     24  C   UNL     1       0.166   9.746  20.331  0.00  0.00    +0.000 A 
ATOM     25  C   UNL     1      -0.548  10.898  20.630  0.00  0.00    +0.000 A 
ATOM     26  C   UNL     1      -0.874  11.188  21.949  0.00  0.00    +0.000 A 
ATOM     27  C   UNL     1      -0.498  10.309  22.963  0.00  0.00    +0.000 A 
ATOM     28  C   UNL     1       0.228   9.151  22.661  0.00  0.00    +0.000 A 
ENDBRANCH  21  23
ENDBRANCH  17  19
ENDBRANCH  16  17
ENDBRANCH   2  16
TORSDOF 6
ENDMDL
MODEL 4
REMARK VINA RESULT:      -7.2      3.015      7.821
REMARK  Name = 
REMARK  8 active torsions:
REMARK  status: ('A' for Active; 'I' for Inactive)
REMARK    1  A    between atoms: C_1  and  C_2
REMARK    2  A    between atoms: N_4  and  C_5
REMARK    3  A    between atoms: C_6  and  O_7
REMARK    4  A    between atoms: O_7  and  C_8
REMARK    5  A    between atoms: C_8  and  C_9
REMARK    6  A    between atoms: C_8  and  C_10
REMARK    7  A    between atoms: N_12  and  C_13
REMARK    8  A    between atoms: C_19  and  O_20
REMARK                            x       y       z     vdW  Elec       q    Type
REMARK                         _______ _______ _______ _____ _____    ______ ____
ROOT
ATOM      1  C   UNL     1       4.047   5.276  17.402  0.00  0.00    +0.000 C 
ATOM      2  C   UNL     1       2.849   5.917  18.152  0.00  0.00    +0.000 C 
ATOM      3  C   UNL     1       2.462   5.088  19.409  0.00  0.00    +0.000 C 
ATOM      4  C   UNL     1       2.538   3.566  19.167  0.00  0.00    +0.000 C 
ATOM      5  C   UNL     1       1.766   3.074  17.962  0.00  0.00    +0.000 C 
ATOM      6  O   UNL     1       2.597   3.404  16.840  0.00  0.00    +0.000 OA
ATOM      7  C   UNL     1       3.885   3.730  17.398  0.00  0.00    +0.000 C 
ATOM      8  O   UNL     1       3.887   3.277  18.766  0.00  0.00    +0.000 OA
ENDROOT
BRANCH   1  12
ATOM      9  C   UNL     1       7.524   6.663  17.955  0.00  0.00    +0.000 C 
ATOM     10  C   UNL     1       6.301   6.251  17.191  0.00  0.00    +0.000 C 
ATOM     11  O   UNL     1       6.193   6.376  15.978  0.00  0.00    +0.000 OA
ATOM     12  N   UNL     1       5.320   5.706  17.984  0.00  0.00    +0.000 N 
ATOM     13  H   UNL     1       5.356   5.852  18.987  0.00  0.00    +0.000 HD
ENDBRANCH   1  12
BRANCH   3  14
ATOM     14  O   UNL     1       3.353   5.402  20.495  0.00  0.00    +0.000 OA
ATOM     15  H   UNL     1       3.137   6.312  20.773  0.00  0.00    +0.000 HD
ENDBRANCH   3  14
BRANCH   2  16
ATOM     16  O   UNL     1       3.055   7.306  18.532  0.00  0.00    +0.000 OA
BRANCH  16  17
ATOM     17  C   UNL     1       1.884   8.122  18.516  0.00  0.00    +0.000 C 
ATOM     18  C   UNL     1       2.106   9.350  17.632  0.00  0.00    +0.000 C 
BRANCH  17  19
ATOM     19  C   UNL     1       1.430   8.635  19.879  0.00  0.00    +0.000 C 
ATOM     20  O   UNL     1       1.798   8.043  20.888  0.00  0.00    +0.000 OA
ATOM     21  N   UNL     1       0.567   9.717  19.818  0.00  0.00    +0.000 N 
ATOM     22  H   UNL     1       0.233   9.986  18.899  0.00  0.00    +0.000 HD
BRANCH  21  23
ATOM     23  C   UNL     1       0.021  10.374  20.938  0.00  0.00    +0.000 A 
ATOM     24  C   UNL     1      -0.410   9.674  22.073  0.00  0.00    +0.000 A 
ATOM     25  C   UNL     1      -1.010  10.334  23.136  0.00  0.00    +0.000 A 
ATOM     26  C   UNL     1      -1.169  11.714  23.094  0.00  0.00    +0.000 A 
ATOM     27  C   UNL     1      -0.706  12.430  21.992  0.00  0.00    +0.000 A 
ATOM     28  C   UNL     1      -0.107  11.763  20.918  0.00  0.00    +0.000 A 
ENDBRANCH  21  23
ENDBRANCH  17  19
ENDBRANCH  16  17
ENDBRANCH   2  16
TORSDOF 6
ENDMDL
MODEL 5
REMARK VINA RESULT:      -7.2      1.103      1.216
REMARK  Name = 
REMARK  8 active torsions:
REMARK  status: ('A' for Active; 'I' for Inactive)
REMARK    1  A    between atoms: C_1  and  C_2
REMARK    2  A    between atoms: N_4  and  C_5
REMARK    3  A    between atoms: C_6  and  O_7
REMARK    4  A    between atoms: O_7  and  C_8
REMARK    5  A    between atoms: C_8  and  C_9
REMARK    6  A    between atoms: C_8  and  C_10
REMARK    7  A    between atoms: N_12  and  C_13
REMARK    8  A    between atoms: C_19  and  O_20
REMARK                            x       y       z     vdW  Elec       q    Type
REMARK                         _______ _______ _______ _____ _____    ______ ____
ROOT
ATOM      1  C   UNL     1       3.700   5.053  19.863  0.00  0.00    +0.000 C 
ATOM      2  C   UNL     1       4.868   4.738  18.891  0.00  0.00    +0.000 C 
ATOM      3  C   UNL     1       4.353   4.043  17.597  0.00  0.00    +0.000 C 
ATOM      4  C   UNL     1       3.238   3.014  17.876  0.00  0.00    +0.000 C 
ATOM      5  C   UNL     1       3.577   1.976  18.922  0.00  0.00    +0.000 C 
ATOM      6  O   UNL     1       3.411   2.657  20.175  0.00  0.00    +0.000 OA
ATOM      7  C   UNL     1       2.695   3.867  19.863  0.00  0.00    +0.000 C 
ATOM      8  O   UNL     1       2.173   3.724  18.528  0.00  0.00    +0.000 OA
ENDROOT
BRANCH   1  12
ATOM      9  C   UNL     1       1.526   8.150  19.814  0.00  0.00    +0.000 C 
ATOM     10  C   UNL     1       2.037   6.822  20.288  0.00  0.00    +0.000 C 
ATOM     11  O   UNL     1       1.573   6.230  21.254  0.00  0.00    +0.000 OA
ATOM     12  N   UNL     1       3.065   6.328  19.522  0.00  0.00    +0.000 N 
ATOM     13  H   UNL     1       3.566   6.955  18.902  0.00  0.00    +0.000 HD
ENDBRANCH   1  12
BRANCH   3  14
ATOM     14  O   UNL     1       3.822   5.029  16.692  0.00  0.00    +0.000 OA
ATOM     15  H   UNL     1       3.792   4.607  15.813  0.00  0.00    +0.000 HD
ENDBRANCH   3  14
BRANCH   2  16
ATOM     16  O   UNL     1       5.676   5.892  18.531  0.00  0.00    +0.000 OA
BRANCH  16  17
ATOM     17  C   UNL     1       7.055   5.617  18.282  0.00  0.00    +0.000 C 
ATOM     18  C   UNL     1       7.867   6.912  18.304  0.00  0.00    +0.000 C 
BRANCH  17  19
ATOM     19  C   UNL     1       7.350   4.933  16.951  0.00  0.00    +0.000 C 
ATOM     20  O   UNL     1       8.193   4.042  16.916  0.00  0.00    +0.000 OA
ATOM     21  N   UNL     1       6.652   5.459  15.876  0.00  0.00    +0.000 N 
ATOM     22  H   UNL     1       6.114   6.301  16.047  0.00  0.00    +0.000 HD
BRANCH  21  23
ATOM     23  C   UNL     1       6.745   4.991  14.551  0.00  0.00    +0.000 A 
ATOM     24  C   UNL     1       5.918   3.971  14.063  0.00  0.00    +0.000 A 
ATOM     25  C   UNL     1       6.074   3.476  12.776  0.00  0.00    +0.000 A 
ATOM     26  C   UNL     1       7.047   4.012  11.941  0.00  0.00    +0.000 A 
ATOM     27  C   UNL     1       7.849   5.057  12.396  0.00  0.00    +0.000 A 
ATOM     28  C   UNL     1       7.695   5.551  13.696  0.00  0.00    +0.000 A 
ENDBRANCH  21  23
ENDBRANCH  17  19
ENDBRANCH  16  17
ENDBRANCH   2  16
TORSDOF 6
ENDMDL
MODEL 6
REMARK VINA RESULT:      -7.1      3.084      7.185
REMARK  Name = 
REMARK  8 active torsions:
REMARK  status: ('A' for Active; 'I' for Inactive)
REMARK    1  A    between atoms: C_1  and  C_2
REMARK    2  A    between atoms: N_4  and  C_5
REMARK    3  A    between atoms: C_6  and  O_7
REMARK    4  A    between atoms: O_7  and  C_8
REMARK    5  A    between atoms: C_8  and  C_9
REMARK    6  A    between atoms: C_8  and  C_10
REMARK    7  A    between atoms: N_12  and  C_13
REMARK    8  A    between atoms: C_19  and  O_20
REMARK                            x       y       z     vdW  Elec       q    Type
REMARK                         _______ _______ _______ _____ _____    ______ ____
ROOT
ATOM      1  C   UNL     1       3.590   4.329  18.585  0.00  0.00    +0.000 C 
ATOM      2  C   UNL     1       2.374   5.201  18.998  0.00  0.00    +0.000 C 
ATOM      3  C   UNL     1       1.706   4.661  20.295  0.00  0.00    +0.000 C 
ATOM      4  C   UNL     1       1.642   3.120  20.335  0.00  0.00    +0.000 C 
ATOM      5  C   UNL     1       1.010   2.477  19.120  0.00  0.00    +0.000 C 
ATOM      6  O   UNL     1       2.035   2.516  18.116  0.00  0.00    +0.000 OA
ATOM      7  C   UNL     1       3.252   2.831  18.821  0.00  0.00    +0.000 C 
ATOM      8  O   UNL     1       2.993   2.646  20.226  0.00  0.00    +0.000 OA
ENDROOT
BRANCH   1  12
ATOM      9  C   UNL     1       7.094   5.444  19.480  0.00  0.00    +0.000 C 
ATOM     10  C   UNL     1       5.963   4.993  18.603  0.00  0.00    +0.000 C 
ATOM     11  O   UNL     1       6.072   4.841  17.393  0.00  0.00    +0.000 OA
ATOM     12  N   UNL     1       4.800   4.751  19.293  0.00  0.00    +0.000 N 
ATOM     13  H   UNL     1       4.694   5.123  20.231  0.00  0.00    +0.000 HD
ENDBRANCH   1  12
BRANCH   3  14
ATOM     14  O   UNL     1       2.452   5.098  21.446  0.00  0.00    +0.000 OA
ATOM     15  H   UNL     1       1.825   5.103  22.194  0.00  0.00    +0.000 HD
ENDBRANCH   3  14
BRANCH   2  16
ATOM     16  O   UNL     1       2.678   6.614  19.162  0.00  0.00    +0.000 OA
BRANCH  16  17
ATOM     17  C   UNL     1       2.513   7.414  17.992  0.00  0.00    +0.000 C 
ATOM     18  C   UNL     1       3.865   7.662  17.323  0.00  0.00    +0.000 C 
BRANCH  17  19
ATOM     19  C   UNL     1       1.877   8.781  18.223  0.00  0.00    +0.000 C 
ATOM     20  O   UNL     1       2.128   9.692  17.440  0.00  0.00    +0.000 OA
ATOM     21  N   UNL     1       1.108   8.862  19.373  0.00  0.00    +0.000 N 
ATOM     22  H   UNL     1       1.133   8.063  19.997  0.00  0.00    +0.000 HD
BRANCH  21  23
ATOM     23  C   UNL     1       0.412  10.011  19.795  0.00  0.00    +0.000 A 
ATOM     24  C   UNL     1       0.867  10.808  20.853  0.00  0.00    +0.000 A 
ATOM     25  C   UNL     1       0.129  11.895  21.300  0.00  0.00    +0.000 A 
ATOM     26  C   UNL     1      -1.071  12.220  20.679  0.00  0.00    +0.000 A 
ATOM     27  C   UNL     1      -1.516  11.463  19.597  0.00  0.00    +0.000 A 
ATOM     28  C   UNL     1      -0.774  10.364  19.150  0.00  0.00    +0.000 A 
ENDBRANCH  21  23
ENDBRANCH  17  19
ENDBRANCH  16  17
ENDBRANCH   2  16
TORSDOF 6
ENDMDL
MODEL 7
REMARK VINA RESULT:      -7.1      3.064      7.523
REMARK  Name = 
REMARK  8 active torsions:
REMARK  status: ('A' for Active; 'I' for Inactive)
REMARK    1  A    between atoms: C_1  and  C_2
REMARK    2  A    between atoms: N_4  and  C_5
REMARK    3  A    between atoms: C_6  and  O_7
REMARK    4  A    between atoms: O_7  and  C_8
REMARK    5  A    between atoms: C_8  and  C_9
REMARK    6  A    between atoms: C_8  and  C_10
REMARK    7  A    between atoms: N_12  and  C_13
REMARK    8  A    between atoms: C_19  and  O_20
REMARK                            x       y       z     vdW  Elec       q    Type
REMARK                         _______ _______ _______ _____ _____    ______ ____
ROOT
ATOM      1  C   UNL     1       3.359   4.345  18.386  0.00  0.00    +0.000 C 
ATOM      2  C   UNL     1       2.202   5.206  18.959  0.00  0.00    +0.000 C 
ATOM      3  C   UNL     1       1.573   4.540  20.217  0.00  0.00    +0.000 C 
ATOM      4  C   UNL     1       1.445   3.009  20.079  0.00  0.00    +0.000 C 
ATOM      5  C   UNL     1       0.731   2.539  18.831  0.00  0.00    +0.000 C 
ATOM      6  O   UNL     1       1.709   2.660  17.787  0.00  0.00    +0.000 OA
ATOM      7  C   UNL     1       2.969   2.843  18.461  0.00  0.00    +0.000 C 
ATOM      8  O   UNL     1       2.769   2.501  19.846  0.00  0.00    +0.000 OA
ENDROOT
BRANCH   1  12
ATOM      9  C   UNL     1       6.871   5.452  19.261  0.00  0.00    +0.000 C 
ATOM     10  C   UNL     1       5.672   5.196  18.395  0.00  0.00    +0.000 C 
ATOM     11  O   UNL     1       5.643   5.449  17.198  0.00  0.00    +0.000 OA
ATOM     12  N   UNL     1       4.618   4.635  19.075  0.00  0.00    +0.000 N 
ATOM     13  H   UNL     1       4.604   4.676  20.088  0.00  0.00    +0.000 HD
ENDBRANCH   1  12
BRANCH   3  14
ATOM     14  O   UNL     1       2.390   4.808  21.372  0.00  0.00    +0.000 OA
ATOM     15  H   UNL     1       3.054   4.094  21.410  0.00  0.00    +0.000 HD
ENDBRANCH   3  14
BRANCH   2  16
ATOM     16  O   UNL     1       2.573   6.577  19.273  0.00  0.00    +0.000 OA
BRANCH  16  17
ATOM     17  C   UNL     1       2.141   7.557  18.329  0.00  0.00    +0.000 C 
ATOM     18  C   UNL     1       3.342   8.154  17.596  0.00  0.00    +0.000 C 
BRANCH  17  19
ATOM     19  C   UNL     1       1.357   8.725  18.919  0.00  0.00    +0.000 C 
ATOM     20  O   UNL     1       0.973   9.620  18.172  0.00  0.00    +0.000 OA
ATOM     21  N   UNL     1       1.216   8.676  20.296  0.00  0.00    +0.000 N 
ATOM     22  H   UNL     1       1.732   7.951  20.784  0.00  0.00    +0.000 HD
BRANCH  21  23
ATOM     23  C   UNL     1       0.526   9.630  21.069  0.00  0.00    +0.000 A 
ATOM     24  C   UNL     1       0.533  10.993  20.745  0.00  0.00    +0.000 A 
ATOM     25  C   UNL     1      -0.095  11.926  21.560  0.00  0.00    +0.000 A 
ATOM     26  C   UNL     1      -0.764  11.507  22.703  0.00  0.00    +0.000 A 
ATOM     27  C   UNL     1      -0.817  10.150  23.016  0.00  0.00    +0.000 A 
ATOM     28  C   UNL     1      -0.179   9.212  22.198  0.00  0.00    +0.000 A 
ENDBRANCH  21  23
ENDBRANCH  17  19
ENDBRANCH  16  17
ENDBRANCH   2  16
TORSDOF 6
ENDMDL
MODEL 8
REMARK VINA RESULT:      -7.1      1.261      1.774
REMARK  Name = 
REMARK  8 active torsions:
REMARK  status: ('A' for Active; 'I' for Inactive)
REMARK    1  A    between atoms: C_1  and  C_2
REMARK    2  A    between atoms: N_4  and  C_5
REMARK    3  A    between atoms: C_6  and  O_7
REMARK    4  A    between atoms: O_7  and  C_8
REMARK    5  A    between atoms: C_8  and  C_9
REMARK    6  A    between atoms: C_8  and  C_10
REMARK    7  A    between atoms: N_12  and  C_13
REMARK    8  A    between atoms: C_19  and  O_20
REMARK                            x       y       z     vdW  Elec       q    Type
REMARK                         _______ _______ _______ _____ _____    ______ ____
ROOT
ATOM      1  C   UNL     1       3.862   4.726  19.897  0.00  0.00    +0.000 C 
ATOM      2  C   UNL     1       4.975   4.588  18.824  0.00  0.00    +0.000 C 
ATOM      3  C   UNL     1       4.399   4.057  17.479  0.00  0.00    +0.000 C 
ATOM      4  C   UNL     1       3.333   2.960  17.679  0.00  0.00    +0.000 C 
ATOM      5  C   UNL     1       3.767   1.802  18.551  0.00  0.00    +0.000 C 
ATOM      6  O   UNL     1       3.661   2.301  19.893  0.00  0.00    +0.000 OA
ATOM      7  C   UNL     1       2.893   3.516  19.793  0.00  0.00    +0.000 C 
ATOM      8  O   UNL     1       2.292   3.536  18.484  0.00  0.00    +0.000 OA
ENDROOT
BRANCH   1  12
ATOM      9  C   UNL     1       1.506   7.659  20.308  0.00  0.00    +0.000 C 
ATOM     10  C   UNL     1       2.068   6.288  20.543  0.00  0.00    +0.000 C 
ATOM     11  O   UNL     1       1.582   5.489  21.333  0.00  0.00    +0.000 OA
ATOM     12  N   UNL     1       3.172   6.011  19.773  0.00  0.00    +0.000 N 
ATOM     13  H   UNL     1       3.671   6.776  19.330  0.00  0.00    +0.000 HD
ENDBRANCH   1  12
BRANCH   3  14
ATOM     14  O   UNL     1       3.784   5.137  16.751  0.00  0.00    +0.000 OA
ATOM     15  H   UNL     1       3.451   5.764  17.420  0.00  0.00    +0.000 HD
ENDBRANCH   3  14
BRANCH   2  16
ATOM     16  O   UNL     1       5.727   5.809  18.580  0.00  0.00    +0.000 OA
BRANCH  16  17
ATOM     17  C   UNL     1       7.112   5.625  18.293  0.00  0.00    +0.000 C 
ATOM     18  C   UNL     1       7.829   6.974  18.246  0.00  0.00    +0.000 C 
BRANCH  17  19
ATOM     19  C   UNL     1       7.415   4.918  16.975  0.00  0.00    +0.000 C 
ATOM     20  O   UNL     1       8.229   4.000  16.966  0.00  0.00    +0.000 OA
ATOM     21  N   UNL     1       6.758   5.456  15.880  0.00  0.00    +0.000 N 
ATOM     22  H   UNL     1       6.243   6.317  16.032  0.00  0.00    +0.000 HD
BRANCH  21  23
ATOM     23  C   UNL     1       6.864   4.972  14.561  0.00  0.00    +0.000 A 
ATOM     24  C   UNL     1       7.778   5.508  13.645  0.00  0.00    +0.000 A 
ATOM     25  C   UNL     1       7.816   5.065  12.330  0.00  0.00    +0.000 A 
ATOM     26  C   UNL     1       6.955   4.058  11.913  0.00  0.00    +0.000 A 
ATOM     27  C   UNL     1       6.070   3.484  12.823  0.00  0.00    +0.000 A 
ATOM     28  C   UNL     1       6.027   3.935  14.147  0.00  0.00    +0.000 A 
ENDBRANCH  21  23
ENDBRANCH  17  19
ENDBRANCH  16  17
ENDBRANCH   2  16
TORSDOF 6
ENDMDL
MODEL 9
REMARK VINA RESULT:      -6.9      2.864      7.816
REMARK  Name = 
REMARK  8 active torsions:
REMARK  status: ('A' for Active; 'I' for Inactive)
REMARK    1  A    between atoms: C_1  and  C_2
REMARK    2  A    between atoms: N_4  and  C_5
REMARK    3  A    between atoms: C_6  and  O_7
REMARK    4  A    between atoms: O_7  and  C_8
REMARK    5  A    between atoms: C_8  and  C_9
REMARK    6  A    between atoms: C_8  and  C_10
REMARK    7  A    between atoms: N_12  and  C_13
REMARK    8  A    between atoms: C_19  and  O_20
REMARK                            x       y       z     vdW  Elec       q    Type
REMARK                         _______ _______ _______ _____ _____    ______ ____
ROOT
ATOM      1  C   UNL     1       4.377   4.965  17.933  0.00  0.00    +0.000 C 
ATOM      2  C   UNL     1       3.060   5.642  18.400  0.00  0.00    +0.000 C 
ATOM      3  C   UNL     1       2.400   4.847  19.563  0.00  0.00    +0.000 C 
ATOM      4  C   UNL     1       2.495   3.319  19.371  0.00  0.00    +0.000 C 
ATOM      5  C   UNL     1       1.985   2.812  18.041  0.00  0.00    +0.000 C 
ATOM      6  O   UNL     1       3.041   3.103  17.113  0.00  0.00    +0.000 OA
ATOM      7  C   UNL     1       4.188   3.422  17.925  0.00  0.00    +0.000 C 
ATOM      8  O   UNL     1       3.892   3.001  19.270  0.00  0.00    +0.000 OA
ENDROOT
BRANCH   1  12
ATOM      9  C   UNL     1       7.817   5.845  19.243  0.00  0.00    +0.000 C 
ATOM     10  C   UNL     1       6.788   5.347  18.270  0.00  0.00    +0.000 C 
ATOM     11  O   UNL     1       7.066   4.932  17.153  0.00  0.00    +0.000 OA
ATOM     12  N   UNL     1       5.506   5.389  18.763  0.00  0.00    +0.000 N 
ATOM     13  H   UNL     1       5.307   5.960  19.577  0.00  0.00    +0.000 HD
ENDBRANCH   1  12
BRANCH   3  14
ATOM     14  O   UNL     1       3.048   5.173  20.807  0.00  0.00    +0.000 OA
ATOM     15  H   UNL     1       3.148   6.143  20.819  0.00  0.00    +0.000 HD
ENDBRANCH   3  14
BRANCH   2  16
ATOM     16  O   UNL     1       3.209   7.036  18.789  0.00  0.00    +0.000 OA
BRANCH  16  17
ATOM     17  C   UNL     1       2.031   7.832  18.661  0.00  0.00    +0.000 C 
ATOM     18  C   UNL     1       2.285   9.007  17.716  0.00  0.00    +0.000 C 
BRANCH  17  19
ATOM     19  C   UNL     1       1.501   8.421  19.965  0.00  0.00    +0.000 C 
ATOM     20  O   UNL     1       1.838   7.910  21.028  0.00  0.00    +0.000 OA
ATOM     21  N   UNL     1       0.611   9.470  19.792  0.00  0.00    +0.000 N 
ATOM     22  H   UNL     1       0.313   9.666  18.843  0.00  0.00    +0.000 HD
BRANCH  21  23
ATOM     23  C   UNL     1      -0.004  10.183  20.839  0.00  0.00    +0.000 A 
ATOM     24  C   UNL     1      -0.296  11.549  20.736  0.00  0.00    +0.000 A 
ATOM     25  C   UNL     1      -0.836  12.249  21.806  0.00  0.00    +0.000 A 
ATOM     26  C   UNL     1      -1.119  11.587  22.994  0.00  0.00    +0.000 A 
ATOM     27  C   UNL     1      -0.875  10.219  23.099  0.00  0.00    +0.000 A 
ATOM     28  C   UNL     1      -0.325   9.516  22.022  0.00  0.00    +0.000 A 
ENDBRANCH  21  23
ENDBRANCH  17  19
ENDBRANCH  16  17
ENDBRANCH   2  16
TORSDOF 6
ENDMDL
