MODEL 1
REMARK VINA RESULT:      -8.1      0.000      0.000
REMARK  Name = 
REMARK  8 active torsions:
REMARK  status: ('A' for Active; 'I' for Inactive)
REMARK    1  A    between atoms: C_1  and  C_2
REMARK    2  A    between atoms: C_4  and  C_5
REMARK    3  A    between atoms: C_5  and  N_6
REMARK    4  A    between atoms: N_6  and  C_7
REMARK    5  A    between atoms: C_8  and  C_10
REMARK    6  A    between atoms: C_13  and  N_14
REMARK    7  A    between atoms: C_15  and  C_17
REMARK    8  A    between atoms: C_21  and  C_22
REMARK                            x       y       z     vdW  Elec       q    Type
REMARK                         _______ _______ _______ _____ _____    ______ ____
ROOT
ATOM      1  C   UNL     1       3.914   6.465  18.314  0.00  0.00    +0.000 A 
ATOM      2  C   UNL     1       3.571   7.421  17.359  0.00  0.00    +0.000 A 
ATOM      3  C   UNL     1       2.583   8.372  17.623  0.00  0.00    +0.000 A 
ATOM      4  C   UNL     1       1.848   8.341  18.808  0.00  0.00    +0.000 A 
ATOM      5  C   UNL     1       2.179   7.378  19.769  0.00  0.00    +0.000 A 
ATOM      6  C   UNL     1       3.199   6.443  19.521  0.00  0.00    +0.000 A 
ENDROOT
BRANCH   1   9
ATOM      7  N   UNL     1       6.235   5.724  17.684  0.00  0.00    +0.000 N 
ATOM      8  C   UNL     1       6.855   7.038  17.785  0.00  0.00    +0.000 C 
ATOM      9  C   UNL     1       4.922   5.398  18.037  0.00  0.00    +0.000 C 
ATOM     10  O   UNL     1       4.531   4.232  18.097  0.00  0.00    +0.000 OA
BRANCH   7  11
ATOM     11  C   UNL     1       7.086   4.659  17.156  0.00  0.00    +0.000 C 
BRANCH  11  15
ATOM     12  C   UNL     1       5.628   3.553  12.381  0.00  0.00    +0.000 C 
ATOM     13  C   UNL     1       6.288   4.029  13.616  0.00  0.00    +0.000 A 
ATOM     14  C   UNL     1       6.143   3.664  14.935  0.00  0.00    +0.000 A 
ATOM     15  C   UNL     1       6.982   4.541  15.664  0.00  0.00    +0.000 A 
ATOM     16  N   UNL     1       7.650   5.370  14.844  0.00  0.00    +0.000 NA
ATOM     17  N   UNL     1       7.226   5.024  13.616  0.00  0.00    +0.000 N 
ATOM     18  H   UNL     1       7.601   5.529  12.820  0.00  0.00    +0.000 HD
ENDBRANCH  11  15
ENDBRANCH   7  11
ENDBRANCH   1   9
BRANCH   4  19
ATOM     19  N   UNL     1       0.756   9.206  19.058  0.00  0.00    +0.000 N 
ATOM     20  C   UNL     1       0.756  10.589  18.911  0.00  0.00    +0.000 C 
ATOM     21  O   UNL     1       1.733  11.267  18.609  0.00  0.00    +0.000 OA
ATOM     22  H   UNL     1      -0.118   8.766  19.303  0.00  0.00    +0.000 HD
BRANCH  20  23
ATOM     23  C   UNL     1      -0.536  11.230  19.126  0.00  0.00    +0.000 A 
ATOM     24  C   UNL     1      -0.966  12.154  20.126  0.00  0.00    +0.000 A 
ATOM     25  C   UNL     1      -2.296  12.408  19.881  0.00  0.00    +0.000 A 
ATOM     26  O   UNL     1      -2.721  11.709  18.805  0.00  0.00    +0.000 OA
ATOM     27  C   UNL     1      -1.663  10.985  18.351  0.00  0.00    +0.000 A 
ATOM     28  C   UNL     1      -1.923  10.121  17.176  0.00  0.00    +0.000 C 
ENDBRANCH  20  23
ENDBRANCH   4  19
TORSDOF 5
ENDMDL
MODEL 2
REMARK VINA RESULT:      -8.0      4.973      8.077
REMARK  Name = 
REMARK  8 active torsions:
REMARK  status: ('A' for Active; 'I' for Inactive)
REMARK    1  A    between atoms: C_1  and  C_2
REMARK    2  A    between atoms: C_4  and  C_5
REMARK    3  A    between atoms: C_5  and  N_6
REMARK    4  A    between atoms: N_6  and  C_7
REMARK    5  A    between atoms: C_8  and  C_10
REMARK    6  A    between atoms: C_13  and  N_14
REMARK    7  A    between atoms: C_15  and  C_17
REMARK    8  A    between atoms: C_21  and  C_22
REMARK                            x       y       z     vdW  Elec       q    Type
REMARK                         _______ _______ _______ _____ _____    ______ ____
ROOT
ATOM      1  C   UNL     1       6.390   5.881  17.658  0.00  0.00    +0.000 A 
ATOM      2  C   UNL     1       7.281   5.638  18.701  0.00  0.00    +0.000 A 
ATOM      3  C   UNL     1       8.141   6.641  19.154  0.00  0.00    +0.000 A 
ATOM      4  C   UNL     1       8.201   7.882  18.522  0.00  0.00    +0.000 A 
ATOM      5  C   UNL     1       7.316   8.132  17.466  0.00  0.00    +0.000 A 
ATOM      6  C   UNL     1       6.422   7.137  17.033  0.00  0.00    +0.000 A 
ENDROOT
BRANCH   1   9
ATOM      7  N   UNL     1       4.125   4.828  17.351  0.00  0.00    +0.000 N 
ATOM      8  C   UNL     1       3.357   5.940  17.893  0.00  0.00    +0.000 C 
ATOM      9  C   UNL     1       5.502   4.811  17.112  0.00  0.00    +0.000 C 
ATOM     10  O   UNL     1       6.045   3.903  16.481  0.00  0.00    +0.000 OA
BRANCH   7  11
ATOM     11  C   UNL     1       3.360   3.622  17.038  0.00  0.00    +0.000 C 
BRANCH  11  15
ATOM     12  C   UNL     1       1.509   2.502  21.672  0.00  0.00    +0.000 C 
ATOM     13  C   UNL     1       1.758   2.725  20.231  0.00  0.00    +0.000 A 
ATOM     14  C   UNL     1       2.915   2.962  19.524  0.00  0.00    +0.000 A 
ATOM     15  C   UNL     1       2.502   3.183  18.188  0.00  0.00    +0.000 A 
ATOM     16  N   UNL     1       1.172   3.043  18.060  0.00  0.00    +0.000 NA
ATOM     17  N   UNL     1       0.754   2.747  19.302  0.00  0.00    +0.000 N 
ATOM     18  H   UNL     1      -0.238   2.598  19.452  0.00  0.00    +0.000 HD
ENDBRANCH  11  15
ENDBRANCH   7  11
ENDBRANCH   1   9
BRANCH   4  19
ATOM     19  N   UNL     1       9.145   8.877  18.869  0.00  0.00    +0.000 N 
ATOM     20  C   UNL     1       9.075  10.225  18.535  0.00  0.00    +0.000 C 
ATOM     21  O   UNL     1       8.212  10.733  17.825  0.00  0.00    +0.000 OA
ATOM     22  H   UNL     1       9.904   8.587  19.468  0.00  0.00    +0.000 HD
BRANCH  20  23
ATOM     23  C   UNL     1      10.123  11.058  19.115  0.00  0.00    +0.000 A 
ATOM     24  C   UNL     1      11.398  11.447  18.603  0.00  0.00    +0.000 A 
ATOM     25  C   UNL     1      11.997  12.209  19.580  0.00  0.00    +0.000 A 
ATOM     26  O   UNL     1      11.188  12.319  20.658  0.00  0.00    +0.000 OA
ATOM     27  C   UNL     1      10.057  11.615  20.386  0.00  0.00    +0.000 A 
ATOM     28  C   UNL     1       9.035  11.587  21.459  0.00  0.00    +0.000 C 
ENDBRANCH  20  23
ENDBRANCH   4  19
TORSDOF 5
ENDMDL
MODEL 3
REMARK VINA RESULT:      -8.0      0.463      1.054
REMARK  Name = 
REMARK  8 active torsions:
REMARK  status: ('A' for Active; 'I' for Inactive)
REMARK    1  A    between atoms: C_1  and  C_2
REMARK    2  A    between atoms: C_4  and  C_5
REMARK    3  A    between atoms: C_5  and  N_6
REMARK    4  A    between atoms: N_6  and  C_7
REMARK    5  A    between atoms: C_8  and  C_10
REMARK    6  A    between atoms: C_13  and  N_14
REMARK    7  A    between atoms: C_15  and  C_17
REMARK    8  A    between atoms: C_21  and  C_22
REMARK                            x       y       z     vdW  Elec       q    Type
REMARK                         _______ _______ _______ _____ _____    ______ ____
ROOT
ATOM      1  C   UNL     1       3.955   6.083  18.384  0.00  0.00    +0.000 A 
ATOM      2  C   UNL     1       3.279   6.020  19.601  0.00  0.00    +0.000 A 
ATOM      3  C   UNL     1       2.284   6.949  19.914  0.00  0.00    +0.000 A 
ATOM      4  C   UNL     1       1.999   8.017  19.064  0.00  0.00    +0.000 A 
ATOM      5  C   UNL     1       2.681   8.094  17.843  0.00  0.00    +0.000 A 
ATOM      6  C   UNL     1       3.656   7.138  17.509  0.00  0.00    +0.000 A 
ENDROOT
BRANCH   1   9
ATOM      7  N   UNL     1       6.323   5.618  17.669  0.00  0.00    +0.000 N 
ATOM      8  C   UNL     1       6.800   6.989  17.793  0.00  0.00    +0.000 C 
ATOM      9  C   UNL     1       5.065   5.141  18.048  0.00  0.00    +0.000 C 
ATOM     10  O   UNL     1       4.806   3.938  18.082  0.00  0.00    +0.000 OA
BRANCH   7  11
ATOM     11  C   UNL     1       7.269   4.668  17.086  0.00  0.00    +0.000 C 
BRANCH  11  15
ATOM     12  C   UNL     1       5.624   3.518  12.383  0.00  0.00    +0.000 C 
ATOM     13  C   UNL     1       6.328   4.012  13.586  0.00  0.00    +0.000 A 
ATOM     14  C   UNL     1       6.250   3.647  14.911  0.00  0.00    +0.000 A 
ATOM     15  C   UNL     1       7.101   4.544  15.601  0.00  0.00    +0.000 A 
ATOM     16  N   UNL     1       7.712   5.386  14.750  0.00  0.00    +0.000 NA
ATOM     17  N   UNL     1       7.242   5.028  13.543  0.00  0.00    +0.000 N 
ATOM     18  H   UNL     1       7.569   5.539  12.730  0.00  0.00    +0.000 HD
ENDBRANCH  11  15
ENDBRANCH   7  11
ENDBRANCH   1   9
BRANCH   4  19
ATOM     19  N   UNL     1       1.091   9.048  19.402  0.00  0.00    +0.000 N 
ATOM     20  C   UNL     1       1.116  10.352  18.922  0.00  0.00    +0.000 C 
ATOM     21  O   UNL     1       1.980  10.818  18.185  0.00  0.00    +0.000 OA
ATOM     22  H   UNL     1       0.318   8.788  19.997  0.00  0.00    +0.000 HD
BRANCH  20  23
ATOM     23  C   UNL     1      -0.005  11.185  19.343  0.00  0.00    +0.000 A 
ATOM     24  C   UNL     1      -0.108  12.159  20.382  0.00  0.00    +0.000 A 
ATOM     25  C   UNL     1      -1.405  12.617  20.364  0.00  0.00    +0.000 A 
ATOM     26  O   UNL     1      -2.113  11.998  19.392  0.00  0.00    +0.000 OA
ATOM     27  C   UNL     1      -1.273  11.122  18.779  0.00  0.00    +0.000 A 
ATOM     28  C   UNL     1      -1.863  10.315  17.684  0.00  0.00    +0.000 C 
ENDBRANCH  20  23
ENDBRANCH   4  19
TORSDOF 5
ENDMDL
MODEL 4
REMARK VINA RESULT:      -8.0      0.609      1.239
REMARK  Name = 
REMARK  8 active torsions:
REMARK  status: ('A' for Active; 'I' for Inactive)
REMARK    1  A    between atoms: C_1  and  C_2
REMARK    2  A    between atoms: C_4  and  C_5
REMARK    3  A    between atoms: C_5  and  N_6
REMARK    4  A    between atoms: N_6  and  C_7
REMARK    5  A    between atoms: C_8  and  C_10
REMARK    6  A    between atoms: C_13  and  N_14
REMARK    7  A    between atoms: C_15  and  C_17
REMARK    8  A    between atoms: C_21  and  C_22
REMARK                            x       y       z     vdW  Elec       q    Type
REMARK                         _______ _______ _______ _____ _____    ______ ____
ROOT
ATOM      1  C   UNL     1       3.988   6.321  18.311  0.00  0.00    +0.000 A 
ATOM      2  C   UNL     1       3.681   7.344  17.416  0.00  0.00    +0.000 A 
ATOM      3  C   UNL     1       2.703   8.293  17.724  0.00  0.00    +0.000 A 
ATOM      4  C   UNL     1       1.943   8.195  18.890  0.00  0.00    +0.000 A 
ATOM      5  C   UNL     1       2.239   7.164  19.790  0.00  0.00    +0.000 A 
ATOM      6  C   UNL     1       3.248   6.231  19.499  0.00  0.00    +0.000 A 
ENDROOT
BRANCH   1   9
ATOM      7  N   UNL     1       6.314   5.582  17.696  0.00  0.00    +0.000 N 
ATOM      8  C   UNL     1       6.955   6.871  17.917  0.00  0.00    +0.000 C 
ATOM      9  C   UNL     1       4.985   5.258  17.983  0.00  0.00    +0.000 C 
ATOM     10  O   UNL     1       4.571   4.098  17.939  0.00  0.00    +0.000 OA
BRANCH   7  11
ATOM     11  C   UNL     1       7.162   4.543  17.112  0.00  0.00    +0.000 C 
BRANCH  11  15
ATOM     12  C   UNL     1       5.665   3.576  12.319  0.00  0.00    +0.000 C 
ATOM     13  C   UNL     1       6.326   4.029  13.562  0.00  0.00    +0.000 A 
ATOM     14  C   UNL     1       6.222   3.601  14.866  0.00  0.00    +0.000 A 
ATOM     15  C   UNL     1       7.035   4.484  15.619  0.00  0.00    +0.000 A 
ATOM     16  N   UNL     1       7.648   5.378  14.824  0.00  0.00    +0.000 NA
ATOM     17  N   UNL     1       7.217   5.065  13.590  0.00  0.00    +0.000 N 
ATOM     18  H   UNL     1       7.553   5.621  12.810  0.00  0.00    +0.000 HD
ENDBRANCH  11  15
ENDBRANCH   7  11
ENDBRANCH   1   9
BRANCH   4  19
ATOM     19  N   UNL     1       0.861   9.060  19.177  0.00  0.00    +0.000 N 
ATOM     20  C   UNL     1       0.833  10.434  18.968  0.00  0.00    +0.000 C 
ATOM     21  O   UNL     1       1.778  11.108  18.569  0.00  0.00    +0.000 OA
ATOM     22  H   UNL     1       0.011   8.623  19.502  0.00  0.00    +0.000 HD
BRANCH  20  23
ATOM     23  C   UNL     1      -0.449  11.073  19.244  0.00  0.00    +0.000 A 
ATOM     24  C   UNL     1      -1.489  11.501  18.364  0.00  0.00    +0.000 A 
ATOM     25  C   UNL     1      -2.460  12.073  19.153  0.00  0.00    +0.000 A 
ATOM     26  O   UNL     1      -2.098  12.032  20.455  0.00  0.00    +0.000 OA
ATOM     27  C   UNL     1      -0.876  11.438  20.515  0.00  0.00    +0.000 A 
ATOM     28  C   UNL     1      -0.280  11.313  21.866  0.00  0.00    +0.000 C 
ENDBRANCH  20  23
ENDBRANCH   4  19
TORSDOF 5
ENDMDL
MODEL 5
REMARK VINA RESULT:      -7.9      4.948      7.948
REMARK  Name = 
REMARK  8 active torsions:
REMARK  status: ('A' for Active; 'I' for Inactive)
REMARK    1  A    between atoms: C_1  and  C_2
REMARK    2  A    between atoms: C_4  and  C_5
REMARK    3  A    between atoms: C_5  and  N_6
REMARK    4  A    between atoms: N_6  and  C_7
REMARK    5  A    between atoms: C_8  and  C_10
REMARK    6  A    between atoms: C_13  and  N_14
REMARK    7  A    between atoms: C_15  and  C_17
REMARK    8  A    between atoms: C_21  and  C_22
REMARK                            x       y       z     vdW  Elec       q    Type
REMARK                         _______ _______ _______ _____ _____    ______ ____
ROOT
ATOM      1  C   UNL     1       6.281   5.748  17.428  0.00  0.00    +0.000 A 
ATOM      2  C   UNL     1       6.329   7.008  16.833  0.00  0.00    +0.000 A 
ATOM      3  C   UNL     1       7.254   7.964  17.257  0.00  0.00    +0.000 A 
ATOM      4  C   UNL     1       8.094   7.724  18.344  0.00  0.00    +0.000 A 
ATOM      5  C   UNL     1       8.046   6.464  18.955  0.00  0.00    +0.000 A 
ATOM      6  C   UNL     1       7.142   5.487  18.504  0.00  0.00    +0.000 A 
ENDROOT
BRANCH   1   9
ATOM      7  N   UNL     1       3.940   4.825  17.478  0.00  0.00    +0.000 N 
ATOM      8  C   UNL     1       3.326   5.982  18.114  0.00  0.00    +0.000 C 
ATOM      9  C   UNL     1       5.262   4.728  17.036  0.00  0.00    +0.000 C 
ATOM     10  O   UNL     1       5.653   3.786  16.344  0.00  0.00    +0.000 OA
BRANCH   7  11
ATOM     11  C   UNL     1       3.071   3.662  17.301  0.00  0.00    +0.000 C 
BRANCH  11  15
ATOM     12  C   UNL     1       1.705   2.543  22.099  0.00  0.00    +0.000 C 
ATOM     13  C   UNL     1       1.786   2.852  20.655  0.00  0.00    +0.000 A 
ATOM     14  C   UNL     1       2.844   2.867  19.776  0.00  0.00    +0.000 A 
ATOM     15  C   UNL     1       2.310   3.330  18.549  0.00  0.00    +0.000 A 
ATOM     16  N   UNL     1       0.986   3.543  18.645  0.00  0.00    +0.000 NA
ATOM     17  N   UNL     1       0.696   3.228  19.918  0.00  0.00    +0.000 N 
ATOM     18  H   UNL     1      -0.266   3.317  20.227  0.00  0.00    +0.000 HD
ENDBRANCH  11  15
ENDBRANCH   7  11
ENDBRANCH   1   9
BRANCH   4  19
ATOM     19  N   UNL     1       8.954   8.709  18.884  0.00  0.00    +0.000 N 
ATOM     20  C   UNL     1       8.930  10.067  18.588  0.00  0.00    +0.000 C 
ATOM     21  O   UNL     1       8.201  10.597  17.756  0.00  0.00    +0.000 OA
ATOM     22  H   UNL     1       9.598   8.401  19.597  0.00  0.00    +0.000 HD
BRANCH  20  23
ATOM     23  C   UNL     1       9.852  10.884  19.370  0.00  0.00    +0.000 A 
ATOM     24  C   UNL     1      11.155  11.379  19.061  0.00  0.00    +0.000 A 
ATOM     25  C   UNL     1      11.589  12.064  20.172  0.00  0.00    +0.000 A 
ATOM     26  O   UNL     1      10.652  12.028  21.147  0.00  0.00    +0.000 OA
ATOM     27  C   UNL     1       9.604  11.305  20.671  0.00  0.00    +0.000 A 
ATOM     28  C   UNL     1       8.464  11.124  21.601  0.00  0.00    +0.000 C 
ENDBRANCH  20  23
ENDBRANCH   4  19
TORSDOF 5
ENDMDL
MODEL 6
REMARK VINA RESULT:      -7.9      1.160      1.550
REMARK  Name = 
REMARK  8 active torsions:
REMARK  status: ('A' for Active; 'I' for Inactive)
REMARK    1  A    between atoms: C_1  and  C_2
REMARK    2  A    between atoms: C_4  and  C_5
REMARK    3  A    between atoms: C_5  and  N_6
REMARK    4  A    between atoms: N_6  and  C_7
REMARK    5  A    between atoms: C_8  and  C_10
REMARK    6  A    between atoms: C_13  and  N_14
REMARK    7  A    between atoms: C_15  and  C_17
REMARK    8  A    between atoms: C_21  and  C_22
REMARK                            x       y       z     vdW  Elec       q    Type
REMARK                         _______ _______ _______ _____ _____    ______ ____
ROOT
ATOM      1  C   UNL     1       3.901   6.136  18.339  0.00  0.00    +0.000 A 
ATOM      2  C   UNL     1       3.193   6.086  19.538  0.00  0.00    +0.000 A 
ATOM      3  C   UNL     1       2.241   7.060  19.847  0.00  0.00    +0.000 A 
ATOM      4  C   UNL     1       2.033   8.158  19.012  0.00  0.00    +0.000 A 
ATOM      5  C   UNL     1       2.747   8.221  17.808  0.00  0.00    +0.000 A 
ATOM      6  C   UNL     1       3.679   7.221  17.478  0.00  0.00    +0.000 A 
ENDROOT
BRANCH   1   9
ATOM      7  N   UNL     1       6.263   5.559  17.689  0.00  0.00    +0.000 N 
ATOM      8  C   UNL     1       6.811   6.896  17.873  0.00  0.00    +0.000 C 
ATOM      9  C   UNL     1       4.968   5.143  18.009  0.00  0.00    +0.000 C 
ATOM     10  O   UNL     1       4.641   3.956  17.996  0.00  0.00    +0.000 OA
BRANCH   7  11
ATOM     11  C   UNL     1       7.175   4.575  17.107  0.00  0.00    +0.000 C 
BRANCH  11  15
ATOM     12  C   UNL     1       5.639   3.556  12.337  0.00  0.00    +0.000 C 
ATOM     13  C   UNL     1       6.314   4.017  13.570  0.00  0.00    +0.000 A 
ATOM     14  C   UNL     1       6.208   3.614  14.881  0.00  0.00    +0.000 A 
ATOM     15  C   UNL     1       7.040   4.494  15.615  0.00  0.00    +0.000 A 
ATOM     16  N   UNL     1       7.666   5.362  14.803  0.00  0.00    +0.000 NA
ATOM     17  N   UNL     1       7.224   5.037  13.576  0.00  0.00    +0.000 N 
ATOM     18  H   UNL     1       7.567   5.574  12.786  0.00  0.00    +0.000 HD
ENDBRANCH  11  15
ENDBRANCH   7  11
ENDBRANCH   1   9
BRANCH   4  19
ATOM     19  N   UNL     1       1.172   9.229  19.349  0.00  0.00    +0.000 N 
ATOM     20  C   UNL     1       0.382   9.316  20.489  0.00  0.00    +0.000 C 
ATOM     21  O   UNL     1       0.264   8.436  21.336  0.00  0.00    +0.000 OA
ATOM     22  H   UNL     1       1.187  10.028  18.733  0.00  0.00    +0.000 HD
BRANCH  20  23
ATOM     23  C   UNL     1      -0.328  10.580  20.651  0.00  0.00    +0.000 A 
ATOM     24  C   UNL     1      -0.337  11.515  21.730  0.00  0.00    +0.000 A 
ATOM     25  C   UNL     1      -1.210  12.518  21.372  0.00  0.00    +0.000 A 
ATOM     26  O   UNL     1      -1.741  12.271  20.154  0.00  0.00    +0.000 OA
ATOM     27  C   UNL     1      -1.220  11.094  19.718  0.00  0.00    +0.000 A 
ATOM     28  C   UNL     1      -1.695  10.623  18.395  0.00  0.00    +0.000 C 
ENDBRANCH  20  23
ENDBRANCH   4  19
TORSDOF 5
ENDMDL
MODEL 7
REMARK VINA RESULT:      -7.8      1.372      2.023
REMARK  Name = 
REMARK  8 active torsions:
REMARK  status: ('A' for Active; 'I' for Inactive)
REMARK    1  A    between atoms: C_1  and  C_2
REMARK    2  A    between atoms: C_4  and  C_5
REMARK    3  A    between atoms: C_5  and  N_6
REMARK    4  A    between atoms: N_6  and  C_7
REMARK    5  A    between atoms: C_8  and  C_10
REMARK    6  A    between atoms: C_13  and  N_14
REMARK    7  A    between atoms: C_15  and  C_17
REMARK    8  A    between atoms: C_21  and  C_22
REMARK                            x       y       z     vdW  Elec       q    Type
REMARK                         _______ _______ _______ _____ _____    ______ ____
ROOT
ATOM      1  C   UNL     1       3.845   6.216  18.370  0.00  0.00    +0.000 A 
ATOM      2  C   UNL     1       3.129   6.190  19.565  0.00  0.00    +0.000 A 
ATOM      3  C   UNL     1       2.168   7.165  19.843  0.00  0.00    +0.000 A 
ATOM      4  C   UNL     1       1.958   8.240  18.980  0.00  0.00    +0.000 A 
ATOM      5  C   UNL     1       2.681   8.280  17.781  0.00  0.00    +0.000 A 
ATOM      6  C   UNL     1       3.622   7.279  17.482  0.00  0.00    +0.000 A 
ENDROOT
BRANCH   1   9
ATOM      7  N   UNL     1       6.208   5.641  17.719  0.00  0.00    +0.000 N 
ATOM      8  C   UNL     1       6.739   6.992  17.838  0.00  0.00    +0.000 C 
ATOM      9  C   UNL     1       4.921   5.223  18.072  0.00  0.00    +0.000 C 
ATOM     10  O   UNL     1       4.609   4.032  18.115  0.00  0.00    +0.000 OA
BRANCH   7  11
ATOM     11  C   UNL     1       7.125   4.644  17.170  0.00  0.00    +0.000 C 
BRANCH  11  15
ATOM     12  C   UNL     1       5.680   3.530  12.394  0.00  0.00    +0.000 C 
ATOM     13  C   UNL     1       6.329   4.019  13.629  0.00  0.00    +0.000 A 
ATOM     14  C   UNL     1       6.206   3.636  14.946  0.00  0.00    +0.000 A 
ATOM     15  C   UNL     1       7.016   4.537  15.679  0.00  0.00    +0.000 A 
ATOM     16  N   UNL     1       7.646   5.398  14.862  0.00  0.00    +0.000 NA
ATOM     17  N   UNL     1       7.229   5.049  13.634  0.00  0.00    +0.000 N 
ATOM     18  H   UNL     1       7.579   5.575  12.841  0.00  0.00    +0.000 HD
ENDBRANCH  11  15
ENDBRANCH   7  11
ENDBRANCH   1   9
BRANCH   4  19
ATOM     19  N   UNL     1       1.087   9.313  19.285  0.00  0.00    +0.000 N 
ATOM     20  C   UNL     1       0.271   9.411  20.406  0.00  0.00    +0.000 C 
ATOM     21  O   UNL     1       0.137   8.542  21.261  0.00  0.00    +0.000 OA
ATOM     22  H   UNL     1       1.113  10.105  18.659  0.00  0.00    +0.000 HD
BRANCH  20  23
ATOM     23  C   UNL     1      -0.445  10.676  20.537  0.00  0.00    +0.000 A 
ATOM     24  C   UNL     1      -0.752  11.680  19.570  0.00  0.00    +0.000 A 
ATOM     25  C   UNL     1      -1.416  12.682  20.241  0.00  0.00    +0.000 A 
ATOM     26  O   UNL     1      -1.540  12.372  21.551  0.00  0.00    +0.000 OA
ATOM     27  C   UNL     1      -0.944  11.164  21.738  0.00  0.00    +0.000 A 
ATOM     28  C   UNL     1      -0.950  10.645  23.126  0.00  0.00    +0.000 C 
ENDBRANCH  20  23
ENDBRANCH   4  19
TORSDOF 5
ENDMDL
MODEL 8
REMARK VINA RESULT:      -7.7      0.827      1.591
REMARK  Name = 
REMARK  8 active torsions:
REMARK  status: ('A' for Active; 'I' for Inactive)
REMARK    1  A    between atoms: C_1  and  C_2
REMARK    2  A    between atoms: C_4  and  C_5
REMARK    3  A    between atoms: C_5  and  N_6
REMARK    4  A    between atoms: N_6  and  C_7
REMARK    5  A    between atoms: C_8  and  C_10
REMARK    6  A    between atoms: C_13  and  N_14
REMARK    7  A    between atoms: C_15  and  C_17
REMARK    8  A    between atoms: C_21  and  C_22
REMARK                            x       y       z     vdW  Elec       q    Type
REMARK                         _______ _______ _______ _____ _____    ______ ____
ROOT
ATOM      1  C   UNL     1       3.920   6.155  18.341  0.00  0.00    +0.000 A 
ATOM      2  C   UNL     1       3.270   6.138  19.574  0.00  0.00    +0.000 A 
ATOM      3  C   UNL     1       2.271   7.070  19.868  0.00  0.00    +0.000 A 
ATOM      4  C   UNL     1       1.957   8.097  18.978  0.00  0.00    +0.000 A 
ATOM      5  C   UNL     1       2.613   8.127  17.741  0.00  0.00    +0.000 A 
ATOM      6  C   UNL     1       3.591   7.168  17.428  0.00  0.00    +0.000 A 
ENDROOT
BRANCH   1   9
ATOM      7  N   UNL     1       6.287   5.684  17.628  0.00  0.00    +0.000 N 
ATOM      8  C   UNL     1       6.757   7.060  17.717  0.00  0.00    +0.000 C 
ATOM      9  C   UNL     1       5.033   5.210  18.022  0.00  0.00    +0.000 C 
ATOM     10  O   UNL     1       4.779   4.007  18.086  0.00  0.00    +0.000 OA
BRANCH   7  11
ATOM     11  C   UNL     1       7.235   4.725  17.062  0.00  0.00    +0.000 C 
BRANCH  11  15
ATOM     12  C   UNL     1       5.633   3.507  12.361  0.00  0.00    +0.000 C 
ATOM     13  C   UNL     1       6.323   4.021  13.564  0.00  0.00    +0.000 A 
ATOM     14  C   UNL     1       6.241   3.669  14.892  0.00  0.00    +0.000 A 
ATOM     15  C   UNL     1       7.077   4.584  15.578  0.00  0.00    +0.000 A 
ATOM     16  N   UNL     1       7.683   5.424  14.722  0.00  0.00    +0.000 NA
ATOM     17  N   UNL     1       7.225   5.048  13.516  0.00  0.00    +0.000 N 
ATOM     18  H   UNL     1       7.551   5.555  12.700  0.00  0.00    +0.000 HD
ENDBRANCH  11  15
ENDBRANCH   7  11
ENDBRANCH   1   9
BRANCH   4  19
ATOM     19  N   UNL     1       1.045   9.132  19.291  0.00  0.00    +0.000 N 
ATOM     20  C   UNL     1       1.151  10.463  18.903  0.00  0.00    +0.000 C 
ATOM     21  O   UNL     1       2.098  10.946  18.289  0.00  0.00    +0.000 OA
ATOM     22  H   UNL     1       0.209   8.859  19.787  0.00  0.00    +0.000 HD
BRANCH  20  23
ATOM     23  C   UNL     1       0.014  11.302  19.263  0.00  0.00    +0.000 A 
ATOM     24  C   UNL     1      -0.799  12.166  18.469  0.00  0.00    +0.000 A 
ATOM     25  C   UNL     1      -1.709  12.745  19.324  0.00  0.00    +0.000 A 
ATOM     26  O   UNL     1      -1.519  12.304  20.588  0.00  0.00    +0.000 OA
ATOM     27  C   UNL     1      -0.469  11.440  20.559  0.00  0.00    +0.000 A 
ATOM     28  C   UNL     1      -0.075  10.852  21.861  0.00  0.00    +0.000 C 
ENDBRANCH  20  23
ENDBRANCH   4  19
TORSDOF 5
ENDMDL
MODEL 9
REMARK VINA RESULT:      -7.6      2.240      2.428
REMARK  Name = 
REMARK  8 active torsions:
REMARK  status: ('A' for Active; 'I' for Inactive)
REMARK    1  A    between atoms: C_1  and  C_2
REMARK    2  A    between atoms: C_4  and  C_5
REMARK    3  A    between atoms: C_5  and  N_6
REMARK    4  A    between atoms: N_6  and  C_7
REMARK    5  A    between atoms: C_8  and  C_10
REMARK    6  A    between atoms: C_13  and  N_14
REMARK    7  A    between atoms: C_15  and  C_17
REMARK    8  A    between atoms: C_21  and  C_22
REMARK                            x       y       z     vdW  Elec       q    Type
REMARK                         _______ _______ _______ _____ _____    ______ ____
ROOT
ATOM      1  C   UNL     1       2.878   6.116  18.668  0.00  0.00    +0.000 A 
ATOM      2  C   UNL     1       2.745   7.324  17.986  0.00  0.00    +0.000 A 
ATOM      3  C   UNL     1       2.108   8.415  18.582  0.00  0.00    +0.000 A 
ATOM      4  C   UNL     1       1.508   8.305  19.836  0.00  0.00    +0.000 A 
ATOM      5  C   UNL     1       1.628   7.091  20.525  0.00  0.00    +0.000 A 
ATOM      6  C   UNL     1       2.302   6.004  19.942  0.00  0.00    +0.000 A 
ENDROOT
BRANCH   1   9
ATOM      7  N   UNL     1       4.857   4.633  18.204  0.00  0.00    +0.000 N 
ATOM      8  C   UNL     1       5.754   5.257  19.167  0.00  0.00    +0.000 C 
ATOM      9  C   UNL     1       3.499   4.915  18.033  0.00  0.00    +0.000 C 
ATOM     10  O   UNL     1       2.770   4.216  17.328  0.00  0.00    +0.000 OA
BRANCH   7  11
ATOM     11  C   UNL     1       5.461   3.620  17.340  0.00  0.00    +0.000 C 
BRANCH  11  15
ATOM     12  C   UNL     1       7.354   5.104  12.828  0.00  0.00    +0.000 C 
ATOM     13  C   UNL     1       7.051   4.843  14.252  0.00  0.00    +0.000 A 
ATOM     14  C   UNL     1       6.222   3.931  14.863  0.00  0.00    +0.000 A 
ATOM     15  C   UNL     1       6.285   4.229  16.246  0.00  0.00    +0.000 A 
ATOM     16  N   UNL     1       7.143   5.235  16.487  0.00  0.00    +0.000 NA
ATOM     17  N   UNL     1       7.603   5.571  15.270  0.00  0.00    +0.000 N 
ATOM     18  H   UNL     1       8.276   6.327  15.204  0.00  0.00    +0.000 HD
ENDBRANCH  11  15
ENDBRANCH   7  11
ENDBRANCH   1   9
BRANCH   4  19
ATOM     19  N   UNL     1       0.746   9.345  20.418  0.00  0.00    +0.000 N 
ATOM     20  C   UNL     1       0.913   9.867  21.696  0.00  0.00    +0.000 C 
ATOM     21  O   UNL     1       1.705   9.446  22.533  0.00  0.00    +0.000 OA
ATOM     22  H   UNL     1       0.062   9.788  19.822  0.00  0.00    +0.000 HD
BRANCH  20  23
ATOM     23  C   UNL     1       0.067  11.014  22.008  0.00  0.00    +0.000 A 
ATOM     24  C   UNL     1      -1.062  11.135  22.873  0.00  0.00    +0.000 A 
ATOM     25  C   UNL     1      -1.502  12.434  22.764  0.00  0.00    +0.000 A 
ATOM     26  O   UNL     1      -0.731  13.125  21.894  0.00  0.00    +0.000 OA
ATOM     27  C   UNL     1       0.213  12.267  21.424  0.00  0.00    +0.000 A 
ATOM     28  C   UNL     1       1.160  12.823  20.429  0.00  0.00    +0.000 C 
ENDBRANCH  20  23
ENDBRANCH   4  19
TORSDOF 5
ENDMDL
