MODEL 1
REMARK VINA RESULT:      -8.0      0.000      0.000
REMARK  Name = 
REMARK  7 active torsions:
REMARK  status: ('A' for Active; 'I' for Inactive)
REMARK    1  A    between atoms: O5*_1  and  C5*_2
REMARK    2  A    between atoms: C5*_2  and  C4*_3
REMARK    3  A    between atoms: C1*_5  and  N_6
REMARK    4  A    between atoms: C_9  and  C_10
REMARK    5  A    between atoms: N_11  and  O_12
REMARK    6  A    between atoms: C2*_21  and  O2*_22
REMARK    7  A    between atoms: C3*_23  and  O3*_24
REMARK                            x       y       z     vdW  Elec       q    Type
REMARK                         _______ _______ _______ _____ _____    ______ ____
ROOT
ATOM      1  N   UNL     1       4.684   4.450  17.148  0.00  0.00    +0.000 N 
ATOM      2  C   UNL     1       5.378   5.306  17.972  0.00  0.00    +0.000 A 
ATOM      3 CL   UNL     1       4.876   5.562  19.590  0.00  0.00    +0.000 Cl
ATOM      4  C   UNL     1       6.448   5.861  17.304  0.00  0.00    +0.000 A 
ATOM      5  C   UNL     1       6.408   5.320  15.981  0.00  0.00    +0.000 A 
ATOM      6  C   UNL     1       7.214   5.491  14.830  0.00  0.00    +0.000 A 
ATOM      7  C   UNL     1       6.916   4.812  13.643  0.00  0.00    +0.000 A 
ATOM      8 CL   UNL     1       7.952   5.075  12.285  0.00  0.00    +0.000 Cl
ATOM      9  C   UNL     1       5.822   3.957  13.587  0.00  0.00    +0.000 A 
ATOM     10 CL   UNL     1       5.387   3.088  12.155  0.00  0.00    +0.000 Cl
ATOM     11  C   UNL     1       5.018   3.766  14.717  0.00  0.00    +0.000 A 
ATOM     12  C   UNL     1       5.311   4.452  15.906  0.00  0.00    +0.000 A 
ENDROOT
BRANCH   1  15
ATOM     13  C4* UNL     1       1.641   3.866  18.981  0.00  0.00    +0.000 C 
ATOM     14  O4* UNL     1       2.432   4.586  18.002  0.00  0.00    +0.000 OA
ATOM     15  C1* UNL     1       3.472   3.704  17.514  0.00  0.00    +0.000 C 
ATOM     16  C2* UNL     1       3.690   2.650  18.597  0.00  0.00    +0.000 C 
ATOM     17  C3* UNL     1       2.291   2.498  19.176  0.00  0.00    +0.000 C 
BRANCH  16  18
ATOM     18  O2* UNL     1       4.163   1.407  18.084  0.00  0.00    +0.000 OA
ATOM     19  H2* UNL     1       4.191   1.502  17.104  0.00  0.00    +0.000 HD
ENDBRANCH  16  18
BRANCH  17  20
ATOM     20  O3* UNL     1       1.595   1.480  18.422  0.00  0.00    +0.000 OA
ATOM     21  H3* UNL     1       2.195   0.727  18.268  0.00  0.00    +0.000 HD
ENDBRANCH  17  20
BRANCH  13  22
ATOM     22  C5* UNL     1       1.492   4.684  20.271  0.00  0.00    +0.000 C 
BRANCH  22  23
ATOM     23  O5* UNL     1       2.149   4.065  21.372  0.00  0.00    +0.000 OA
ATOM     24  H5* UNL     1       2.897   3.554  21.013  0.00  0.00    +0.000 HD
ENDBRANCH  22  23
ENDBRANCH  13  22
ENDBRANCH   1  15
BRANCH   4  25
ATOM     25  C   UNL     1       7.393   6.805  17.873  0.00  0.00    +0.000 C 
ATOM     26  N   UNL     1       7.458   8.006  17.394  0.00  0.00    +0.000 NA
BRANCH  26  27
ATOM     27  O   UNL     1       8.432   8.734  18.089  0.00  0.00    +0.000 OA
ATOM     28  H   UNL     1       8.639   8.143  18.840  0.00  0.00    +0.000 HD
ENDBRANCH  26  27
ENDBRANCH   4  25
TORSDOF 7
ENDMDL
MODEL 2
REMARK VINA RESULT:      -6.8      1.121      1.121
REMARK  Name = 
REMARK  7 active torsions:
REMARK  status: ('A' for Active; 'I' for Inactive)
REMARK    1  A    between atoms: O5*_1  and  C5*_2
REMARK    2  A    between atoms: C5*_2  and  C4*_3
REMARK    3  A    between atoms: C1*_5  and  N_6
REMARK    4  A    between atoms: C_9  and  C_10
REMARK    5  A    between atoms: N_11  and  O_12
REMARK    6  A    between atoms: C2*_21  and  O2*_22
REMARK    7  A    between atoms: C3*_23  and  O3*_24
REMARK                            x       y       z     vdW  Elec       q    Type
REMARK                         _______ _______ _______ _____ _____    ______ ____
ROOT
ATOM      1  N   UNL     1       4.308   4.125  17.274  0.00  0.00    +0.000 N 
ATOM      2  C   UNL     1       5.094   4.738  18.224  0.00  0.00    +0.000 A 
ATOM      3 CL   UNL     1       4.578   4.834  19.856  0.00  0.00    +0.000 Cl
ATOM      4  C   UNL     1       6.258   5.212  17.659  0.00  0.00    +0.000 A 
ATOM      5  C   UNL     1       6.184   4.877  16.271  0.00  0.00    +0.000 A 
ATOM      6  C   UNL     1       7.048   5.085  15.168  0.00  0.00    +0.000 A 
ATOM      7  C   UNL     1       6.694   4.635  13.891  0.00  0.00    +0.000 A 
ATOM      8 CL   UNL     1       7.806   4.927  12.600  0.00  0.00    +0.000 Cl
ATOM      9  C   UNL     1       5.486   3.975  13.696  0.00  0.00    +0.000 A 
ATOM     10 CL   UNL     1       4.978   3.397  12.146  0.00  0.00    +0.000 Cl
ATOM     11  C   UNL     1       4.624   3.751  14.774  0.00  0.00    +0.000 A 
ATOM     12  C   UNL     1       4.973   4.207  16.055  0.00  0.00    +0.000 A 
ENDROOT
BRANCH   1  15
ATOM     13  C4* UNL     1       1.125   3.799  18.923  0.00  0.00    +0.000 C 
ATOM     14  O4* UNL     1       2.059   4.496  18.060  0.00  0.00    +0.000 OA
ATOM     15  C1* UNL     1       2.986   3.530  17.511  0.00  0.00    +0.000 C 
ATOM     16  C2* UNL     1       2.998   2.344  18.473  0.00  0.00    +0.000 C 
ATOM     17  C3* UNL     1       1.563   2.337  18.983  0.00  0.00    +0.000 C 
BRANCH  16  18
ATOM     18  O2* UNL     1       3.315   1.108  17.838  0.00  0.00    +0.000 OA
ATOM     19  H2* UNL     1       2.657   0.988  17.116  0.00  0.00    +0.000 HD
ENDBRANCH  16  18
BRANCH  17  20
ATOM     20  O3* UNL     1       0.770   1.520  18.094  0.00  0.00    +0.000 OA
ATOM     21  H3* UNL     1       1.277   1.341  17.281  0.00  0.00    +0.000 HD
ENDBRANCH  17  20
BRANCH  13  22
ATOM     22  C5* UNL     1       1.028   4.486  20.291  0.00  0.00    +0.000 C 
BRANCH  22  23
ATOM     23  O5* UNL     1       1.603   3.694  21.326  0.00  0.00    +0.000 OA
ATOM     24  H5* UNL     1       1.038   2.908  21.438  0.00  0.00    +0.000 HD
ENDBRANCH  22  23
ENDBRANCH  13  22
ENDBRANCH   1  15
BRANCH   4  25
ATOM     25  C   UNL     1       7.313   5.908  18.373  0.00  0.00    +0.000 C 
ATOM     26  N   UNL     1       7.839   5.362  19.422  0.00  0.00    +0.000 NA
BRANCH  26  27
ATOM     27  O   UNL     1       8.826   6.206  19.943  0.00  0.00    +0.000 OA
ATOM     28  H   UNL     1       9.397   5.583  20.435  0.00  0.00    +0.000 HD
ENDBRANCH  26  27
ENDBRANCH   4  25
TORSDOF 7
ENDMDL
MODEL 3
REMARK VINA RESULT:      -6.6      3.223      6.992
REMARK  Name = 
REMARK  7 active torsions:
REMARK  status: ('A' for Active; 'I' for Inactive)
REMARK    1  A    between atoms: O5*_1  and  C5*_2
REMARK    2  A    between atoms: C5*_2  and  C4*_3
REMARK    3  A    between atoms: C1*_5  and  N_6
REMARK    4  A    between atoms: C_9  and  C_10
REMARK    5  A    between atoms: N_11  and  O_12
REMARK    6  A    between atoms: C2*_21  and  O2*_22
REMARK    7  A    between atoms: C3*_23  and  O3*_24
REMARK                            x       y       z     vdW  Elec       q    Type
REMARK                         _______ _______ _______ _____ _____    ______ ____
ROOT
ATOM      1  N   UNL     1       4.034   5.980  18.663  0.00  0.00    +0.000 N 
ATOM      2  C   UNL     1       3.865   4.875  19.466  0.00  0.00    +0.000 A 
ATOM      3 CL   UNL     1       4.884   3.507  19.299  0.00  0.00    +0.000 Cl
ATOM      4  C   UNL     1       2.818   5.067  20.342  0.00  0.00    +0.000 A 
ATOM      5  C   UNL     1       2.304   6.370  20.057  0.00  0.00    +0.000 A 
ATOM      6  C   UNL     1       1.246   7.143  20.596  0.00  0.00    +0.000 A 
ATOM      7  C   UNL     1       0.969   8.420  20.095  0.00  0.00    +0.000 A 
ATOM      8 CL   UNL     1      -0.337   9.298  20.810  0.00  0.00    +0.000 Cl
ATOM      9  C   UNL     1       1.737   8.944  19.061  0.00  0.00    +0.000 A 
ATOM     10 CL   UNL     1       1.451  10.511  18.386  0.00  0.00    +0.000 Cl
ATOM     11  C   UNL     1       2.793   8.200  18.522  0.00  0.00    +0.000 A 
ATOM     12  C   UNL     1       3.068   6.916  19.018  0.00  0.00    +0.000 A 
ENDROOT
BRANCH   1  15
ATOM     13  C4* UNL     1       5.795   4.969  15.690  0.00  0.00    +0.000 C 
ATOM     14  O4* UNL     1       4.615   5.449  16.383  0.00  0.00    +0.000 OA
ATOM     15  C1* UNL     1       5.035   6.118  17.597  0.00  0.00    +0.000 C 
ATOM     16  C2* UNL     1       6.408   5.551  17.951  0.00  0.00    +0.000 C 
ATOM     17  C3* UNL     1       7.001   5.275  16.576  0.00  0.00    +0.000 C 
BRANCH  16  18
ATOM     18  O2* UNL     1       7.223   6.467  18.679  0.00  0.00    +0.000 OA
ATOM     19  H2* UNL     1       6.673   6.796  19.427  0.00  0.00    +0.000 HD
ENDBRANCH  16  18
BRANCH  17  20
ATOM     20  O3* UNL     1       7.684   6.467  16.129  0.00  0.00    +0.000 OA
ATOM     21  H3* UNL     1       7.983   6.978  16.904  0.00  0.00    +0.000 HD
ENDBRANCH  17  20
BRANCH  13  22
ATOM     22  C5* UNL     1       5.645   3.488  15.318  0.00  0.00    +0.000 C 
BRANCH  22  23
ATOM     23  O5* UNL     1       6.216   3.199  14.046  0.00  0.00    +0.000 OA
ATOM     24  H5* UNL     1       6.904   2.522  14.185  0.00  0.00    +0.000 HD
ENDBRANCH  22  23
ENDBRANCH  13  22
ENDBRANCH   1  15
BRANCH   4  25
ATOM     25  C   UNL     1       2.366   4.106  21.331  0.00  0.00    +0.000 C 
ATOM     26  N   UNL     1       1.478   3.223  21.001  0.00  0.00    +0.000 NA
BRANCH  26  27
ATOM     27  O   UNL     1       1.195   2.410  22.105  0.00  0.00    +0.000 OA
ATOM     28  H   UNL     1       1.953   1.793  22.110  0.00  0.00    +0.000 HD
ENDBRANCH  26  27
ENDBRANCH   4  25
TORSDOF 7
ENDMDL
MODEL 4
REMARK VINA RESULT:      -6.5      3.346      6.714
REMARK  Name = 
REMARK  7 active torsions:
REMARK  status: ('A' for Active; 'I' for Inactive)
REMARK    1  A    between atoms: O5*_1  and  C5*_2
REMARK    2  A    between atoms: C5*_2  and  C4*_3
REMARK    3  A    between atoms: C1*_5  and  N_6
REMARK    4  A    between atoms: C_9  and  C_10
REMARK    5  A    between atoms: N_11  and  O_12
REMARK    6  A    between atoms: C2*_21  and  O2*_22
REMARK    7  A    between atoms: C3*_23  and  O3*_24
REMARK                            x       y       z     vdW  Elec       q    Type
REMARK                         _______ _______ _______ _____ _____    ______ ____
ROOT
ATOM      1  N   UNL     1       4.215   4.869  18.973  0.00  0.00    +0.000 N 
ATOM      2  C   UNL     1       3.827   3.926  19.899  0.00  0.00    +0.000 A 
ATOM      3 CL   UNL     1       4.636   2.419  20.004  0.00  0.00    +0.000 Cl
ATOM      4  C   UNL     1       2.765   4.388  20.646  0.00  0.00    +0.000 A 
ATOM      5  C   UNL     1       2.474   5.696  20.146  0.00  0.00    +0.000 A 
ATOM      6  C   UNL     1       1.512   6.680  20.483  0.00  0.00    +0.000 A 
ATOM      7  C   UNL     1       1.466   7.897  19.794  0.00  0.00    +0.000 A 
ATOM      8 CL   UNL     1       0.264   9.044  20.270  0.00  0.00    +0.000 Cl
ATOM      9  C   UNL     1       2.372   8.152  18.771  0.00  0.00    +0.000 A 
ATOM     10 CL   UNL     1       2.372   9.629  17.871  0.00  0.00    +0.000 Cl
ATOM     11  C   UNL     1       3.336   7.197  18.430  0.00  0.00    +0.000 A 
ATOM     12  C   UNL     1       3.380   5.972  19.114  0.00  0.00    +0.000 A 
ENDROOT
BRANCH   1  15
ATOM     13  C4* UNL     1       7.166   5.875  17.174  0.00  0.00    +0.000 C 
ATOM     14  O4* UNL     1       6.480   5.442  18.376  0.00  0.00    +0.000 OA
ATOM     15  C1* UNL     1       5.293   4.708  17.989  0.00  0.00    +0.000 C 
ATOM     16  C2* UNL     1       4.931   5.181  16.582  0.00  0.00    +0.000 C 
ATOM     17  C3* UNL     1       6.300   5.468  15.983  0.00  0.00    +0.000 C 
BRANCH  16  18
ATOM     18  O2* UNL     1       4.241   4.195  15.819  0.00  0.00    +0.000 OA
ATOM     19  H2* UNL     1       3.809   4.671  15.073  0.00  0.00    +0.000 HD
ENDBRANCH  16  18
BRANCH  17  20
ATOM     20  O3* UNL     1       6.793   4.254  15.374  0.00  0.00    +0.000 OA
ATOM     21  H3* UNL     1       7.541   3.911  15.897  0.00  0.00    +0.000 HD
ENDBRANCH  17  20
BRANCH  13  22
ATOM     22  C5* UNL     1       7.487   7.374  17.238  0.00  0.00    +0.000 C 
BRANCH  22  23
ATOM     23  O5* UNL     1       8.256   7.704  18.390  0.00  0.00    +0.000 OA
ATOM     24  H5* UNL     1       7.666   7.634  19.162  0.00  0.00    +0.000 HD
ENDBRANCH  22  23
ENDBRANCH  13  22
ENDBRANCH   1  15
BRANCH   4  25
ATOM     25  C   UNL     1       2.108   3.654  21.712  0.00  0.00    +0.000 C 
ATOM     26  N   UNL     1       1.273   2.711  21.413  0.00  0.00    +0.000 NA
BRANCH  26  27
ATOM     27  O   UNL     1       0.764   2.147  22.589  0.00  0.00    +0.000 OA
ATOM     28  H   UNL     1       1.417   1.446  22.785  0.00  0.00    +0.000 HD
ENDBRANCH  26  27
ENDBRANCH   4  25
TORSDOF 7
ENDMDL
MODEL 5
REMARK VINA RESULT:      -6.3      1.310      1.404
REMARK  Name = 
REMARK  7 active torsions:
REMARK  status: ('A' for Active; 'I' for Inactive)
REMARK    1  A    between atoms: O5*_1  and  C5*_2
REMARK    2  A    between atoms: C5*_2  and  C4*_3
REMARK    3  A    between atoms: C1*_5  and  N_6
REMARK    4  A    between atoms: C_9  and  C_10
REMARK    5  A    between atoms: N_11  and  O_12
REMARK    6  A    between atoms: C2*_21  and  O2*_22
REMARK    7  A    between atoms: C3*_23  and  O3*_24
REMARK                            x       y       z     vdW  Elec       q    Type
REMARK                         _______ _______ _______ _____ _____    ______ ____
ROOT
ATOM      1  N   UNL     1       5.288   4.045  17.128  0.00  0.00    +0.000 N 
ATOM      2  C   UNL     1       5.760   5.066  17.921  0.00  0.00    +0.000 A 
ATOM      3 CL   UNL     1       5.283   5.192  19.562  0.00  0.00    +0.000 Cl
ATOM      4  C   UNL     1       6.606   5.885  17.205  0.00  0.00    +0.000 A 
ATOM      5  C   UNL     1       6.654   5.340  15.884  0.00  0.00    +0.000 A 
ATOM      6  C   UNL     1       7.329   5.714  14.696  0.00  0.00    +0.000 A 
ATOM      7  C   UNL     1       7.173   4.967  13.523  0.00  0.00    +0.000 A 
ATOM      8 CL   UNL     1       8.035   5.489  12.118  0.00  0.00    +0.000 Cl
ATOM      9  C   UNL     1       6.352   3.845  13.516  0.00  0.00    +0.000 A 
ATOM     10 CL   UNL     1       6.105   2.877  12.104  0.00  0.00    +0.000 Cl
ATOM     11  C   UNL     1       5.684   3.454  14.682  0.00  0.00    +0.000 A 
ATOM     12  C   UNL     1       5.833   4.206  15.858  0.00  0.00    +0.000 A 
ENDROOT
BRANCH   1  15
ATOM     13  C4* UNL     1       2.047   2.725  17.970  0.00  0.00    +0.000 C 
ATOM     14  O4* UNL     1       3.016   3.243  17.024  0.00  0.00    +0.000 OA
ATOM     15  C1* UNL     1       4.344   3.001  17.548  0.00  0.00    +0.000 C 
ATOM     16  C2* UNL     1       4.195   2.867  19.062  0.00  0.00    +0.000 C 
ATOM     17  C3* UNL     1       2.820   2.225  19.189  0.00  0.00    +0.000 C 
BRANCH  16  18
ATOM     18  O2* UNL     1       5.195   2.042  19.654  0.00  0.00    +0.000 OA
ATOM     19  H2* UNL     1       5.718   1.661  18.911  0.00  0.00    +0.000 HD
ENDBRANCH  16  18
BRANCH  17  20
ATOM     20  O3* UNL     1       2.984   0.789  19.146  0.00  0.00    +0.000 OA
ATOM     21  H3* UNL     1       2.113   0.369  19.023  0.00  0.00    +0.000 HD
ENDBRANCH  17  20
BRANCH  13  22
ATOM     22  C5* UNL     1       0.979   3.779  18.291  0.00  0.00    +0.000 C 
BRANCH  22  23
ATOM     23  O5* UNL     1       0.737   4.645  17.186  0.00  0.00    +0.000 OA
ATOM     24  H5* UNL     1       1.024   5.538  17.450  0.00  0.00    +0.000 HD
ENDBRANCH  22  23
ENDBRANCH  13  22
ENDBRANCH   1  15
BRANCH   4  25
ATOM     25  C   UNL     1       7.283   7.057  17.732  0.00  0.00    +0.000 C 
ATOM     26  N   UNL     1       8.208   6.909  18.625  0.00  0.00    +0.000 NA
BRANCH  26  27
ATOM     27  O   UNL     1       8.715   8.163  18.985  0.00  0.00    +0.000 OA
ATOM     28  H   UNL     1       9.552   7.929  19.433  0.00  0.00    +0.000 HD
ENDBRANCH  26  27
ENDBRANCH   4  25
TORSDOF 7
ENDMDL
MODEL 6
REMARK VINA RESULT:      -6.3      3.547      6.526
REMARK  Name = 
REMARK  7 active torsions:
REMARK  status: ('A' for Active; 'I' for Inactive)
REMARK    1  A    between atoms: O5*_1  and  C5*_2
REMARK    2  A    between atoms: C5*_2  and  C4*_3
REMARK    3  A    between atoms: C1*_5  and  N_6
REMARK    4  A    between atoms: C_9  and  C_10
REMARK    5  A    between atoms: N_11  and  O_12
REMARK    6  A    between atoms: C2*_21  and  O2*_22
REMARK    7  A    between atoms: C3*_23  and  O3*_24
REMARK                            x       y       z     vdW  Elec       q    Type
REMARK                         _______ _______ _______ _____ _____    ______ ____
ROOT
ATOM      1  N   UNL     1       3.989   6.310  18.244  0.00  0.00    +0.000 N 
ATOM      2  C   UNL     1       3.118   7.336  18.535  0.00  0.00    +0.000 A 
ATOM      3 CL   UNL     1       3.244   8.845  17.733  0.00  0.00    +0.000 Cl
ATOM      4  C   UNL     1       2.219   6.948  19.505  0.00  0.00    +0.000 A 
ATOM      5  C   UNL     1       2.559   5.600  19.838  0.00  0.00    +0.000 A 
ATOM      6  C   UNL     1       2.029   4.654  20.749  0.00  0.00    +0.000 A 
ATOM      7  C   UNL     1       2.592   3.377  20.860  0.00  0.00    +0.000 A 
ATOM      8 CL   UNL     1       1.882   2.283  21.993  0.00  0.00    +0.000 Cl
ATOM      9  C   UNL     1       3.680   3.026  20.070  0.00  0.00    +0.000 A 
ATOM     10 CL   UNL     1       4.433   1.471  20.156  0.00  0.00    +0.000 Cl
ATOM     11  C   UNL     1       4.213   3.942  19.157  0.00  0.00    +0.000 A 
ATOM     12  C   UNL     1       3.655   5.226  19.049  0.00  0.00    +0.000 A 
ENDROOT
BRANCH   1  15
ATOM     13  C4* UNL     1       5.970   5.161  15.466  0.00  0.00    +0.000 C 
ATOM     14  O4* UNL     1       4.758   5.718  16.036  0.00  0.00    +0.000 OA
ATOM     15  C1* UNL     1       5.096   6.375  17.281  0.00  0.00    +0.000 C 
ATOM     16  C2* UNL     1       6.391   5.732  17.773  0.00  0.00    +0.000 C 
ATOM     17  C3* UNL     1       7.099   5.405  16.466  0.00  0.00    +0.000 C 
BRANCH  16  18
ATOM     18  O2* UNL     1       7.184   6.605  18.573  0.00  0.00    +0.000 OA
ATOM     19  H2* UNL     1       7.778   7.088  17.954  0.00  0.00    +0.000 HD
ENDBRANCH  16  18
BRANCH  17  20
ATOM     20  O3* UNL     1       7.894   6.549  16.081  0.00  0.00    +0.000 OA
ATOM     21  H3* UNL     1       8.252   6.406  15.186  0.00  0.00    +0.000 HD
ENDBRANCH  17  20
BRANCH  13  22
ATOM     22  C5* UNL     1       5.768   3.687  15.089  0.00  0.00    +0.000 C 
BRANCH  22  23
ATOM     23  O5* UNL     1       6.319   3.384  13.811  0.00  0.00    +0.000 OA
ATOM     24  H5* UNL     1       5.733   2.728  13.391  0.00  0.00    +0.000 HD
ENDBRANCH  22  23
ENDBRANCH  13  22
ENDBRANCH   1  15
BRANCH   4  25
ATOM     25  C   UNL     1       1.160   7.780  20.047  0.00  0.00    +0.000 C 
ATOM     26  N   UNL     1       1.341   8.380  21.180  0.00  0.00    +0.000 NA
BRANCH  26  27
ATOM     27  O   UNL     1       0.197   9.119  21.505  0.00  0.00    +0.000 OA
ATOM     28  H   UNL     1      -0.363   8.997  20.713  0.00  0.00    +0.000 HD
ENDBRANCH  26  27
ENDBRANCH   4  25
TORSDOF 7
ENDMDL
MODEL 7
REMARK VINA RESULT:      -6.2      3.367      6.847
REMARK  Name = 
REMARK  7 active torsions:
REMARK  status: ('A' for Active; 'I' for Inactive)
REMARK    1  A    between atoms: O5*_1  and  C5*_2
REMARK    2  A    between atoms: C5*_2  and  C4*_3
REMARK    3  A    between atoms: C1*_5  and  N_6
REMARK    4  A    between atoms: C_9  and  C_10
REMARK    5  A    between atoms: N_11  and  O_12
REMARK    6  A    between atoms: C2*_21  and  O2*_22
REMARK    7  A    between atoms: C3*_23  and  O3*_24
REMARK                            x       y       z     vdW  Elec       q    Type
REMARK                         _______ _______ _______ _____ _____    ______ ____
ROOT
ATOM      1  N   UNL     1       3.681   5.221  18.540  0.00  0.00    +0.000 N 
ATOM      2  C   UNL     1       3.459   4.227  19.466  0.00  0.00    +0.000 A 
ATOM      3 CL   UNL     1       4.222   2.700  19.310  0.00  0.00    +0.000 Cl
ATOM      4  C   UNL     1       2.589   4.658  20.443  0.00  0.00    +0.000 A 
ATOM      5  C   UNL     1       2.245   6.002  20.096  0.00  0.00    +0.000 A 
ATOM      6  C   UNL     1       1.406   6.980  20.683  0.00  0.00    +0.000 A 
ATOM      7  C   UNL     1       1.260   8.241  20.095  0.00  0.00    +0.000 A 
ATOM      8 CL   UNL     1       0.219   9.377  20.878  0.00  0.00    +0.000 Cl
ATOM      9  C   UNL     1       1.945   8.546  18.925  0.00  0.00    +0.000 A 
ATOM     10 CL   UNL     1       1.811  10.081  18.137  0.00  0.00    +0.000 Cl
ATOM     11  C   UNL     1       2.787   7.598  18.334  0.00  0.00    +0.000 A 
ATOM     12  C   UNL     1       2.929   6.329  18.918  0.00  0.00    +0.000 A 
ENDROOT
BRANCH   1  15
ATOM     13  C4* UNL     1       6.723   4.495  16.758  0.00  0.00    +0.000 C 
ATOM     14  O4* UNL     1       5.554   4.097  17.518  0.00  0.00    +0.000 OA
ATOM     15  C1* UNL     1       4.530   5.106  17.347  0.00  0.00    +0.000 C 
ATOM     16  C2* UNL     1       5.252   6.397  16.967  0.00  0.00    +0.000 C 
ATOM     17  C3* UNL     1       6.435   5.873  16.165  0.00  0.00    +0.000 C 
BRANCH  16  18
ATOM     18  O2* UNL     1       4.454   7.275  16.177  0.00  0.00    +0.000 OA
ATOM     19  H2* UNL     1       3.965   7.852  16.807  0.00  0.00    +0.000 HD
ENDBRANCH  16  18
BRANCH  17  20
ATOM     20  O3* UNL     1       6.035   5.770  14.781  0.00  0.00    +0.000 OA
ATOM     21  H3* UNL     1       5.758   6.647  14.459  0.00  0.00    +0.000 HD
ENDBRANCH  17  20
BRANCH  13  22
ATOM     22  C5* UNL     1       7.986   4.433  17.626  0.00  0.00    +0.000 C 
BRANCH  22  23
ATOM     23  O5* UNL     1       7.733   4.846  18.965  0.00  0.00    +0.000 OA
ATOM     24  H5* UNL     1       6.994   4.305  19.300  0.00  0.00    +0.000 HD
ENDBRANCH  22  23
ENDBRANCH  13  22
ENDBRANCH   1  15
BRANCH   4  25
ATOM     25  C   UNL     1       2.139   3.867  21.574  0.00  0.00    +0.000 C 
ATOM     26  N   UNL     1       1.329   2.877  21.376  0.00  0.00    +0.000 NA
BRANCH  26  27
ATOM     27  O   UNL     1       1.032   2.264  22.599  0.00  0.00    +0.000 OA
ATOM     28  H   UNL     1       0.745   1.372  22.321  0.00  0.00    +0.000 HD
ENDBRANCH  26  27
ENDBRANCH   4  25
TORSDOF 7
ENDMDL
MODEL 8
REMARK VINA RESULT:      -6.1      4.465      6.779
REMARK  Name = 
REMARK  7 active torsions:
REMARK  status: ('A' for Active; 'I' for Inactive)
REMARK    1  A    between atoms: O5*_1  and  C5*_2
REMARK    2  A    between atoms: C5*_2  and  C4*_3
REMARK    3  A    between atoms: C1*_5  and  N_6
REMARK    4  A    between atoms: C_9  and  C_10
REMARK    5  A    between atoms: N_11  and  O_12
REMARK    6  A    between atoms: C2*_21  and  O2*_22
REMARK    7  A    between atoms: C3*_23  and  O3*_24
REMARK                            x       y       z     vdW  Elec       q    Type
REMARK                         _______ _______ _______ _____ _____    ______ ____
ROOT
ATOM      1  N   UNL     1       1.854   7.712  19.575  0.00  0.00    +0.000 N 
ATOM      2  C   UNL     1       2.534   8.169  18.468  0.00  0.00    +0.000 A 
ATOM      3 CL   UNL     1       2.319   9.775  17.911  0.00  0.00    +0.000 Cl
ATOM      4  C   UNL     1       3.337   7.177  17.949  0.00  0.00    +0.000 A 
ATOM      5  C   UNL     1       3.137   6.033  18.783  0.00  0.00    +0.000 A 
ATOM      6  C   UNL     1       3.661   4.717  18.780  0.00  0.00    +0.000 A 
ATOM      7  C   UNL     1       3.263   3.789  19.749  0.00  0.00    +0.000 A 
ATOM      8 CL   UNL     1       3.952   2.206  19.676  0.00  0.00    +0.000 Cl
ATOM      9  C   UNL     1       2.347   4.156  20.728  0.00  0.00    +0.000 A 
ATOM     10 CL   UNL     1       1.803   3.063  21.954  0.00  0.00    +0.000 Cl
ATOM     11  C   UNL     1       1.825   5.454  20.755  0.00  0.00    +0.000 A 
ATOM     12  C   UNL     1       2.218   6.384  19.779  0.00  0.00    +0.000 A 
ENDROOT
BRANCH   1  15
ATOM     13  C4* UNL     1      -0.388  10.455  20.212  0.00  0.00    +0.000 C 
ATOM     14  O4* UNL     1      -0.011   9.239  19.517  0.00  0.00    +0.000 OA
ATOM     15  C1* UNL     1       0.888   8.485  20.366  0.00  0.00    +0.000 C 
ATOM     16  C2* UNL     1       1.526   9.490  21.323  0.00  0.00    +0.000 C 
ATOM     17  C3* UNL     1       0.401  10.497  21.519  0.00  0.00    +0.000 C 
BRANCH  16  18
ATOM     18  O2* UNL     1       1.911   8.913  22.568  0.00  0.00    +0.000 OA
ATOM     19  H2* UNL     1       2.719   8.378  22.389  0.00  0.00    +0.000 HD
ENDBRANCH  16  18
BRANCH  17  20
ATOM     20  O3* UNL     1      -0.412  10.058  22.631  0.00  0.00    +0.000 OA
ATOM     21  H3* UNL     1      -1.020  10.776  22.888  0.00  0.00    +0.000 HD
ENDBRANCH  17  20
BRANCH  13  22
ATOM     22  C5* UNL     1      -0.185  11.683  19.314  0.00  0.00    +0.000 C 
BRANCH  22  23
ATOM     23  O5* UNL     1      -0.619  11.442  17.979  0.00  0.00    +0.000 OA
ATOM     24  H5* UNL     1      -1.556  11.705  17.927  0.00  0.00    +0.000 HD
ENDBRANCH  22  23
ENDBRANCH  13  22
ENDBRANCH   1  15
BRANCH   4  25
ATOM     25  C   UNL     1       4.193   7.316  16.784  0.00  0.00    +0.000 C 
ATOM     26  N   UNL     1       4.841   6.285  16.344  0.00  0.00    +0.000 NA
BRANCH  26  27
ATOM     27  O   UNL     1       5.596   6.651  15.224  0.00  0.00    +0.000 OA
ATOM     28  H   UNL     1       5.113   7.434  14.892  0.00  0.00    +0.000 HD
ENDBRANCH  26  27
ENDBRANCH   4  25
TORSDOF 7
ENDMDL
MODEL 9
REMARK VINA RESULT:      -6.1      3.103      4.127
REMARK  Name = 
REMARK  7 active torsions:
REMARK  status: ('A' for Active; 'I' for Inactive)
REMARK    1  A    between atoms: O5*_1  and  C5*_2
REMARK    2  A    between atoms: C5*_2  and  C4*_3
REMARK    3  A    between atoms: C1*_5  and  N_6
REMARK    4  A    between atoms: C_9  and  C_10
REMARK    5  A    between atoms: N_11  and  O_12
REMARK    6  A    between atoms: C2*_21  and  O2*_22
REMARK    7  A    between atoms: C3*_23  and  O3*_24
REMARK                            x       y       z     vdW  Elec       q    Type
REMARK                         _______ _______ _______ _____ _____    ______ ____
ROOT
ATOM      1  N   UNL     1       2.888   5.738  19.466  0.00  0.00    +0.000 N 
ATOM      2  C   UNL     1       2.336   6.997  19.542  0.00  0.00    +0.000 A 
ATOM      3 CL   UNL     1       1.320   7.429  20.852  0.00  0.00    +0.000 Cl
ATOM      4  C   UNL     1       2.723   7.762  18.463  0.00  0.00    +0.000 A 
ATOM      5  C   UNL     1       3.561   6.920  17.666  0.00  0.00    +0.000 A 
ATOM      6  C   UNL     1       4.260   7.108  16.449  0.00  0.00    +0.000 A 
ATOM      7  C   UNL     1       5.016   6.069  15.894  0.00  0.00    +0.000 A 
ATOM      8 CL   UNL     1       5.841   6.382  14.408  0.00  0.00    +0.000 Cl
ATOM      9  C   UNL     1       5.089   4.840  16.539  0.00  0.00    +0.000 A 
ATOM     10 CL   UNL     1       5.997   3.508  15.911  0.00  0.00    +0.000 Cl
ATOM     11  C   UNL     1       4.413   4.638  17.748  0.00  0.00    +0.000 A 
ATOM     12  C   UNL     1       3.648   5.676  18.303  0.00  0.00    +0.000 A 
ENDROOT
BRANCH   1  15
ATOM     13  C4* UNL     1       3.505   2.509  20.933  0.00  0.00    +0.000 C 
ATOM     14  O4* UNL     1       3.878   3.880  20.643  0.00  0.00    +0.000 OA
ATOM     15  C1* UNL     1       2.670   4.649  20.427  0.00  0.00    +0.000 C 
ATOM     16  C2* UNL     1       1.591   3.652  20.008  0.00  0.00    +0.000 C 
ATOM     17  C3* UNL     1       1.987   2.409  20.792  0.00  0.00    +0.000 C 
BRANCH  16  18
ATOM     18  O2* UNL     1       0.274   4.071  20.356  0.00  0.00    +0.000 OA
ATOM     19  H2* UNL     1       0.366   4.659  21.140  0.00  0.00    +0.000 HD
ENDBRANCH  16  18
BRANCH  17  20
ATOM     20  O3* UNL     1       1.341   2.461  22.083  0.00  0.00    +0.000 OA
ATOM     21  H3* UNL     1       1.244   3.391  22.358  0.00  0.00    +0.000 HD
ENDBRANCH  17  20
BRANCH  13  22
ATOM     22  C5* UNL     1       4.287   1.531  20.047  0.00  0.00    +0.000 C 
BRANCH  22  23
ATOM     23  O5* UNL     1       5.523   1.146  20.642  0.00  0.00    +0.000 OA
ATOM     24  H5* UNL     1       6.023   1.962  20.825  0.00  0.00    +0.000 HD
ENDBRANCH  22  23
ENDBRANCH  13  22
ENDBRANCH   1  15
BRANCH   4  25
ATOM     25  C   UNL     1       2.328   9.139  18.227  0.00  0.00    +0.000 C 
ATOM     26  N   UNL     1       1.075   9.421  18.063  0.00  0.00    +0.000 NA
BRANCH  26  27
ATOM     27  O   UNL     1       0.931  10.798  17.850  0.00  0.00    +0.000 OA
ATOM     28  H   UNL     1       0.070  10.986  18.274  0.00  0.00    +0.000 HD
ENDBRANCH  26  27
ENDBRANCH   4  25
TORSDOF 7
ENDMDL
