MODEL 1
REMARK VINA RESULT:      -8.3      0.000      0.000
REMARK  Name = 
REMARK  3 active torsions:
REMARK  status: ('A' for Active; 'I' for Inactive)
REMARK    1  A    between atoms: C_2  and  C_13
REMARK    2  A    between atoms: N_3  and  C_4
REMARK    3  A    between atoms: N_19  and  C_20
REMARK                            x       y       z     vdW  Elec       q    Type
REMARK                         _______ _______ _______ _____ _____    ______ ____
ROOT
ATOM      1  C   UNL     1       1.501   8.514  19.595  0.00  0.00    +0.000 A 
ATOM      2  N   UNL     1       1.076   9.801  19.342  0.00  0.00    +0.000 NA
ATOM      3  C   UNL     1       0.436  10.470  20.339  0.00  0.00    +0.000 A 
ATOM      4  N   UNL     1       0.094  11.792  20.168  0.00  0.00    +0.000 N 
ATOM      5  C   UNL     1      -0.076  12.731  21.290  0.00  0.00    +0.000 C 
ATOM      6  C   UNL     1       0.732  14.030  21.063  0.00  0.00    +0.000 C 
ATOM      7  N   UNL     1       0.415  14.584  19.740  0.00  0.00    +0.000 N 
ATOM      8  C   UNL     1       0.645  13.651  18.618  0.00  0.00    +0.000 C 
ATOM      9  C   UNL     1      -0.151  12.347  18.830  0.00  0.00    +0.000 C 
ATOM     10  C   UNL     1       0.141   9.828  21.541  0.00  0.00    +0.000 A 
ATOM     11  C   UNL     1       0.552   8.523  21.776  0.00  0.00    +0.000 A 
ATOM     12  C   UNL     1       1.268   7.850  20.800  0.00  0.00    +0.000 A 
ATOM     13 CL   UNL     1       1.733   6.232  21.177  0.00  0.00    +0.000 Cl
ENDROOT
BRANCH   7  14
ATOM     14  C   UNL     1       0.107  15.913  19.546  0.00  0.00    +0.000 A 
ATOM     15  C   UNL     1       0.204  16.859  20.569  0.00  0.00    +0.000 A 
ATOM     16  C   UNL     1      -0.143  18.182  20.322  0.00  0.00    +0.000 A 
ATOM     17  N   UNL     1      -0.593  18.631  19.134  0.00  0.00    +0.000 NA
ATOM     18  C   UNL     1      -0.695  17.718  18.154  0.00  0.00    +0.000 A 
ATOM     19  C   UNL     1      -0.355  16.376  18.311  0.00  0.00    +0.000 A 
ENDBRANCH   7  14
BRANCH   1  21
ATOM     20  O   UNL     1       2.311   8.377  17.382  0.00  0.00    +0.000 OA
ATOM     21  C   UNL     1       2.261   7.840  18.486  0.00  0.00    +0.000 C 
ATOM     22  N   UNL     1       2.825   6.608  18.789  0.00  0.00    +0.000 N 
ATOM     23  H   UNL     1       2.553   6.203  19.679  0.00  0.00    +0.000 HD
BRANCH  22  24
ATOM     24  C   UNL     1       3.608   5.825  17.898  0.00  0.00    +0.000 A 
ATOM     25  C   UNL     1       3.251   4.512  17.524  0.00  0.00    +0.000 A 
ATOM     26  C   UNL     1       4.056   3.742  16.676  0.00  0.00    +0.000 A 
ATOM     27  C   UNL     1       5.221   4.301  16.193  0.00  0.00    +0.000 A 
ATOM     28  C   UNL     1       5.590   5.602  16.549  0.00  0.00    +0.000 A 
ATOM     29  C   UNL     1       4.787   6.379  17.383  0.00  0.00    +0.000 A 
ATOM     30  C   UNL     1       6.939   5.928  15.982  0.00  0.00    +0.000 C 
ATOM     31  C   UNL     1       7.048   4.889  14.856  0.00  0.00    +0.000 C 
ATOM     32  C   UNL     1       6.253   3.660  15.320  0.00  0.00    +0.000 C 
ENDBRANCH  22  24
ENDBRANCH   1  21
TORSDOF 3
ENDMDL
MODEL 2
REMARK VINA RESULT:      -8.2      2.146      3.902
REMARK  Name = 
REMARK  3 active torsions:
REMARK  status: ('A' for Active; 'I' for Inactive)
REMARK    1  A    between atoms: C_2  and  C_13
REMARK    2  A    between atoms: N_3  and  C_4
REMARK    3  A    between atoms: N_19  and  C_20
REMARK                            x       y       z     vdW  Elec       q    Type
REMARK                         _______ _______ _______ _____ _____    ______ ____
ROOT
ATOM      1  C   UNL     1       3.620   5.444  19.095  0.00  0.00    +0.000 A 
ATOM      2  N   UNL     1       2.936   6.639  19.033  0.00  0.00    +0.000 NA
ATOM      3  C   UNL     1       1.960   6.865  19.952  0.00  0.00    +0.000 A 
ATOM      4  N   UNL     1       1.329   8.087  19.997  0.00  0.00    +0.000 N 
ATOM      5  C   UNL     1       0.701   8.625  21.216  0.00  0.00    +0.000 C 
ATOM      6  C   UNL     1       1.174  10.070  21.501  0.00  0.00    +0.000 C 
ATOM      7  N   UNL     1       0.995  10.895  20.298  0.00  0.00    +0.000 N 
ATOM      8  C   UNL     1       1.677  10.373  19.096  0.00  0.00    +0.000 C 
ATOM      9  C   UNL     1       1.219   8.930  18.799  0.00  0.00    +0.000 C 
ATOM     10  C   UNL     1       1.607   5.870  20.864  0.00  0.00    +0.000 A 
ATOM     11  C   UNL     1       2.287   4.660  20.901  0.00  0.00    +0.000 A 
ATOM     12  C   UNL     1       3.331   4.439  20.019  0.00  0.00    +0.000 A 
ATOM     13 CL   UNL     1       4.115   2.907  20.135  0.00  0.00    +0.000 Cl
ENDROOT
BRANCH   7  14
ATOM     14  C   UNL     1       0.399  12.136  20.331  0.00  0.00    +0.000 A 
ATOM     15  C   UNL     1      -0.107  12.690  21.509  0.00  0.00    +0.000 A 
ATOM     16  C   UNL     1      -0.721  13.937  21.479  0.00  0.00    +0.000 A 
ATOM     17  N   UNL     1      -0.879  14.668  20.358  0.00  0.00    +0.000 NA
ATOM     18  C   UNL     1      -0.401  14.130  19.225  0.00  0.00    +0.000 A 
ATOM     19  C   UNL     1       0.240  12.894  19.168  0.00  0.00    +0.000 A 
ENDBRANCH   7  14
BRANCH   1  21
ATOM     20  O   UNL     1       5.898   5.314  18.486  0.00  0.00    +0.000 OA
ATOM     21  C   UNL     1       4.733   5.269  18.098  0.00  0.00    +0.000 C 
ATOM     22  N   UNL     1       4.351   5.111  16.773  0.00  0.00    +0.000 N 
ATOM     23  H   UNL     1       3.369   5.275  16.572  0.00  0.00    +0.000 HD
BRANCH  22  24
ATOM     24  C   UNL     1       5.239   4.899  15.684  0.00  0.00    +0.000 A 
ATOM     25  C   UNL     1       6.533   5.458  15.637  0.00  0.00    +0.000 A 
ATOM     26  C   UNL     1       7.379   5.269  14.537  0.00  0.00    +0.000 A 
ATOM     27  C   UNL     1       6.922   4.504  13.484  0.00  0.00    +0.000 A 
ATOM     28  C   UNL     1       5.643   3.939  13.513  0.00  0.00    +0.000 A 
ATOM     29  C   UNL     1       4.800   4.112  14.610  0.00  0.00    +0.000 A 
ATOM     30  C   UNL     1       5.353   3.253  12.212  0.00  0.00    +0.000 C 
ATOM     31  C   UNL     1       6.773   3.043  11.663  0.00  0.00    +0.000 C 
ATOM     32  C   UNL     1       7.621   4.207  12.195  0.00  0.00    +0.000 C 
ENDBRANCH  22  24
ENDBRANCH   1  21
TORSDOF 3
ENDMDL
MODEL 3
REMARK VINA RESULT:      -8.2      2.352      4.023
REMARK  Name = 
REMARK  3 active torsions:
REMARK  status: ('A' for Active; 'I' for Inactive)
REMARK    1  A    between atoms: C_2  and  C_13
REMARK    2  A    between atoms: N_3  and  C_4
REMARK    3  A    between atoms: N_19  and  C_20
REMARK                            x       y       z     vdW  Elec       q    Type
REMARK                         _______ _______ _______ _____ _____    ______ ____
ROOT
ATOM      1  C   UNL     1       3.365   5.974  18.724  0.00  0.00    +0.000 A 
ATOM      2  N   UNL     1       2.606   7.095  18.986  0.00  0.00    +0.000 NA
ATOM      3  C   UNL     1       1.825   7.091  20.099  0.00  0.00    +0.000 A 
ATOM      4  N   UNL     1       1.139   8.229  20.458  0.00  0.00    +0.000 N 
ATOM      5  C   UNL     1       0.739   8.523  21.845  0.00  0.00    +0.000 C 
ATOM      6  C   UNL     1       1.165   9.951  22.262  0.00  0.00    +0.000 C 
ATOM      7  N   UNL     1       0.692  10.919  21.264  0.00  0.00    +0.000 N 
ATOM      8  C   UNL     1       1.148  10.643  19.885  0.00  0.00    +0.000 C 
ATOM      9  C   UNL     1       0.733   9.221  19.454  0.00  0.00    +0.000 C 
ATOM     10  C   UNL     1       1.730   5.947  20.890  0.00  0.00    +0.000 A 
ATOM     11  C   UNL     1       2.481   4.814  20.602  0.00  0.00    +0.000 A 
ATOM     12  C   UNL     1       3.336   4.824  19.514  0.00  0.00    +0.000 A 
ATOM     13 CL   UNL     1       4.224   3.372  19.231  0.00  0.00    +0.000 Cl
ENDROOT
BRANCH   7  14
ATOM     14  C   UNL     1       0.036  12.080  21.608  0.00  0.00    +0.000 A 
ATOM     15  C   UNL     1       0.504  13.342  21.234  0.00  0.00    +0.000 A 
ATOM     16  C   UNL     1      -0.186  14.481  21.630  0.00  0.00    +0.000 A 
ATOM     17  N   UNL     1      -1.303  14.458  22.383  0.00  0.00    +0.000 NA
ATOM     18  C   UNL     1      -1.747  13.245  22.750  0.00  0.00    +0.000 A 
ATOM     19  C   UNL     1      -1.125  12.053  22.385  0.00  0.00    +0.000 A 
ENDBRANCH   7  14
BRANCH   1  21
ATOM     20  O   UNL     1       4.700   7.143  17.167  0.00  0.00    +0.000 OA
ATOM     21  C   UNL     1       4.261   6.051  17.519  0.00  0.00    +0.000 C 
ATOM     22  N   UNL     1       4.495   4.856  16.851  0.00  0.00    +0.000 N 
ATOM     23  H   UNL     1       3.928   4.067  17.142  0.00  0.00    +0.000 HD
BRANCH  22  24
ATOM     24  C   UNL     1       5.335   4.704  15.715  0.00  0.00    +0.000 A 
ATOM     25  C   UNL     1       6.630   5.259  15.645  0.00  0.00    +0.000 A 
ATOM     26  C   UNL     1       7.427   5.130  14.501  0.00  0.00    +0.000 A 
ATOM     27  C   UNL     1       6.921   4.431  13.425  0.00  0.00    +0.000 A 
ATOM     28  C   UNL     1       5.641   3.870  13.477  0.00  0.00    +0.000 A 
ATOM     29  C   UNL     1       4.846   3.982  14.617  0.00  0.00    +0.000 A 
ATOM     30  C   UNL     1       5.292   3.262  12.152  0.00  0.00    +0.000 C 
ATOM     31  C   UNL     1       6.685   3.078  11.532  0.00  0.00    +0.000 C 
ATOM     32  C   UNL     1       7.563   4.206  12.093  0.00  0.00    +0.000 C 
ENDBRANCH  22  24
ENDBRANCH   1  21
TORSDOF 3
ENDMDL
MODEL 4
REMARK VINA RESULT:      -8.1      4.092      5.493
REMARK  Name = 
REMARK  3 active torsions:
REMARK  status: ('A' for Active; 'I' for Inactive)
REMARK    1  A    between atoms: C_2  and  C_13
REMARK    2  A    between atoms: N_3  and  C_4
REMARK    3  A    between atoms: N_19  and  C_20
REMARK                            x       y       z     vdW  Elec       q    Type
REMARK                         _______ _______ _______ _____ _____    ______ ____
ROOT
ATOM      1  C   UNL     1       0.660  11.524  19.281  0.00  0.00    +0.000 A 
ATOM      2  N   UNL     1      -0.400  11.783  20.125  0.00  0.00    +0.000 NA
ATOM      3  C   UNL     1      -0.626  13.074  20.487  0.00  0.00    +0.000 A 
ATOM      4  N   UNL     1      -1.736  13.390  21.236  0.00  0.00    +0.000 N 
ATOM      5  C   UNL     1      -2.367  14.722  21.218  0.00  0.00    +0.000 C 
ATOM      6  C   UNL     1      -3.891  14.619  20.979  0.00  0.00    +0.000 C 
ATOM      7  N   UNL     1      -4.479  13.670  21.934  0.00  0.00    +0.000 N 
ATOM      8  C   UNL     1      -3.876  12.322  21.901  0.00  0.00    +0.000 C 
ATOM      9  C   UNL     1      -2.353  12.406  22.135  0.00  0.00    +0.000 C 
ATOM     10  C   UNL     1       0.251  14.082  20.088  0.00  0.00    +0.000 A 
ATOM     11  C   UNL     1       1.329  13.806  19.259  0.00  0.00    +0.000 A 
ATOM     12  C   UNL     1       1.535  12.509  18.820  0.00  0.00    +0.000 A 
ATOM     13 CL   UNL     1       2.901  12.259  17.797  0.00  0.00    +0.000 Cl
ENDROOT
BRANCH   7  14
ATOM     14  C   UNL     1      -5.611  13.957  22.664  0.00  0.00    +0.000 A 
ATOM     15  C   UNL     1      -5.949  15.260  23.037  0.00  0.00    +0.000 A 
ATOM     16  C   UNL     1      -7.091  15.488  23.795  0.00  0.00    +0.000 A 
ATOM     17  N   UNL     1      -7.917  14.511  24.221  0.00  0.00    +0.000 NA
ATOM     18  C   UNL     1      -7.585  13.258  23.870  0.00  0.00    +0.000 A 
ATOM     19  C   UNL     1      -6.467  12.943  23.101  0.00  0.00    +0.000 A 
ENDBRANCH   7  14
BRANCH   1  21
ATOM     20  O   UNL     1       0.138   9.651  17.942  0.00  0.00    +0.000 OA
ATOM     21  C   UNL     1       0.830  10.091  18.856  0.00  0.00    +0.000 C 
ATOM     22  N   UNL     1       1.749   9.342  19.580  0.00  0.00    +0.000 N 
ATOM     23  H   UNL     1       2.114   9.779  20.420  0.00  0.00    +0.000 HD
BRANCH  22  24
ATOM     24  C   UNL     1       2.083   7.985  19.322  0.00  0.00    +0.000 A 
ATOM     25  C   UNL     1       2.700   7.567  18.124  0.00  0.00    +0.000 A 
ATOM     26  C   UNL     1       2.987   6.220  17.873  0.00  0.00    +0.000 A 
ATOM     27  C   UNL     1       2.659   5.290  18.838  0.00  0.00    +0.000 A 
ATOM     28  C   UNL     1       2.050   5.685  20.034  0.00  0.00    +0.000 A 
ATOM     29  C   UNL     1       1.774   7.026  20.296  0.00  0.00    +0.000 A 
ATOM     30  C   UNL     1       1.703   4.482  20.857  0.00  0.00    +0.000 C 
ATOM     31  C   UNL     1       2.639   3.425  20.250  0.00  0.00    +0.000 C 
ATOM     32  C   UNL     1       2.823   3.804  18.774  0.00  0.00    +0.000 C 
ENDBRANCH  22  24
ENDBRANCH   1  21
TORSDOF 3
ENDMDL
MODEL 5
REMARK VINA RESULT:      -8.0      6.007      9.046
REMARK  Name = 
REMARK  3 active torsions:
REMARK  status: ('A' for Active; 'I' for Inactive)
REMARK    1  A    between atoms: C_2  and  C_13
REMARK    2  A    between atoms: N_3  and  C_4
REMARK    3  A    between atoms: N_19  and  C_20
REMARK                            x       y       z     vdW  Elec       q    Type
REMARK                         _______ _______ _______ _____ _____    ______ ____
ROOT
ATOM      1  C   UNL     1       2.494  14.529  20.192  0.00  0.00    +0.000 A 
ATOM      2  N   UNL     1       3.717  14.623  19.561  0.00  0.00    +0.000 NA
ATOM      3  C   UNL     1       4.757  15.150  20.260  0.00  0.00    +0.000 A 
ATOM      4  N   UNL     1       6.018  15.160  19.709  0.00  0.00    +0.000 N 
ATOM      5  C   UNL     1       7.250  15.177  20.517  0.00  0.00    +0.000 C 
ATOM      6  C   UNL     1       8.234  14.073  20.063  0.00  0.00    +0.000 C 
ATOM      7  N   UNL     1       8.446  14.165  18.613  0.00  0.00    +0.000 N 
ATOM      8  C   UNL     1       7.207  14.090  17.811  0.00  0.00    +0.000 C 
ATOM      9  C   UNL     1       6.212  15.183  18.253  0.00  0.00    +0.000 C 
ATOM     10  C   UNL     1       4.557  15.665  21.541  0.00  0.00    +0.000 A 
ATOM     11  C   UNL     1       3.316  15.587  22.157  0.00  0.00    +0.000 A 
ATOM     12  C   UNL     1       2.261  14.989  21.489  0.00  0.00    +0.000 A 
ATOM     13 CL   UNL     1       0.756  14.942  22.330  0.00  0.00    +0.000 Cl
ENDROOT
BRANCH   7  14
ATOM     14  C   UNL     1       9.699  14.140  18.042  0.00  0.00    +0.000 A 
ATOM     15  C   UNL     1      10.286  12.959  17.582  0.00  0.00    +0.000 A 
ATOM     16  C   UNL     1      11.564  12.988  17.036  0.00  0.00    +0.000 A 
ATOM     17  N   UNL     1      12.308  14.107  16.926  0.00  0.00    +0.000 NA
ATOM     18  C   UNL     1      11.746  15.240  17.378  0.00  0.00    +0.000 A 
ATOM     19  C   UNL     1      10.466  15.302  17.925  0.00  0.00    +0.000 A 
ENDBRANCH   7  14
BRANCH   1  21
ATOM     20  O   UNL     1       0.858  14.507  18.490  0.00  0.00    +0.000 OA
ATOM     21  C   UNL     1       1.392  13.880  19.402  0.00  0.00    +0.000 C 
ATOM     22  N   UNL     1       1.021  12.603  19.801  0.00  0.00    +0.000 N 
ATOM     23  H   UNL     1       1.419  12.279  20.677  0.00  0.00    +0.000 HD
BRANCH  22  24
ATOM     24  C   UNL     1       0.030  11.803  19.171  0.00  0.00    +0.000 A 
ATOM     25  C   UNL     1       0.336  10.608  18.486  0.00  0.00    +0.000 A 
ATOM     26  C   UNL     1      -0.650   9.855  17.839  0.00  0.00    +0.000 A 
ATOM     27  C   UNL     1      -1.954  10.302  17.890  0.00  0.00    +0.000 A 
ATOM     28  C   UNL     1      -2.279  11.482  18.567  0.00  0.00    +0.000 A 
ATOM     29  C   UNL     1      -1.304  12.231  19.224  0.00  0.00    +0.000 A 
ATOM     30  C   UNL     1      -3.732  11.799  18.381  0.00  0.00    +0.000 C 
ATOM     31  C   UNL     1      -4.288  10.423  17.981  0.00  0.00    +0.000 C 
ATOM     32  C   UNL     1      -3.158   9.696  17.239  0.00  0.00    +0.000 C 
ENDBRANCH  22  24
ENDBRANCH   1  21
TORSDOF 3
ENDMDL
MODEL 6
REMARK VINA RESULT:      -7.9      4.001      5.310
REMARK  Name = 
REMARK  3 active torsions:
REMARK  status: ('A' for Active; 'I' for Inactive)
REMARK    1  A    between atoms: C_2  and  C_13
REMARK    2  A    between atoms: N_3  and  C_4
REMARK    3  A    between atoms: N_19  and  C_20
REMARK                            x       y       z     vdW  Elec       q    Type
REMARK                         _______ _______ _______ _____ _____    ______ ____
ROOT
ATOM      1  C   UNL     1       0.713  11.474  19.353  0.00  0.00    +0.000 A 
ATOM      2  N   UNL     1      -0.340  11.739  20.202  0.00  0.00    +0.000 NA
ATOM      3  C   UNL     1      -0.596  13.036  20.517  0.00  0.00    +0.000 A 
ATOM      4  N   UNL     1      -1.703  13.354  21.271  0.00  0.00    +0.000 N 
ATOM      5  C   UNL     1      -2.368  14.666  21.210  0.00  0.00    +0.000 C 
ATOM      6  C   UNL     1      -3.893  14.514  20.999  0.00  0.00    +0.000 C 
ATOM      7  N   UNL     1      -4.441  13.590  22.000  0.00  0.00    +0.000 N 
ATOM      8  C   UNL     1      -3.802  12.257  22.011  0.00  0.00    +0.000 C 
ATOM      9  C   UNL     1      -2.279  12.391  22.218  0.00  0.00    +0.000 C 
ATOM     10  C   UNL     1       0.248  14.050  20.064  0.00  0.00    +0.000 A 
ATOM     11  C   UNL     1       1.321  13.769  19.229  0.00  0.00    +0.000 A 
ATOM     12  C   UNL     1       1.554  12.461  18.839  0.00  0.00    +0.000 A 
ATOM     13 CL   UNL     1       2.911  12.206  17.805  0.00  0.00    +0.000 Cl
ENDROOT
BRANCH   7  14
ATOM     14  C   UNL     1      -5.569  13.876  22.737  0.00  0.00    +0.000 A 
ATOM     15  C   UNL     1      -6.473  12.888  23.133  0.00  0.00    +0.000 A 
ATOM     16  C   UNL     1      -7.608  13.238  23.855  0.00  0.00    +0.000 A 
ATOM     17  N   UNL     1      -7.917  14.503  24.201  0.00  0.00    +0.000 NA
ATOM     18  C   UNL     1      -7.052  15.454  23.811  0.00  0.00    +0.000 A 
ATOM     19  C   UNL     1      -5.884  15.189  23.098  0.00  0.00    +0.000 A 
ENDBRANCH   7  14
BRANCH   1  21
ATOM     20  O   UNL     1       0.507   9.626  17.896  0.00  0.00    +0.000 OA
ATOM     21  C   UNL     1       0.915  10.030  18.983  0.00  0.00    +0.000 C 
ATOM     22  N   UNL     1       1.523   9.230  19.942  0.00  0.00    +0.000 N 
ATOM     23  H   UNL     1       1.642   9.650  20.858  0.00  0.00    +0.000 HD
BRANCH  22  24
ATOM     24  C   UNL     1       1.835   7.853  19.781  0.00  0.00    +0.000 A 
ATOM     25  C   UNL     1       1.453   6.871  20.720  0.00  0.00    +0.000 A 
ATOM     26  C   UNL     1       1.804   5.525  20.563  0.00  0.00    +0.000 A 
ATOM     27  C   UNL     1       2.534   5.164  19.450  0.00  0.00    +0.000 A 
ATOM     28  C   UNL     1       2.918   6.122  18.506  0.00  0.00    +0.000 A 
ATOM     29  C   UNL     1       2.562   7.462  18.649  0.00  0.00    +0.000 A 
ATOM     30  C   UNL     1       3.787   5.493  17.459  0.00  0.00    +0.000 C 
ATOM     31  C   UNL     1       3.421   4.010  17.619  0.00  0.00    +0.000 C 
ATOM     32  C   UNL     1       3.059   3.808  19.097  0.00  0.00    +0.000 C 
ENDBRANCH  22  24
ENDBRANCH   1  21
TORSDOF 3
ENDMDL
MODEL 7
REMARK VINA RESULT:      -7.8      4.087      5.158
REMARK  Name = 
REMARK  3 active torsions:
REMARK  status: ('A' for Active; 'I' for Inactive)
REMARK    1  A    between atoms: C_2  and  C_13
REMARK    2  A    between atoms: N_3  and  C_4
REMARK    3  A    between atoms: N_19  and  C_20
REMARK                            x       y       z     vdW  Elec       q    Type
REMARK                         _______ _______ _______ _____ _____    ______ ____
ROOT
ATOM      1  C   UNL     1       1.262  11.125  18.571  0.00  0.00    +0.000 A 
ATOM      2  N   UNL     1       2.244  12.086  18.457  0.00  0.00    +0.000 NA
ATOM      3  C   UNL     1       1.920  13.370  18.767  0.00  0.00    +0.000 A 
ATOM      4  N   UNL     1       2.895  14.341  18.774  0.00  0.00    +0.000 N 
ATOM      5  C   UNL     1       2.805  15.566  19.585  0.00  0.00    +0.000 C 
ATOM      6  C   UNL     1       4.094  15.791  20.410  0.00  0.00    +0.000 C 
ATOM      7  N   UNL     1       5.265  15.720  19.527  0.00  0.00    +0.000 N 
ATOM      8  C   UNL     1       5.374  14.460  18.761  0.00  0.00    +0.000 C 
ATOM      9  C   UNL     1       4.094  14.220  17.934  0.00  0.00    +0.000 C 
ATOM     10  C   UNL     1       0.607  13.705  19.097  0.00  0.00    +0.000 A 
ATOM     11  C   UNL     1      -0.380  12.732  19.185  0.00  0.00    +0.000 A 
ATOM     12  C   UNL     1      -0.053  11.409  18.943  0.00  0.00    +0.000 A 
ATOM     13 CL   UNL     1      -1.343  10.270  19.071  0.00  0.00    +0.000 Cl
ENDROOT
BRANCH   7  14
ATOM     14  C   UNL     1       6.269  16.663  19.547  0.00  0.00    +0.000 A 
ATOM     15  C   UNL     1       6.341  17.655  20.527  0.00  0.00    +0.000 A 
ATOM     16  C   UNL     1       7.363  18.596  20.484  0.00  0.00    +0.000 A 
ATOM     17  N   UNL     1       8.312  18.631  19.527  0.00  0.00    +0.000 NA
ATOM     18  C   UNL     1       8.235  17.682  18.580  0.00  0.00    +0.000 A 
ATOM     19  C   UNL     1       7.254  16.694  18.556  0.00  0.00    +0.000 A 
ENDBRANCH   7  14
BRANCH   1  21
ATOM     20  O   UNL     1       1.851   9.363  17.114  0.00  0.00    +0.000 OA
ATOM     21  C   UNL     1       1.686   9.712  18.280  0.00  0.00    +0.000 C 
ATOM     22  N   UNL     1       1.818   8.872  19.379  0.00  0.00    +0.000 N 
ATOM     23  H   UNL     1       1.476   9.240  20.261  0.00  0.00    +0.000 HD
BRANCH  22  24
ATOM     24  C   UNL     1       2.239   7.516  19.327  0.00  0.00    +0.000 A 
ATOM     25  C   UNL     1       3.152   7.038  18.364  0.00  0.00    +0.000 A 
ATOM     26  C   UNL     1       3.525   5.689  18.306  0.00  0.00    +0.000 A 
ATOM     27  C   UNL     1       2.982   4.820  19.230  0.00  0.00    +0.000 A 
ATOM     28  C   UNL     1       2.078   5.275  20.195  0.00  0.00    +0.000 A 
ATOM     29  C   UNL     1       1.712   6.619  20.267  0.00  0.00    +0.000 A 
ATOM     30  C   UNL     1       1.559   4.122  20.999  0.00  0.00    +0.000 C 
ATOM     31  C   UNL     1       2.644   3.066  20.739  0.00  0.00    +0.000 C 
ATOM     32  C   UNL     1       3.192   3.342  19.332  0.00  0.00    +0.000 C 
ENDBRANCH  22  24
ENDBRANCH   1  21
TORSDOF 3
ENDMDL
MODEL 8
REMARK VINA RESULT:      -7.7      4.133      5.488
REMARK  Name = 
REMARK  3 active torsions:
REMARK  status: ('A' for Active; 'I' for Inactive)
REMARK    1  A    between atoms: C_2  and  C_13
REMARK    2  A    between atoms: N_3  and  C_4
REMARK    3  A    between atoms: N_19  and  C_20
REMARK                            x       y       z     vdW  Elec       q    Type
REMARK                         _______ _______ _______ _____ _____    ______ ____
ROOT
ATOM      1  C   UNL     1       0.793  10.365  19.988  0.00  0.00    +0.000 A 
ATOM      2  N   UNL     1      -0.164  10.960  20.783  0.00  0.00    +0.000 NA
ATOM      3  C   UNL     1      -0.697  12.139  20.365  0.00  0.00    +0.000 A 
ATOM      4  N   UNL     1      -1.732  12.711  21.069  0.00  0.00    +0.000 N 
ATOM      5  C   UNL     1      -2.714  13.623  20.458  0.00  0.00    +0.000 C 
ATOM      6  C   UNL     1      -4.163  13.190  20.782  0.00  0.00    +0.000 C 
ATOM      7  N   UNL     1      -4.310  13.005  22.231  0.00  0.00    +0.000 N 
ATOM      8  C   UNL     1      -3.357  12.043  22.822  0.00  0.00    +0.000 C 
ATOM      9  C   UNL     1      -1.906  12.459  22.506  0.00  0.00    +0.000 C 
ATOM     10  C   UNL     1      -0.213  12.763  19.216  0.00  0.00    +0.000 A 
ATOM     11  C   UNL     1       0.769  12.166  18.437  0.00  0.00    +0.000 A 
ATOM     12  C   UNL     1       1.274  10.931  18.807  0.00  0.00    +0.000 A 
ATOM     13 CL   UNL     1       2.493  10.268  17.783  0.00  0.00    +0.000 Cl
ENDROOT
BRANCH   7  14
ATOM     14  C   UNL     1      -5.361  13.539  22.945  0.00  0.00    +0.000 A 
ATOM     15  C   UNL     1      -6.386  12.749  23.469  0.00  0.00    +0.000 A 
ATOM     16  C   UNL     1      -7.434  13.345  24.160  0.00  0.00    +0.000 A 
ATOM     17  N   UNL     1      -7.543  14.674  24.358  0.00  0.00    +0.000 NA
ATOM     18  C   UNL     1      -6.561  15.433  23.846  0.00  0.00    +0.000 A 
ATOM     19  C   UNL     1      -5.469  14.917  23.152  0.00  0.00    +0.000 A 
ENDBRANCH   7  14
BRANCH   1  21
ATOM     20  O   UNL     1       1.323   8.787  21.663  0.00  0.00    +0.000 OA
ATOM     21  C   UNL     1       1.305   9.031  20.460  0.00  0.00    +0.000 C 
ATOM     22  N   UNL     1       1.772   8.170  19.475  0.00  0.00    +0.000 N 
ATOM     23  H   UNL     1       1.866   8.569  18.546  0.00  0.00    +0.000 HD
BRANCH  22  24
ATOM     24  C   UNL     1       2.264   6.857  19.701  0.00  0.00    +0.000 A 
ATOM     25  C   UNL     1       3.523   6.423  19.234  0.00  0.00    +0.000 A 
ATOM     26  C   UNL     1       3.973   5.113  19.434  0.00  0.00    +0.000 A 
ATOM     27  C   UNL     1       3.155   4.237  20.117  0.00  0.00    +0.000 A 
ATOM     28  C   UNL     1       1.906   4.648  20.592  0.00  0.00    +0.000 A 
ATOM     29  C   UNL     1       1.456   5.955  20.408  0.00  0.00    +0.000 A 
ATOM     30  C   UNL     1       1.177   3.487  21.198  0.00  0.00    +0.000 C 
ATOM     31  C   UNL     1       2.339   2.523  21.484  0.00  0.00    +0.000 C 
ATOM     32  C   UNL     1       3.400   2.790  20.407  0.00  0.00    +0.000 C 
ENDBRANCH  22  24
ENDBRANCH   1  21
TORSDOF 3
ENDMDL
MODEL 9
REMARK VINA RESULT:      -7.7      2.532     10.355
REMARK  Name = 
REMARK  3 active torsions:
REMARK  status: ('A' for Active; 'I' for Inactive)
REMARK    1  A    between atoms: C_2  and  C_13
REMARK    2  A    between atoms: N_3  and  C_4
REMARK    3  A    between atoms: N_19  and  C_20
REMARK                            x       y       z     vdW  Elec       q    Type
REMARK                         _______ _______ _______ _____ _____    ______ ____
ROOT
ATOM      1  C   UNL     1       0.326  11.107  20.675  0.00  0.00    +0.000 A 
ATOM      2  N   UNL     1       1.014   9.989  20.251  0.00  0.00    +0.000 NA
ATOM      3  C   UNL     1       1.031   8.903  21.068  0.00  0.00    +0.000 A 
ATOM      4  N   UNL     1       1.610   7.731  20.638  0.00  0.00    +0.000 N 
ATOM      5  C   UNL     1       1.225   6.406  21.154  0.00  0.00    +0.000 C 
ATOM      6  C   UNL     1       0.926   5.419  20.001  0.00  0.00    +0.000 C 
ATOM      7  N   UNL     1       2.048   5.410  19.054  0.00  0.00    +0.000 N 
ATOM      8  C   UNL     1       2.387   6.738  18.500  0.00  0.00    +0.000 C 
ATOM      9  C   UNL     1       2.686   7.736  19.637  0.00  0.00    +0.000 C 
ATOM     10  C   UNL     1       0.450   8.963  22.334  0.00  0.00    +0.000 A 
ATOM     11  C   UNL     1      -0.219  10.103  22.761  0.00  0.00    +0.000 A 
ATOM     12  C   UNL     1      -0.309  11.195  21.914  0.00  0.00    +0.000 A 
ATOM     13 CL   UNL     1      -1.154  12.567  22.530  0.00  0.00    +0.000 Cl
ENDROOT
BRANCH   7  14
ATOM     14  C   UNL     1       2.615   4.246  18.584  0.00  0.00    +0.000 A 
ATOM     15  C   UNL     1       2.229   2.987  19.050  0.00  0.00    +0.000 A 
ATOM     16  C   UNL     1       2.853   1.846  18.558  0.00  0.00    +0.000 A 
ATOM     17  N   UNL     1       3.843   1.868  17.643  0.00  0.00    +0.000 NA
ATOM     18  C   UNL     1       4.219   3.079  17.203  0.00  0.00    +0.000 A 
ATOM     19  C   UNL     1       3.638   4.270  17.633  0.00  0.00    +0.000 A 
ENDBRANCH   7  14
BRANCH   1  21
ATOM     20  O   UNL     1      -0.322  12.127  18.647  0.00  0.00    +0.000 OA
ATOM     21  C   UNL     1       0.281  12.259  19.709  0.00  0.00    +0.000 C 
ATOM     22  N   UNL     1       0.980  13.400  20.081  0.00  0.00    +0.000 N 
ATOM     23  H   UNL     1       1.579  13.307  20.896  0.00  0.00    +0.000 HD
BRANCH  22  24
ATOM     24  C   UNL     1       1.038  14.606  19.332  0.00  0.00    +0.000 A 
ATOM     25  C   UNL     1       2.227  15.077  18.737  0.00  0.00    +0.000 A 
ATOM     26  C   UNL     1       2.272  16.288  18.035  0.00  0.00    +0.000 A 
ATOM     27  C   UNL     1       1.110  17.023  17.923  0.00  0.00    +0.000 A 
ATOM     28  C   UNL     1      -0.081  16.571  18.503  0.00  0.00    +0.000 A 
ATOM     29  C   UNL     1      -0.136  15.360  19.192  0.00  0.00    +0.000 A 
ATOM     30  C   UNL     1      -1.159  17.597  18.330  0.00  0.00    +0.000 C 
ATOM     31  C   UNL     1      -0.603  18.419  17.158  0.00  0.00    +0.000 C 
ATOM     32  C   UNL     1       0.926  18.356  17.269  0.00  0.00    +0.000 C 
ENDBRANCH  22  24
ENDBRANCH   1  21
TORSDOF 3
ENDMDL
