MODEL 1
REMARK VINA RESULT:      -7.7      0.000      0.000
REMARK  Name = 
REMARK  3 active torsions:
REMARK  status: ('A' for Active; 'I' for Inactive)
REMARK    1  A    between atoms: C_1  and  N_2
REMARK    2  A    between atoms: N_8  and  C_9
REMARK    3  A    between atoms: C_21  and  C_22
REMARK                            x       y       z     vdW  Elec       q    Type
REMARK                         _______ _______ _______ _____ _____    ______ ____
ROOT
ATOM      1  C   UNL     1       7.230   3.145  11.242  0.00  0.00    +0.000 C 
ATOM      2  N   UNL     1       6.750   3.641  12.513  0.00  0.00    +0.000 N 
ATOM      3  C   UNL     1       7.135   4.822  13.100  0.00  0.00    +0.000 A 
ATOM      4  C   UNL     1       6.600   4.754  14.351  0.00  0.00    +0.000 A 
ATOM      5  C   UNL     1       5.861   3.574  14.423  0.00  0.00    +0.000 A 
ATOM      6  N   UNL     1       5.176   3.146  15.579  0.00  0.00    +0.000 NA
ATOM      7  C   UNL     1       5.323   3.889  16.675  0.00  0.00    +0.000 A 
ATOM      8  N   UNL     1       4.655   3.422  17.798  0.00  0.00    +0.000 N 
ATOM      9  N   UNL     1       6.124   5.064  16.676  0.00  0.00    +0.000 N 
ATOM     10  N   UNL     1       6.477   5.814  17.743  0.00  0.00    +0.000 NA
ATOM     11  C   UNL     1       7.223   6.770  17.155  0.00  0.00    +0.000 A 
ATOM     12  N   UNL     1       7.362   6.663  15.787  0.00  0.00    +0.000 NA
ATOM     13  C   UNL     1       6.720   5.555  15.545  0.00  0.00    +0.000 A 
ATOM     14  N   UNL     1       5.935   2.879  13.281  0.00  0.00    +0.000 NA
ATOM     15  H   UNL     1       4.111   2.612  17.520  0.00  0.00    +0.000 HD
ENDROOT
BRANCH   8  16
ATOM     16  C   UNL     1       4.096   4.139  18.954  0.00  0.00    +0.000 C 
ATOM     17  C   UNL     1       2.954   5.111  18.562  0.00  0.00    +0.000 C 
ATOM     18  C   UNL     1       1.817   4.330  17.879  0.00  0.00    +0.000 C 
ATOM     19  C   UNL     1       1.251   3.258  18.830  0.00  0.00    +0.000 C 
ATOM     20  C   UNL     1       0.668   3.959  20.065  0.00  0.00    +0.000 C 
ATOM     21  C   UNL     1       1.779   4.747  20.784  0.00  0.00    +0.000 C 
ATOM     22  C   UNL     1       2.371   5.794  19.826  0.00  0.00    +0.000 C 
ATOM     23  C   UNL     1       2.915   3.798  21.203  0.00  0.00    +0.000 C 
ATOM     24  C   UNL     1       3.507   3.092  19.960  0.00  0.00    +0.000 C 
ATOM     25  C   UNL     1       2.352   2.296  19.308  0.00  0.00    +0.000 C 
ENDBRANCH   8  16
BRANCH  11  26
ATOM     26  C   UNL     1       7.889   7.878  17.895  0.00  0.00    +0.000 A 
ATOM     27  C   UNL     1       7.863   9.208  17.516  0.00  0.00    +0.000 A 
ATOM     28  C   UNL     1       8.597   9.923  18.490  0.00  0.00    +0.000 A 
ATOM     29  C   UNL     1       9.070   8.983  19.374  0.00  0.00    +0.000 A 
ATOM     30  O   UNL     1       8.621   7.746  19.042  0.00  0.00    +0.000 OA
ENDBRANCH  11  26
TORSDOF 2
ENDMDL
MODEL 2
REMARK VINA RESULT:      -7.6      9.587     11.774
REMARK  Name = 
REMARK  3 active torsions:
REMARK  status: ('A' for Active; 'I' for Inactive)
REMARK    1  A    between atoms: C_1  and  N_2
REMARK    2  A    between atoms: N_8  and  C_9
REMARK    3  A    between atoms: C_21  and  C_22
REMARK                            x       y       z     vdW  Elec       q    Type
REMARK                         _______ _______ _______ _____ _____    ______ ____
ROOT
ATOM      1  C   UNL     1       1.983  17.552  18.869  0.00  0.00    +0.000 C 
ATOM      2  N   UNL     1       3.058  16.654  19.231  0.00  0.00    +0.000 N 
ATOM      3  C   UNL     1       3.036  15.776  20.287  0.00  0.00    +0.000 A 
ATOM      4  C   UNL     1       4.318  15.319  20.356  0.00  0.00    +0.000 A 
ATOM      5  C   UNL     1       5.020  15.888  19.295  0.00  0.00    +0.000 A 
ATOM      6  N   UNL     1       6.391  15.666  19.053  0.00  0.00    +0.000 NA
ATOM      7  C   UNL     1       7.049  14.930  19.946  0.00  0.00    +0.000 A 
ATOM      8  N   UNL     1       8.401  14.756  19.688  0.00  0.00    +0.000 N 
ATOM      9  N   UNL     1       6.396  14.385  21.087  0.00  0.00    +0.000 N 
ATOM     10  N   UNL     1       6.970  13.758  22.138  0.00  0.00    +0.000 NA
ATOM     11  C   UNL     1       5.891  13.473  22.892  0.00  0.00    +0.000 A 
ATOM     12  N   UNL     1       4.678  13.885  22.381  0.00  0.00    +0.000 NA
ATOM     13  C   UNL     1       5.049  14.503  21.296  0.00  0.00    +0.000 A 
ATOM     14  N   UNL     1       4.244  16.710  18.579  0.00  0.00    +0.000 NA
ATOM     15  H   UNL     1       8.602  15.186  18.792  0.00  0.00    +0.000 HD
ENDROOT
BRANCH   8  16
ATOM     16  C   UNL     1       9.314  13.654  20.031  0.00  0.00    +0.000 C 
ATOM     17  C   UNL     1       8.984  12.344  19.271  0.00  0.00    +0.000 C 
ATOM     18  C   UNL     1       9.066  12.587  17.753  0.00  0.00    +0.000 C 
ATOM     19  C   UNL     1      10.481  13.048  17.355  0.00  0.00    +0.000 C 
ATOM     20  C   UNL     1      11.476  11.935  17.710  0.00  0.00    +0.000 C 
ATOM     21  C   UNL     1      11.431  11.665  19.227  0.00  0.00    +0.000 C 
ATOM     22  C   UNL     1      10.010  11.239  19.633  0.00  0.00    +0.000 C 
ATOM     23  C   UNL     1      11.777  12.948  20.002  0.00  0.00    +0.000 C 
ATOM     24  C   UNL     1      10.774  14.072  19.649  0.00  0.00    +0.000 C 
ATOM     25  C   UNL     1      10.895  14.314  18.126  0.00  0.00    +0.000 C 
ENDBRANCH   8  16
BRANCH  11  26
ATOM     26  C   UNL     1       5.956  12.776  24.208  0.00  0.00    +0.000 A 
ATOM     27  C   UNL     1       6.797  11.717  24.499  0.00  0.00    +0.000 A 
ATOM     28  C   UNL     1       6.557  11.365  25.847  0.00  0.00    +0.000 A 
ATOM     29  C   UNL     1       5.549  12.194  26.280  0.00  0.00    +0.000 A 
ATOM     30  O   UNL     1       5.201  13.074  25.308  0.00  0.00    +0.000 OA
ENDBRANCH  11  26
TORSDOF 2
ENDMDL
MODEL 3
REMARK VINA RESULT:      -6.7      9.300     12.456
REMARK  Name = 
REMARK  3 active torsions:
REMARK  status: ('A' for Active; 'I' for Inactive)
REMARK    1  A    between atoms: C_1  and  N_2
REMARK    2  A    between atoms: N_8  and  C_9
REMARK    3  A    between atoms: C_21  and  C_22
REMARK                            x       y       z     vdW  Elec       q    Type
REMARK                         _______ _______ _______ _____ _____    ______ ____
ROOT
ATOM      1  C   UNL     1       4.775  10.984  26.657  0.00  0.00    +0.000 C 
ATOM      2  N   UNL     1       5.832  11.506  25.819  0.00  0.00    +0.000 N 
ATOM      3  C   UNL     1       6.725  12.483  26.186  0.00  0.00    +0.000 A 
ATOM      4  C   UNL     1       7.370  12.788  25.026  0.00  0.00    +0.000 A 
ATOM      5  C   UNL     1       6.883  11.927  24.043  0.00  0.00    +0.000 A 
ATOM      6  N   UNL     1       7.301  11.960  22.696  0.00  0.00    +0.000 NA
ATOM      7  C   UNL     1       8.150  12.926  22.352  0.00  0.00    +0.000 A 
ATOM      8  N   UNL     1       8.518  12.940  21.014  0.00  0.00    +0.000 N 
ATOM      9  N   UNL     1       8.622  13.875  23.301  0.00  0.00    +0.000 N 
ATOM     10  N   UNL     1       9.356  14.983  23.056  0.00  0.00    +0.000 NA
ATOM     11  C   UNL     1       9.496  15.483  24.299  0.00  0.00    +0.000 A 
ATOM     12  N   UNL     1       8.895  14.758  25.306  0.00  0.00    +0.000 NA
ATOM     13  C   UNL     1       8.310  13.809  24.632  0.00  0.00    +0.000 A 
ATOM     14  N   UNL     1       5.936  11.116  24.527  0.00  0.00    +0.000 NA
ATOM     15  H   UNL     1       8.098  12.131  20.570  0.00  0.00    +0.000 HD
ENDROOT
BRANCH   8  16
ATOM     16  C   UNL     1       9.752  13.400  20.358  0.00  0.00    +0.000 C 
ATOM     17  C   UNL     1      10.877  12.334  20.383  0.00  0.00    +0.000 C 
ATOM     18  C   UNL     1      10.397  11.054  19.674  0.00  0.00    +0.000 C 
ATOM     19  C   UNL     1      10.031  11.353  18.208  0.00  0.00    +0.000 C 
ATOM     20  C   UNL     1      11.288  11.854  17.483  0.00  0.00    +0.000 C 
ATOM     21  C   UNL     1      11.796  13.142  18.158  0.00  0.00    +0.000 C 
ATOM     22  C   UNL     1      12.129  12.855  19.632  0.00  0.00    +0.000 C 
ATOM     23  C   UNL     1      10.702  14.224  18.125  0.00  0.00    +0.000 C 
ATOM     24  C   UNL     1       9.435  13.724  18.858  0.00  0.00    +0.000 C 
ATOM     25  C   UNL     1       8.961  12.454  18.112  0.00  0.00    +0.000 C 
ENDBRANCH   8  16
BRANCH  11  26
ATOM     26  C   UNL     1      10.230  16.742  24.611  0.00  0.00    +0.000 A 
ATOM     27  C   UNL     1      11.317  17.219  23.901  0.00  0.00    +0.000 A 
ATOM     28  C   UNL     1      11.699  18.436  24.511  0.00  0.00    +0.000 A 
ATOM     29  C   UNL     1      10.858  18.601  25.585  0.00  0.00    +0.000 A 
ATOM     30  O   UNL     1       9.943  17.600  25.636  0.00  0.00    +0.000 OA
ENDBRANCH  11  26
TORSDOF 2
ENDMDL
MODEL 4
REMARK VINA RESULT:      -6.6      7.618     10.622
REMARK  Name = 
REMARK  3 active torsions:
REMARK  status: ('A' for Active; 'I' for Inactive)
REMARK    1  A    between atoms: C_1  and  N_2
REMARK    2  A    between atoms: N_8  and  C_9
REMARK    3  A    between atoms: C_21  and  C_22
REMARK                            x       y       z     vdW  Elec       q    Type
REMARK                         _______ _______ _______ _____ _____    ______ ____
ROOT
ATOM      1  C   UNL     1      -5.556  10.774  18.151  0.00  0.00    +0.000 C 
ATOM      2  N   UNL     1      -4.134  11.032  18.194  0.00  0.00    +0.000 N 
ATOM      3  C   UNL     1      -3.158  10.174  17.750  0.00  0.00    +0.000 A 
ATOM      4  C   UNL     1      -2.000  10.743  18.187  0.00  0.00    +0.000 A 
ATOM      5  C   UNL     1      -2.336  11.947  18.804  0.00  0.00    +0.000 A 
ATOM      6  N   UNL     1      -1.396  12.810  19.404  0.00  0.00    +0.000 NA
ATOM      7  C   UNL     1      -0.132  12.392  19.441  0.00  0.00    +0.000 A 
ATOM      8  N   UNL     1       0.758  13.256  20.063  0.00  0.00    +0.000 N 
ATOM      9  N   UNL     1       0.253  11.138  18.891  0.00  0.00    +0.000 N 
ATOM     10  N   UNL     1       1.457  10.532  18.996  0.00  0.00    +0.000 NA
ATOM     11  C   UNL     1       1.240   9.399  18.300  0.00  0.00    +0.000 A 
ATOM     12  N   UNL     1      -0.024   9.256  17.769  0.00  0.00    +0.000 NA
ATOM     13  C   UNL     1      -0.619  10.325  18.217  0.00  0.00    +0.000 A 
ATOM     14  N   UNL     1      -3.659  12.146  18.802  0.00  0.00    +0.000 NA
ATOM     15  H   UNL     1       0.250  14.098  20.309  0.00  0.00    +0.000 HD
ENDROOT
BRANCH   8  16
ATOM     16  C   UNL     1       2.196  13.476  19.848  0.00  0.00    +0.000 C 
ATOM     17  C   UNL     1       2.491  14.311  18.576  0.00  0.00    +0.000 C 
ATOM     18  C   UNL     1       1.800  15.683  18.681  0.00  0.00    +0.000 C 
ATOM     19  C   UNL     1       2.315  16.455  19.911  0.00  0.00    +0.000 C 
ATOM     20  C   UNL     1       3.822  16.695  19.740  0.00  0.00    +0.000 C 
ATOM     21  C   UNL     1       4.554  15.344  19.640  0.00  0.00    +0.000 C 
ATOM     22  C   UNL     1       4.016  14.555  18.434  0.00  0.00    +0.000 C 
ATOM     23  C   UNL     1       4.293  14.505  20.904  0.00  0.00    +0.000 C 
ATOM     24  C   UNL     1       2.776  14.258  21.076  0.00  0.00    +0.000 C 
ATOM     25  C   UNL     1       2.110  15.648  21.204  0.00  0.00    +0.000 C 
ENDBRANCH   8  16
BRANCH  11  26
ATOM     26  C   UNL     1       2.263   8.333  18.107  0.00  0.00    +0.000 A 
ATOM     27  C   UNL     1       2.403   7.218  18.913  0.00  0.00    +0.000 A 
ATOM     28  C   UNL     1       3.471   6.461  18.378  0.00  0.00    +0.000 A 
ATOM     29  C   UNL     1       3.951   7.184  17.313  0.00  0.00    +0.000 A 
ATOM     30  O   UNL     1       3.207   8.303  17.119  0.00  0.00    +0.000 OA
ENDBRANCH  11  26
TORSDOF 2
ENDMDL
MODEL 5
REMARK VINA RESULT:      -6.6      9.325     12.128
REMARK  Name = 
REMARK  3 active torsions:
REMARK  status: ('A' for Active; 'I' for Inactive)
REMARK    1  A    between atoms: C_1  and  N_2
REMARK    2  A    between atoms: N_8  and  C_9
REMARK    3  A    between atoms: C_21  and  C_22
REMARK                            x       y       z     vdW  Elec       q    Type
REMARK                         _______ _______ _______ _____ _____    ______ ____
ROOT
ATOM      1  C   UNL     1       5.783  11.337  27.636  0.00  0.00    +0.000 C 
ATOM      2  N   UNL     1       6.256  11.969  26.423  0.00  0.00    +0.000 N 
ATOM      3  C   UNL     1       5.616  12.985  25.757  0.00  0.00    +0.000 A 
ATOM      4  C   UNL     1       6.307  13.095  24.588  0.00  0.00    +0.000 A 
ATOM      5  C   UNL     1       7.368  12.193  24.647  0.00  0.00    +0.000 A 
ATOM      6  N   UNL     1       8.295  12.003  23.602  0.00  0.00    +0.000 NA
ATOM      7  C   UNL     1       8.079  12.679  22.475  0.00  0.00    +0.000 A 
ATOM      8  N   UNL     1       8.998  12.447  21.462  0.00  0.00    +0.000 N 
ATOM      9  N   UNL     1       6.970  13.559  22.336  0.00  0.00    +0.000 N 
ATOM     10  N   UNL     1       6.553  14.180  21.211  0.00  0.00    +0.000 NA
ATOM     11  C   UNL     1       5.484  14.860  21.669  0.00  0.00    +0.000 A 
ATOM     12  N   UNL     1       5.204  14.702  23.010  0.00  0.00    +0.000 NA
ATOM     13  C   UNL     1       6.111  13.836  23.365  0.00  0.00    +0.000 A 
ATOM     14  N   UNL     1       7.355  11.495  25.790  0.00  0.00    +0.000 NA
ATOM     15  H   UNL     1       9.717  11.836  21.831  0.00  0.00    +0.000 HD
ENDROOT
BRANCH   8  16
ATOM     16  C   UNL     1       9.464  13.312  20.366  0.00  0.00    +0.000 C 
ATOM     17  C   UNL     1      11.006  13.461  20.335  0.00  0.00    +0.000 C 
ATOM     18  C   UNL     1      11.661  12.076  20.173  0.00  0.00    +0.000 C 
ATOM     19  C   UNL     1      11.200  11.412  18.861  0.00  0.00    +0.000 C 
ATOM     20  C   UNL     1      11.650  12.289  17.685  0.00  0.00    +0.000 C 
ATOM     21  C   UNL     1      11.009  13.685  17.805  0.00  0.00    +0.000 C 
ATOM     22  C   UNL     1      11.438  14.336  19.131  0.00  0.00    +0.000 C 
ATOM     23  C   UNL     1       9.475  13.563  17.816  0.00  0.00    +0.000 C 
ATOM     24  C   UNL     1       9.018  12.683  19.003  0.00  0.00    +0.000 C 
ATOM     25  C   UNL     1       9.667  11.293  18.802  0.00  0.00    +0.000 C 
ENDBRANCH   8  16
BRANCH  11  26
ATOM     26  C   UNL     1       4.620  15.725  20.817  0.00  0.00    +0.000 A 
ATOM     27  C   UNL     1       4.175  16.987  21.168  0.00  0.00    +0.000 A 
ATOM     28  C   UNL     1       3.404  17.463  20.082  0.00  0.00    +0.000 A 
ATOM     29  C   UNL     1       3.382  16.446  19.159  0.00  0.00    +0.000 A 
ATOM     30  O   UNL     1       4.141  15.402  19.578  0.00  0.00    +0.000 OA
ENDBRANCH  11  26
TORSDOF 2
ENDMDL
MODEL 6
REMARK VINA RESULT:      -6.6      9.629     11.823
REMARK  Name = 
REMARK  3 active torsions:
REMARK  status: ('A' for Active; 'I' for Inactive)
REMARK    1  A    between atoms: C_1  and  N_2
REMARK    2  A    between atoms: N_8  and  C_9
REMARK    3  A    between atoms: C_21  and  C_22
REMARK                            x       y       z     vdW  Elec       q    Type
REMARK                         _______ _______ _______ _____ _____    ______ ____
ROOT
ATOM      1  C   UNL     1       1.469  15.464  18.605  0.00  0.00    +0.000 C 
ATOM      2  N   UNL     1       2.779  15.090  19.092  0.00  0.00    +0.000 N 
ATOM      3  C   UNL     1       3.103  14.874  20.409  0.00  0.00    +0.000 A 
ATOM      4  C   UNL     1       4.461  14.765  20.397  0.00  0.00    +0.000 A 
ATOM      5  C   UNL     1       4.872  14.847  19.067  0.00  0.00    +0.000 A 
ATOM      6  N   UNL     1       6.221  14.798  18.658  0.00  0.00    +0.000 NA
ATOM      7  C   UNL     1       7.140  14.749  19.620  0.00  0.00    +0.000 A 
ATOM      8  N   UNL     1       8.455  14.728  19.180  0.00  0.00    +0.000 N 
ATOM      9  N   UNL     1       6.777  14.737  20.996  0.00  0.00    +0.000 N 
ATOM     10  N   UNL     1       7.602  14.842  22.062  0.00  0.00    +0.000 NA
ATOM     11  C   UNL     1       6.722  14.775  23.080  0.00  0.00    +0.000 A 
ATOM     12  N   UNL     1       5.399  14.638  22.718  0.00  0.00    +0.000 NA
ATOM     13  C   UNL     1       5.477  14.686  21.419  0.00  0.00    +0.000 A 
ATOM     14  N   UNL     1       3.833  15.035  18.244  0.00  0.00    +0.000 NA
ATOM     15  H   UNL     1       8.441  14.680  18.167  0.00  0.00    +0.000 HD
ENDROOT
BRANCH   8  16
ATOM     16  C   UNL     1       9.664  14.142  19.781  0.00  0.00    +0.000 C 
ATOM     17  C   UNL     1       9.558  12.608  19.967  0.00  0.00    +0.000 C 
ATOM     18  C   UNL     1       9.317  11.933  18.603  0.00  0.00    +0.000 C 
ATOM     19  C   UNL     1      10.480  12.236  17.639  0.00  0.00    +0.000 C 
ATOM     20  C   UNL     1      11.771  11.657  18.233  0.00  0.00    +0.000 C 
ATOM     21  C   UNL     1      12.054  12.314  19.597  0.00  0.00    +0.000 C 
ATOM     22  C   UNL     1      10.878  12.043  20.552  0.00  0.00    +0.000 C 
ATOM     23  C   UNL     1      12.185  13.838  19.434  0.00  0.00    +0.000 C 
ATOM     24  C   UNL     1      10.883  14.425  18.839  0.00  0.00    +0.000 C 
ATOM     25  C   UNL     1      10.680  13.751  17.462  0.00  0.00    +0.000 C 
ENDBRANCH   8  16
BRANCH  11  26
ATOM     26  C   UNL     1       7.106  14.859  24.517  0.00  0.00    +0.000 A 
ATOM     27  C   UNL     1       8.331  15.302  24.983  0.00  0.00    +0.000 A 
ATOM     28  C   UNL     1       8.277  15.239  26.394  0.00  0.00    +0.000 A 
ATOM     29  C   UNL     1       7.046  14.712  26.703  0.00  0.00    +0.000 A 
ATOM     30  O   UNL     1       6.316  14.510  25.576  0.00  0.00    +0.000 OA
ENDBRANCH  11  26
TORSDOF 2
ENDMDL
MODEL 7
REMARK VINA RESULT:      -6.6     10.305     13.543
REMARK  Name = 
REMARK  3 active torsions:
REMARK  status: ('A' for Active; 'I' for Inactive)
REMARK    1  A    between atoms: C_1  and  N_2
REMARK    2  A    between atoms: N_8  and  C_9
REMARK    3  A    between atoms: C_21  and  C_22
REMARK                            x       y       z     vdW  Elec       q    Type
REMARK                         _______ _______ _______ _____ _____    ______ ____
ROOT
ATOM      1  C   UNL     1      -6.855  13.009  24.175  0.00  0.00    +0.000 C 
ATOM      2  N   UNL     1      -5.798  13.181  23.202  0.00  0.00    +0.000 N 
ATOM      3  C   UNL     1      -5.858  12.784  21.889  0.00  0.00    +0.000 A 
ATOM      4  C   UNL     1      -4.583  12.952  21.439  0.00  0.00    +0.000 A 
ATOM      5  C   UNL     1      -3.846  13.511  22.482  0.00  0.00    +0.000 A 
ATOM      6  N   UNL     1      -2.470  13.809  22.399  0.00  0.00    +0.000 NA
ATOM      7  C   UNL     1      -1.844  13.455  21.278  0.00  0.00    +0.000 A 
ATOM      8  N   UNL     1      -0.487  13.741  21.243  0.00  0.00    +0.000 N 
ATOM      9  N   UNL     1      -2.534  12.816  20.210  0.00  0.00    +0.000 N 
ATOM     10  N   UNL     1      -1.996  12.274  19.095  0.00  0.00    +0.000 NA
ATOM     11  C   UNL     1      -3.099  11.822  18.467  0.00  0.00    +0.000 A 
ATOM     12  N   UNL     1      -4.293  12.045  19.120  0.00  0.00    +0.000 NA
ATOM     13  C   UNL     1      -3.886  12.603  20.224  0.00  0.00    +0.000 A 
ATOM     14  N   UNL     1      -4.594  13.671  23.580  0.00  0.00    +0.000 NA
ATOM     15  H   UNL     1      -0.257  14.248  22.091  0.00  0.00    +0.000 HD
ENDROOT
BRANCH   8  16
ATOM     16  C   UNL     1       0.406  14.044  20.114  0.00  0.00    +0.000 C 
ATOM     17  C   UNL     1       0.272  15.506  19.619  0.00  0.00    +0.000 C 
ATOM     18  C   UNL     1       0.597  16.477  20.769  0.00  0.00    +0.000 C 
ATOM     19  C   UNL     1       2.036  16.255  21.274  0.00  0.00    +0.000 C 
ATOM     20  C   UNL     1       3.008  16.543  20.122  0.00  0.00    +0.000 C 
ATOM     21  C   UNL     1       2.722  15.584  18.951  0.00  0.00    +0.000 C 
ATOM     22  C   UNL     1       1.274  15.779  18.468  0.00  0.00    +0.000 C 
ATOM     23  C   UNL     1       2.870  14.124  19.414  0.00  0.00    +0.000 C 
ATOM     24  C   UNL     1       1.889  13.829  20.572  0.00  0.00    +0.000 C 
ATOM     25  C   UNL     1       2.253  14.799  21.722  0.00  0.00    +0.000 C 
ENDBRANCH   8  16
BRANCH  11  26
ATOM     26  C   UNL     1      -3.077  11.107  17.160  0.00  0.00    +0.000 A 
ATOM     27  C   UNL     1      -2.193  10.095  16.829  0.00  0.00    +0.000 A 
ATOM     28  C   UNL     1      -2.521   9.683  15.516  0.00  0.00    +0.000 A 
ATOM     29  C   UNL     1      -3.547  10.500  15.108  0.00  0.00    +0.000 A 
ATOM     30  O   UNL     1      -3.914  11.344  16.106  0.00  0.00    +0.000 OA
ENDBRANCH  11  26
TORSDOF 2
ENDMDL
MODEL 8
REMARK VINA RESULT:      -6.6      9.569     12.452
REMARK  Name = 
REMARK  3 active torsions:
REMARK  status: ('A' for Active; 'I' for Inactive)
REMARK    1  A    between atoms: C_1  and  N_2
REMARK    2  A    between atoms: N_8  and  C_9
REMARK    3  A    between atoms: C_21  and  C_22
REMARK                            x       y       z     vdW  Elec       q    Type
REMARK                         _______ _______ _______ _____ _____    ______ ____
ROOT
ATOM      1  C   UNL     1       5.933  14.380  27.454  0.00  0.00    +0.000 C 
ATOM      2  N   UNL     1       6.368  14.524  26.082  0.00  0.00    +0.000 N 
ATOM      3  C   UNL     1       5.644  15.122  25.080  0.00  0.00    +0.000 A 
ATOM      4  C   UNL     1       6.349  14.830  23.951  0.00  0.00    +0.000 A 
ATOM      5  C   UNL     1       7.494  14.138  24.344  0.00  0.00    +0.000 A 
ATOM      6  N   UNL     1       8.461  13.646  23.442  0.00  0.00    +0.000 NA
ATOM      7  C   UNL     1       8.204  13.794  22.144  0.00  0.00    +0.000 A 
ATOM      8  N   UNL     1       9.166  13.275  21.289  0.00  0.00    +0.000 N 
ATOM      9  N   UNL     1       7.015  14.429  21.688  0.00  0.00    +0.000 N 
ATOM     10  N   UNL     1       6.565  14.507  20.416  0.00  0.00    +0.000 NA
ATOM     11  C   UNL     1       5.422  15.200  20.586  0.00  0.00    +0.000 A 
ATOM     12  N   UNL     1       5.128  15.558  21.885  0.00  0.00    +0.000 NA
ATOM     13  C   UNL     1       6.108  15.001  22.538  0.00  0.00    +0.000 A 
ATOM     14  N   UNL     1       7.524  13.953  25.669  0.00  0.00    +0.000 NA
ATOM     15  H   UNL     1       9.934  12.937  21.858  0.00  0.00    +0.000 HD
ENDROOT
BRANCH   8  16
ATOM     16  C   UNL     1       9.568  13.678  19.933  0.00  0.00    +0.000 C 
ATOM     17  C   UNL     1      11.106  13.766  19.765  0.00  0.00    +0.000 C 
ATOM     18  C   UNL     1      11.744  12.399  20.075  0.00  0.00    +0.000 C 
ATOM     19  C   UNL     1      11.202  11.321  19.117  0.00  0.00    +0.000 C 
ATOM     20  C   UNL     1      11.583  11.706  17.681  0.00  0.00    +0.000 C 
ATOM     21  C   UNL     1      10.956  13.069  17.327  0.00  0.00    +0.000 C 
ATOM     22  C   UNL     1      11.468  14.140  18.305  0.00  0.00    +0.000 C 
ATOM     23  C   UNL     1       9.426  12.999  17.465  0.00  0.00    +0.000 C 
ATOM     24  C   UNL     1       9.038  12.614  18.912  0.00  0.00    +0.000 C 
ATOM     25  C   UNL     1       9.667  11.228  19.189  0.00  0.00    +0.000 C 
ENDBRANCH   8  16
BRANCH  11  26
ATOM     26  C   UNL     1       4.496  15.563  19.477  0.00  0.00    +0.000 A 
ATOM     27  C   UNL     1       4.633  15.143  18.166  0.00  0.00    +0.000 A 
ATOM     28  C   UNL     1       3.546  15.693  17.447  0.00  0.00    +0.000 A 
ATOM     29  C   UNL     1       2.844  16.456  18.349  0.00  0.00    +0.000 A 
ATOM     30  O   UNL     1       3.390  16.359  19.587  0.00  0.00    +0.000 OA
ENDBRANCH  11  26
TORSDOF 2
ENDMDL
MODEL 9
REMARK VINA RESULT:      -6.5     10.436     12.920
REMARK  Name = 
REMARK  3 active torsions:
REMARK  status: ('A' for Active; 'I' for Inactive)
REMARK    1  A    between atoms: C_1  and  N_2
REMARK    2  A    between atoms: N_8  and  C_9
REMARK    3  A    between atoms: C_21  and  C_22
REMARK                            x       y       z     vdW  Elec       q    Type
REMARK                         _______ _______ _______ _____ _____    ______ ____
ROOT
ATOM      1  C   UNL     1       4.167  14.499  20.979  0.00  0.00    +0.000 C 
ATOM      2  N   UNL     1       2.800  14.031  21.042  0.00  0.00    +0.000 N 
ATOM      3  C   UNL     1       2.220  13.155  20.157  0.00  0.00    +0.000 A 
ATOM      4  C   UNL     1       0.898  13.186  20.487  0.00  0.00    +0.000 A 
ATOM      5  C   UNL     1       0.767  14.019  21.597  0.00  0.00    +0.000 A 
ATOM      6  N   UNL     1      -0.466  14.316  22.213  0.00  0.00    +0.000 NA
ATOM      7  C   UNL     1      -1.561  13.824  21.637  0.00  0.00    +0.000 A 
ATOM      8  N   UNL     1      -2.756  14.160  22.257  0.00  0.00    +0.000 N 
ATOM      9  N   UNL     1      -1.489  13.028  20.460  0.00  0.00    +0.000 N 
ATOM     10  N   UNL     1      -2.519  12.600  19.697  0.00  0.00    +0.000 NA
ATOM     11  C   UNL     1      -1.866  11.911  18.740  0.00  0.00    +0.000 A 
ATOM     12  N   UNL     1      -0.492  11.884  18.856  0.00  0.00    +0.000 NA
ATOM     13  C   UNL     1      -0.302  12.644  19.897  0.00  0.00    +0.000 A 
ATOM     14  N   UNL     1       1.945  14.540  21.961  0.00  0.00    +0.000 NA
ATOM     15  H   UNL     1      -2.532  14.675  23.101  0.00  0.00    +0.000 HD
ENDROOT
BRANCH   8  16
ATOM     16  C   UNL     1      -4.040  13.445  22.326  0.00  0.00    +0.000 C 
ATOM     17  C   UNL     1      -4.677  13.490  23.738  0.00  0.00    +0.000 C 
ATOM     18  C   UNL     1      -4.912  14.954  24.156  0.00  0.00    +0.000 C 
ATOM     19  C   UNL     1      -5.860  15.653  23.163  0.00  0.00    +0.000 C 
ATOM     20  C   UNL     1      -7.213  14.930  23.186  0.00  0.00    +0.000 C 
ATOM     21  C   UNL     1      -7.022  13.460  22.764  0.00  0.00    +0.000 C 
ATOM     22  C   UNL     1      -6.049  12.769  23.734  0.00  0.00    +0.000 C 
ATOM     23  C   UNL     1      -6.411  13.390  21.354  0.00  0.00    +0.000 C 
ATOM     24  C   UNL     1      -5.045  14.115  21.328  0.00  0.00    +0.000 C 
ATOM     25  C   UNL     1      -5.313  15.585  21.726  0.00  0.00    +0.000 C 
ENDBRANCH   8  16
BRANCH  11  26
ATOM     26  C   UNL     1      -2.539  11.224  17.603  0.00  0.00    +0.000 A 
ATOM     27  C   UNL     1      -2.066  10.085  16.977  0.00  0.00    +0.000 A 
ATOM     28  C   UNL     1      -3.003   9.754  15.971  0.00  0.00    +0.000 A 
ATOM     29  C   UNL     1      -3.961  10.738  16.008  0.00  0.00    +0.000 A 
ATOM     30  O   UNL     1      -3.709  11.615  17.013  0.00  0.00    +0.000 OA
ENDBRANCH  11  26
TORSDOF 2
ENDMDL
