MODEL 1
REMARK VINA RESULT:      -7.9      0.000      0.000
REMARK  Name = 
REMARK  9 active torsions:
REMARK  status: ('A' for Active; 'I' for Inactive)
REMARK    1  A    between atoms: C_1  and  O_2
REMARK    2  A    between atoms: O_2  and  C_3
REMARK    3  A    between atoms: C_6  and  N_7
REMARK    4  A    between atoms: N_7  and  C_8
REMARK    5  A    between atoms: C_8  and  C_9
REMARK    6  A    between atoms: N_11  and  C_12
REMARK    7  A    between atoms: C_12  and  C_13
REMARK    8  A    between atoms: C_13  and  C_14
REMARK    9  A    between atoms: C_20  and  C_22
REMARK                            x       y       z     vdW  Elec       q    Type
REMARK                         _______ _______ _______ _____ _____    ______ ____
ROOT
ATOM      1  N   UNL     1       5.867   4.500  16.983  0.00  0.00    +0.000 N 
ATOM      2  C   UNL     1       5.713   4.550  15.561  0.00  0.00    +0.000 C 
ATOM      3  O   UNL     1       4.636   4.523  14.950  0.00  0.00    +0.000 OA
ENDROOT
BRANCH   1   7
ATOM      4  C   UNL     1       2.481   4.243  19.688  0.00  0.00    +0.000 A 
ATOM      5  C   UNL     1       3.376   5.294  19.732  0.00  0.00    +0.000 A 
ATOM      6  C   UNL     1       4.414   5.432  18.803  0.00  0.00    +0.000 A 
ATOM      7  C   UNL     1       4.693   4.442  17.853  0.00  0.00    +0.000 A 
ATOM      8  C   UNL     1       3.769   3.389  17.828  0.00  0.00    +0.000 A 
ATOM      9  C   UNL     1       2.660   3.289  18.688  0.00  0.00    +0.000 A 
ATOM     10 CL   UNL     1       1.516   2.035  18.365  0.00  0.00    +0.000 Cl
BRANCH   4  12
ATOM     11  C   UNL     1       1.794   3.283  21.700  0.00  0.00    +0.000 C 
ATOM     12  O   UNL     1       1.457   4.138  20.595  0.00  0.00    +0.000 OA
ENDBRANCH   4  12
ENDBRANCH   1   7
BRANCH   2  13
ATOM     13  C   UNL     1       6.995   4.657  14.717  0.00  0.00    +0.000 C 
ATOM     14 CL   UNL     1       6.707   4.064  13.065  0.00  0.00    +0.000 Cl
ENDBRANCH   2  13
BRANCH   1  15
ATOM     15  C   UNL     1       7.245   4.603  17.552  0.00  0.00    +0.000 C 
BRANCH  15  16
ATOM     16  C   UNL     1       7.819   5.741  18.394  0.00  0.00    +0.000 C 
ATOM     17  O   UNL     1       8.167   5.544  19.580  0.00  0.00    +0.000 OA
ATOM     18  N   UNL     1       7.911   6.992  17.818  0.00  0.00    +0.000 N 
ATOM     19  H   UNL     1       7.428   7.184  16.942  0.00  0.00    +0.000 HD
BRANCH  18  20
ATOM     20  C   UNL     1       8.373   8.105  18.645  0.00  0.00    +0.000 C 
BRANCH  20  21
ATOM     21  C   UNL     1       8.312   9.492  17.994  0.00  0.00    +0.000 C 
BRANCH  21  22
ATOM     22  C   UNL     1       9.300  10.445  18.644  0.00  0.00    +0.000 A 
ATOM     23  C   UNL     1       9.320  10.606  20.037  0.00  0.00    +0.000 A 
ATOM     24  C   UNL     1      10.157  11.552  20.635  0.00  0.00    +0.000 A 
ATOM     25  C   UNL     1      10.983  12.355  19.851  0.00  0.00    +0.000 A 
ATOM     26  C   UNL     1      10.994  12.187  18.468  0.00  0.00    +0.000 A 
ATOM     27  C   UNL     1      10.167  11.233  17.869  0.00  0.00    +0.000 A 
ENDBRANCH  21  22
ENDBRANCH  20  21
ENDBRANCH  18  20
ENDBRANCH  15  16
ENDBRANCH   1  15
TORSDOF 8
ENDMDL
MODEL 2
REMARK VINA RESULT:      -7.9      1.450      1.531
REMARK  Name = 
REMARK  9 active torsions:
REMARK  status: ('A' for Active; 'I' for Inactive)
REMARK    1  A    between atoms: C_1  and  O_2
REMARK    2  A    between atoms: O_2  and  C_3
REMARK    3  A    between atoms: C_6  and  N_7
REMARK    4  A    between atoms: N_7  and  C_8
REMARK    5  A    between atoms: C_8  and  C_9
REMARK    6  A    between atoms: N_11  and  C_12
REMARK    7  A    between atoms: C_12  and  C_13
REMARK    8  A    between atoms: C_13  and  C_14
REMARK    9  A    between atoms: C_20  and  C_22
REMARK                            x       y       z     vdW  Elec       q    Type
REMARK                         _______ _______ _______ _____ _____    ______ ____
ROOT
ATOM      1  N   UNL     1       5.442   4.866  16.511  0.00  0.00    +0.000 N 
ATOM      2  C   UNL     1       6.012   4.183  15.389  0.00  0.00    +0.000 C 
ATOM      3  O   UNL     1       5.803   3.002  15.081  0.00  0.00    +0.000 OA
ENDROOT
BRANCH   1   7
ATOM      4  C   UNL     1       2.626   2.982  19.226  0.00  0.00    +0.000 A 
ATOM      5  C   UNL     1       2.214   3.643  18.085  0.00  0.00    +0.000 A 
ATOM      6  C   UNL     1       3.120   4.170  17.157  0.00  0.00    +0.000 A 
ATOM      7  C   UNL     1       4.500   4.180  17.394  0.00  0.00    +0.000 A 
ATOM      8  C   UNL     1       4.891   3.501  18.556  0.00  0.00    +0.000 A 
ATOM      9  C   UNL     1       3.998   2.876  19.446  0.00  0.00    +0.000 A 
ATOM     10 CL   UNL     1       4.679   1.908  20.704  0.00  0.00    +0.000 Cl
BRANCH   4  12
ATOM     11  C   UNL     1       1.440   3.346  21.201  0.00  0.00    +0.000 C 
ATOM     12  O   UNL     1       1.721   2.454  20.111  0.00  0.00    +0.000 OA
ENDBRANCH   4  12
ENDBRANCH   1   7
BRANCH   2  13
ATOM     13  C   UNL     1       6.957   4.988  14.480  0.00  0.00    +0.000 C 
ATOM     14 CL   UNL     1       6.895   4.373  12.813  0.00  0.00    +0.000 Cl
ENDBRANCH   2  13
BRANCH   1  15
ATOM     15  C   UNL     1       5.761   6.315  16.697  0.00  0.00    +0.000 C 
BRANCH  15  16
ATOM     16  C   UNL     1       6.856   6.918  17.575  0.00  0.00    +0.000 C 
ATOM     17  O   UNL     1       7.228   6.337  18.619  0.00  0.00    +0.000 OA
ATOM     18  N   UNL     1       7.394   8.133  17.198  0.00  0.00    +0.000 N 
ATOM     19  H   UNL     1       6.936   8.690  16.480  0.00  0.00    +0.000 HD
BRANCH  18  20
ATOM     20  C   UNL     1       8.376   8.760  18.080  0.00  0.00    +0.000 C 
BRANCH  20  21
ATOM     21  C   UNL     1       8.266  10.282  18.227  0.00  0.00    +0.000 C 
BRANCH  21  22
ATOM     22  C   UNL     1       9.576  10.881  18.711  0.00  0.00    +0.000 A 
ATOM     23  C   UNL     1       9.787  11.114  20.078  0.00  0.00    +0.000 A 
ATOM     24  C   UNL     1      10.948  11.754  20.522  0.00  0.00    +0.000 A 
ATOM     25  C   UNL     1      11.911  12.176  19.608  0.00  0.00    +0.000 A 
ATOM     26  C   UNL     1      11.727  11.927  18.249  0.00  0.00    +0.000 A 
ATOM     27  C   UNL     1      10.573  11.275  17.804  0.00  0.00    +0.000 A 
ENDBRANCH  21  22
ENDBRANCH  20  21
ENDBRANCH  18  20
ENDBRANCH  15  16
ENDBRANCH   1  15
TORSDOF 8
ENDMDL
MODEL 3
REMARK VINA RESULT:      -7.9      1.514      1.735
REMARK  Name = 
REMARK  9 active torsions:
REMARK  status: ('A' for Active; 'I' for Inactive)
REMARK    1  A    between atoms: C_1  and  O_2
REMARK    2  A    between atoms: O_2  and  C_3
REMARK    3  A    between atoms: C_6  and  N_7
REMARK    4  A    between atoms: N_7  and  C_8
REMARK    5  A    between atoms: C_8  and  C_9
REMARK    6  A    between atoms: N_11  and  C_12
REMARK    7  A    between atoms: C_12  and  C_13
REMARK    8  A    between atoms: C_13  and  C_14
REMARK    9  A    between atoms: C_20  and  C_22
REMARK                            x       y       z     vdW  Elec       q    Type
REMARK                         _______ _______ _______ _____ _____    ______ ____
ROOT
ATOM      1  N   UNL     1       5.692   5.184  16.932  0.00  0.00    +0.000 N 
ATOM      2  C   UNL     1       5.849   4.195  15.908  0.00  0.00    +0.000 C 
ATOM      3  O   UNL     1       5.329   3.072  15.905  0.00  0.00    +0.000 OA
ENDROOT
BRANCH   1   7
ATOM      4  C   UNL     1       3.030   4.328  20.253  0.00  0.00    +0.000 A 
ATOM      5  C   UNL     1       4.000   3.435  19.841  0.00  0.00    +0.000 A 
ATOM      6  C   UNL     1       4.923   3.743  18.835  0.00  0.00    +0.000 A 
ATOM      7  C   UNL     1       4.835   4.924  18.087  0.00  0.00    +0.000 A 
ATOM      8  C   UNL     1       3.845   5.813  18.527  0.00  0.00    +0.000 A 
ATOM      9  C   UNL     1       2.977   5.561  19.605  0.00  0.00    +0.000 A 
ATOM     10 CL   UNL     1       1.970   6.862  20.133  0.00  0.00    +0.000 Cl
BRANCH   4  12
ATOM     11  C   UNL     1       1.107   3.131  20.812  0.00  0.00    +0.000 C 
ATOM     12  O   UNL     1       2.149   4.015  21.257  0.00  0.00    +0.000 OA
ENDBRANCH   4  12
ENDBRANCH   1   7
BRANCH   2  13
ATOM     13  C   UNL     1       6.730   4.563  14.702  0.00  0.00    +0.000 C 
ATOM     14 CL   UNL     1       6.157   3.738  13.235  0.00  0.00    +0.000 Cl
ENDBRANCH   2  13
BRANCH   1  15
ATOM     15  C   UNL     1       6.349   6.513  16.741  0.00  0.00    +0.000 C 
BRANCH  15  16
ATOM     16  C   UNL     1       7.368   7.185  17.659  0.00  0.00    +0.000 C 
ATOM     17  O   UNL     1       7.858   6.564  18.630  0.00  0.00    +0.000 OA
ATOM     18  N   UNL     1       7.704   8.500  17.405  0.00  0.00    +0.000 N 
ATOM     19  H   UNL     1       7.144   9.050  16.758  0.00  0.00    +0.000 HD
BRANCH  18  20
ATOM     20  C   UNL     1       8.609   9.177  18.332  0.00  0.00    +0.000 C 
BRANCH  20  21
ATOM     21  C   UNL     1       8.571  10.709  18.304  0.00  0.00    +0.000 C 
BRANCH  21  22
ATOM     22  C   UNL     1       9.921  11.297  18.676  0.00  0.00    +0.000 A 
ATOM     23  C   UNL     1      10.282  11.449  20.023  0.00  0.00    +0.000 A 
ATOM     24  C   UNL     1      11.480  12.079  20.375  0.00  0.00    +0.000 A 
ATOM     25  C   UNL     1      12.331  12.570  19.388  0.00  0.00    +0.000 A 
ATOM     26  C   UNL     1      11.999  12.401  18.045  0.00  0.00    +0.000 A 
ATOM     27  C   UNL     1      10.808  11.761  17.691  0.00  0.00    +0.000 A 
ENDBRANCH  21  22
ENDBRANCH  20  21
ENDBRANCH  18  20
ENDBRANCH  15  16
ENDBRANCH   1  15
TORSDOF 8
ENDMDL
MODEL 4
REMARK VINA RESULT:      -7.8      1.637      2.155
REMARK  Name = 
REMARK  9 active torsions:
REMARK  status: ('A' for Active; 'I' for Inactive)
REMARK    1  A    between atoms: C_1  and  O_2
REMARK    2  A    between atoms: O_2  and  C_3
REMARK    3  A    between atoms: C_6  and  N_7
REMARK    4  A    between atoms: N_7  and  C_8
REMARK    5  A    between atoms: C_8  and  C_9
REMARK    6  A    between atoms: N_11  and  C_12
REMARK    7  A    between atoms: C_12  and  C_13
REMARK    8  A    between atoms: C_13  and  C_14
REMARK    9  A    between atoms: C_20  and  C_22
REMARK                            x       y       z     vdW  Elec       q    Type
REMARK                         _______ _______ _______ _____ _____    ______ ____
ROOT
ATOM      1  N   UNL     1       6.158   5.040  17.466  0.00  0.00    +0.000 N 
ATOM      2  C   UNL     1       6.053   4.514  16.138  0.00  0.00    +0.000 C 
ATOM      3  O   UNL     1       5.093   3.874  15.690  0.00  0.00    +0.000 OA
ENDROOT
BRANCH   1   7
ATOM      4  C   UNL     1       2.799   4.475  20.158  0.00  0.00    +0.000 A 
ATOM      5  C   UNL     1       3.698   3.462  19.884  0.00  0.00    +0.000 A 
ATOM      6  C   UNL     1       4.835   3.664  19.093  0.00  0.00    +0.000 A 
ATOM      7  C   UNL     1       5.061   4.870  18.418  0.00  0.00    +0.000 A 
ATOM      8  C   UNL     1       4.138   5.880  18.715  0.00  0.00    +0.000 A 
ATOM      9  C   UNL     1       3.047   5.723  19.590  0.00  0.00    +0.000 A 
ATOM     10 CL   UNL     1       2.145   7.140  19.996  0.00  0.00    +0.000 Cl
BRANCH   4  12
ATOM     11  C   UNL     1       0.689   3.489  20.290  0.00  0.00    +0.000 C 
ATOM     12  O   UNL     1       1.702   4.261  20.954  0.00  0.00    +0.000 OA
ENDBRANCH   4  12
ENDBRANCH   1   7
BRANCH   2  13
ATOM     13  C   UNL     1       7.229   4.774  15.182  0.00  0.00    +0.000 C 
ATOM     14 CL   UNL     1       6.776   4.375  13.510  0.00  0.00    +0.000 Cl
ENDBRANCH   2  13
BRANCH   1  15
ATOM     15  C   UNL     1       7.370   5.841  17.818  0.00  0.00    +0.000 C 
BRANCH  15  16
ATOM     16  C   UNL     1       7.550   7.353  17.695  0.00  0.00    +0.000 C 
ATOM     17  O   UNL     1       6.960   7.994  16.796  0.00  0.00    +0.000 OA
ATOM     18  N   UNL     1       8.404   7.979  18.581  0.00  0.00    +0.000 N 
ATOM     19  H   UNL     1       9.035   7.424  19.155  0.00  0.00    +0.000 HD
BRANCH  18  20
ATOM     20  C   UNL     1       8.652   9.409  18.413  0.00  0.00    +0.000 C 
BRANCH  20  21
ATOM     21  C   UNL     1       9.410  10.096  19.555  0.00  0.00    +0.000 C 
BRANCH  21  22
ATOM     22  C   UNL     1      10.050  11.391  19.086  0.00  0.00    +0.000 A 
ATOM     23  C   UNL     1      10.470  11.534  17.756  0.00  0.00    +0.000 A 
ATOM     24  C   UNL     1      11.149  12.684  17.341  0.00  0.00    +0.000 A 
ATOM     25  C   UNL     1      11.422  13.705  18.248  0.00  0.00    +0.000 A 
ATOM     26  C   UNL     1      10.986  13.588  19.567  0.00  0.00    +0.000 A 
ATOM     27  C   UNL     1      10.297  12.445  19.981  0.00  0.00    +0.000 A 
ENDBRANCH  21  22
ENDBRANCH  20  21
ENDBRANCH  18  20
ENDBRANCH  15  16
ENDBRANCH   1  15
TORSDOF 8
ENDMDL
MODEL 5
REMARK VINA RESULT:      -7.7      1.239      1.594
REMARK  Name = 
REMARK  9 active torsions:
REMARK  status: ('A' for Active; 'I' for Inactive)
REMARK    1  A    between atoms: C_1  and  O_2
REMARK    2  A    between atoms: O_2  and  C_3
REMARK    3  A    between atoms: C_6  and  N_7
REMARK    4  A    between atoms: N_7  and  C_8
REMARK    5  A    between atoms: C_8  and  C_9
REMARK    6  A    between atoms: N_11  and  C_12
REMARK    7  A    between atoms: C_12  and  C_13
REMARK    8  A    between atoms: C_13  and  C_14
REMARK    9  A    between atoms: C_20  and  C_22
REMARK                            x       y       z     vdW  Elec       q    Type
REMARK                         _______ _______ _______ _____ _____    ______ ____
ROOT
ATOM      1  N   UNL     1       5.652   5.057  16.714  0.00  0.00    +0.000 N 
ATOM      2  C   UNL     1       6.089   4.304  15.577  0.00  0.00    +0.000 C 
ATOM      3  O   UNL     1       5.814   3.118  15.349  0.00  0.00    +0.000 OA
ENDROOT
BRANCH   1   7
ATOM      4  C   UNL     1       3.097   3.083  19.617  0.00  0.00    +0.000 A 
ATOM      5  C   UNL     1       4.449   3.267  19.835  0.00  0.00    +0.000 A 
ATOM      6  C   UNL     1       5.259   3.986  18.947  0.00  0.00    +0.000 A 
ATOM      7  C   UNL     1       4.779   4.447  17.715  0.00  0.00    +0.000 A 
ATOM      8  C   UNL     1       3.405   4.250  17.521  0.00  0.00    +0.000 A 
ATOM      9  C   UNL     1       2.557   3.620  18.450  0.00  0.00    +0.000 A 
ATOM     10 CL   UNL     1       0.859   3.661  18.129  0.00  0.00    +0.000 Cl
BRANCH   4  12
ATOM     11  C   UNL     1       1.909   3.211  21.620  0.00  0.00    +0.000 C 
ATOM     12  O   UNL     1       2.317   2.394  20.510  0.00  0.00    +0.000 OA
ENDBRANCH   4  12
ENDBRANCH   1   7
BRANCH   2  13
ATOM     13  C   UNL     1       6.967   5.031  14.545  0.00  0.00    +0.000 C 
ATOM     14 CL   UNL     1       6.852   4.238  12.957  0.00  0.00    +0.000 Cl
ENDBRANCH   2  13
BRANCH   1  15
ATOM     15  C   UNL     1       6.033   6.500  16.798  0.00  0.00    +0.000 C 
BRANCH  15  16
ATOM     16  C   UNL     1       7.222   7.104  17.543  0.00  0.00    +0.000 C 
ATOM     17  O   UNL     1       7.803   6.459  18.444  0.00  0.00    +0.000 OA
ATOM     18  N   UNL     1       7.609   8.388  17.214  0.00  0.00    +0.000 N 
ATOM     19  H   UNL     1       7.001   8.972  16.645  0.00  0.00    +0.000 HD
BRANCH  18  20
ATOM     20  C   UNL     1       8.687   9.006  17.985  0.00  0.00    +0.000 C 
BRANCH  20  21
ATOM     21  C   UNL     1       8.391  10.401  18.548  0.00  0.00    +0.000 C 
BRANCH  21  22
ATOM     22  C   UNL     1       9.675  11.133  18.899  0.00  0.00    +0.000 A 
ATOM     23  C   UNL     1      10.610  11.445  17.902  0.00  0.00    +0.000 A 
ATOM     24  C   UNL     1      11.837  12.029  18.230  0.00  0.00    +0.000 A 
ATOM     25  C   UNL     1      12.150  12.305  19.559  0.00  0.00    +0.000 A 
ATOM     26  C   UNL     1      11.219  12.025  20.559  0.00  0.00    +0.000 A 
ATOM     27  C   UNL     1       9.987  11.453  20.231  0.00  0.00    +0.000 A 
ENDBRANCH  21  22
ENDBRANCH  20  21
ENDBRANCH  18  20
ENDBRANCH  15  16
ENDBRANCH   1  15
TORSDOF 8
ENDMDL
MODEL 6
REMARK VINA RESULT:      -7.7      4.421      6.929
REMARK  Name = 
REMARK  9 active torsions:
REMARK  status: ('A' for Active; 'I' for Inactive)
REMARK    1  A    between atoms: C_1  and  O_2
REMARK    2  A    between atoms: O_2  and  C_3
REMARK    3  A    between atoms: C_6  and  N_7
REMARK    4  A    between atoms: N_7  and  C_8
REMARK    5  A    between atoms: C_8  and  C_9
REMARK    6  A    between atoms: N_11  and  C_12
REMARK    7  A    between atoms: C_12  and  C_13
REMARK    8  A    between atoms: C_13  and  C_14
REMARK    9  A    between atoms: C_20  and  C_22
REMARK                            x       y       z     vdW  Elec       q    Type
REMARK                         _______ _______ _______ _____ _____    ______ ____
ROOT
ATOM      1  N   UNL     1       2.902   5.307  19.790  0.00  0.00    +0.000 N 
ATOM      2  C   UNL     1       2.058   4.221  20.187  0.00  0.00    +0.000 C 
ATOM      3  O   UNL     1       0.837   4.290  20.381  0.00  0.00    +0.000 OA
ENDROOT
BRANCH   1   7
ATOM      4  C   UNL     1       1.385   9.314  19.090  0.00  0.00    +0.000 A 
ATOM      5  C   UNL     1       1.930   8.549  18.077  0.00  0.00    +0.000 A 
ATOM      6  C   UNL     1       2.333   7.223  18.275  0.00  0.00    +0.000 A 
ATOM      7  C   UNL     1       2.336   6.633  19.545  0.00  0.00    +0.000 A 
ATOM      8  C   UNL     1       1.777   7.428  20.552  0.00  0.00    +0.000 A 
ATOM      9  C   UNL     1       1.272   8.726  20.348  0.00  0.00    +0.000 A 
ATOM     10 CL   UNL     1       0.427   9.465  21.662  0.00  0.00    +0.000 Cl
BRANCH   4  12
ATOM     11  C   UNL     1      -0.385  10.674  18.414  0.00  0.00    +0.000 C 
ATOM     12  O   UNL     1       0.976  10.604  18.869  0.00  0.00    +0.000 OA
ENDBRANCH   4  12
ENDBRANCH   1   7
BRANCH   2  13
ATOM     13  C   UNL     1       2.721   2.846  20.381  0.00  0.00    +0.000 C 
ATOM     14 CL   UNL     1       2.378   1.787  18.995  0.00  0.00    +0.000 Cl
ENDBRANCH   2  13
BRANCH   1  15
ATOM     15  C   UNL     1       4.350   5.027  19.544  0.00  0.00    +0.000 C 
BRANCH  15  16
ATOM     16  C   UNL     1       5.008   4.634  18.223  0.00  0.00    +0.000 C 
ATOM     17  O   UNL     1       4.352   4.040  17.337  0.00  0.00    +0.000 OA
ATOM     18  N   UNL     1       6.347   4.924  18.053  0.00  0.00    +0.000 N 
ATOM     19  H   UNL     1       6.911   5.204  18.852  0.00  0.00    +0.000 HD
BRANCH  18  20
ATOM     20  C   UNL     1       7.005   4.470  16.829  0.00  0.00    +0.000 C 
BRANCH  20  21
ATOM     21  C   UNL     1       7.096   5.499  15.697  0.00  0.00    +0.000 C 
BRANCH  21  22
ATOM     22  C   UNL     1       6.761   4.869  14.356  0.00  0.00    +0.000 A 
ATOM     23  C   UNL     1       5.591   4.113  14.201  0.00  0.00    +0.000 A 
ATOM     24  C   UNL     1       5.324   3.448  12.999  0.00  0.00    +0.000 A 
ATOM     25  C   UNL     1       6.225   3.525  11.939  0.00  0.00    +0.000 A 
ATOM     26  C   UNL     1       7.379   4.295  12.071  0.00  0.00    +0.000 A 
ATOM     27  C   UNL     1       7.641   4.971  13.266  0.00  0.00    +0.000 A 
ENDBRANCH  21  22
ENDBRANCH  20  21
ENDBRANCH  18  20
ENDBRANCH  15  16
ENDBRANCH   1  15
TORSDOF 8
ENDMDL
MODEL 7
REMARK VINA RESULT:      -7.6      4.369      7.651
REMARK  Name = 
REMARK  9 active torsions:
REMARK  status: ('A' for Active; 'I' for Inactive)
REMARK    1  A    between atoms: C_1  and  O_2
REMARK    2  A    between atoms: O_2  and  C_3
REMARK    3  A    between atoms: C_6  and  N_7
REMARK    4  A    between atoms: N_7  and  C_8
REMARK    5  A    between atoms: C_8  and  C_9
REMARK    6  A    between atoms: N_11  and  C_12
REMARK    7  A    between atoms: C_12  and  C_13
REMARK    8  A    between atoms: C_13  and  C_14
REMARK    9  A    between atoms: C_20  and  C_22
REMARK                            x       y       z     vdW  Elec       q    Type
REMARK                         _______ _______ _______ _____ _____    ______ ____
ROOT
ATOM      1  N   UNL     1       3.569   4.534  18.848  0.00  0.00    +0.000 N 
ATOM      2  C   UNL     1       3.814   3.511  19.820  0.00  0.00    +0.000 C 
ATOM      3  O   UNL     1       4.830   2.807  19.885  0.00  0.00    +0.000 OA
ENDROOT
BRANCH   1   7
ATOM      4  C   UNL     1       6.660   5.332  15.905  0.00  0.00    +0.000 A 
ATOM      5  C   UNL     1       5.665   4.399  15.688  0.00  0.00    +0.000 A 
ATOM      6  C   UNL     1       4.612   4.205  16.590  0.00  0.00    +0.000 A 
ATOM      7  C   UNL     1       4.575   4.847  17.834  0.00  0.00    +0.000 A 
ATOM      8  C   UNL     1       5.594   5.789  18.027  0.00  0.00    +0.000 A 
ATOM      9  C   UNL     1       6.601   6.071  17.085  0.00  0.00    +0.000 A 
ATOM     10 CL   UNL     1       7.639   7.413  17.410  0.00  0.00    +0.000 Cl
BRANCH   4  12
ATOM     11  C   UNL     1       7.372   4.939  13.719  0.00  0.00    +0.000 C 
ATOM     12  O   UNL     1       7.671   5.522  14.997  0.00  0.00    +0.000 OA
ENDBRANCH   4  12
ENDBRANCH   1   7
BRANCH   2  13
ATOM     13  C   UNL     1       2.726   3.274  20.882  0.00  0.00    +0.000 C 
ATOM     14 CL   UNL     1       1.433   2.242  20.231  0.00  0.00    +0.000 Cl
ENDBRANCH   2  13
BRANCH   1  15
ATOM     15  C   UNL     1       2.308   5.328  18.956  0.00  0.00    +0.000 C 
BRANCH  15  16
ATOM     16  C   UNL     1       2.150   6.750  19.492  0.00  0.00    +0.000 C 
ATOM     17  O   UNL     1       2.512   7.734  18.807  0.00  0.00    +0.000 OA
ATOM     18  N   UNL     1       1.629   6.911  20.760  0.00  0.00    +0.000 N 
ATOM     19  H   UNL     1       1.547   6.109  21.381  0.00  0.00    +0.000 HD
BRANCH  18  20
ATOM     20  C   UNL     1       1.560   8.261  21.316  0.00  0.00    +0.000 C 
BRANCH  20  21
ATOM     21  C   UNL     1       0.156   8.776  21.652  0.00  0.00    +0.000 C 
BRANCH  21  22
ATOM     22  C   UNL     1      -0.170  10.033  20.863  0.00  0.00    +0.000 A 
ATOM     23  C   UNL     1      -0.418  11.242  21.528  0.00  0.00    +0.000 A 
ATOM     24  C   UNL     1      -0.815  12.379  20.816  0.00  0.00    +0.000 A 
ATOM     25  C   UNL     1      -0.974  12.323  19.434  0.00  0.00    +0.000 A 
ATOM     26  C   UNL     1      -0.705  11.134  18.757  0.00  0.00    +0.000 A 
ATOM     27  C   UNL     1      -0.296  10.000  19.465  0.00  0.00    +0.000 A 
ENDBRANCH  21  22
ENDBRANCH  20  21
ENDBRANCH  18  20
ENDBRANCH  15  16
ENDBRANCH   1  15
TORSDOF 8
ENDMDL
MODEL 8
REMARK VINA RESULT:      -7.6      1.230      1.468
REMARK  Name = 
REMARK  9 active torsions:
REMARK  status: ('A' for Active; 'I' for Inactive)
REMARK    1  A    between atoms: C_1  and  O_2
REMARK    2  A    between atoms: O_2  and  C_3
REMARK    3  A    between atoms: C_6  and  N_7
REMARK    4  A    between atoms: N_7  and  C_8
REMARK    5  A    between atoms: C_8  and  C_9
REMARK    6  A    between atoms: N_11  and  C_12
REMARK    7  A    between atoms: C_12  and  C_13
REMARK    8  A    between atoms: C_13  and  C_14
REMARK    9  A    between atoms: C_20  and  C_22
REMARK                            x       y       z     vdW  Elec       q    Type
REMARK                         _______ _______ _______ _____ _____    ______ ____
ROOT
ATOM      1  N   UNL     1       5.827   5.064  16.764  0.00  0.00    +0.000 N 
ATOM      2  C   UNL     1       5.566   4.609  15.431  0.00  0.00    +0.000 C 
ATOM      3  O   UNL     1       4.447   4.379  14.954  0.00  0.00    +0.000 OA
ENDROOT
BRANCH   1   7
ATOM      4  C   UNL     1       2.665   5.933  19.609  0.00  0.00    +0.000 A 
ATOM      5  C   UNL     1       3.031   6.829  18.623  0.00  0.00    +0.000 A 
ATOM      6  C   UNL     1       3.983   6.517  17.645  0.00  0.00    +0.000 A 
ATOM      7  C   UNL     1       4.723   5.330  17.685  0.00  0.00    +0.000 A 
ATOM      8  C   UNL     1       4.330   4.438  18.692  0.00  0.00    +0.000 A 
ATOM      9  C   UNL     1       3.304   4.695  19.619  0.00  0.00    +0.000 A 
ATOM     10 CL   UNL     1       2.819   3.392  20.647  0.00  0.00    +0.000 Cl
BRANCH   4  12
ATOM     11  C   UNL     1       1.613   7.667  20.761  0.00  0.00    +0.000 C 
ATOM     12  O   UNL     1       1.714   6.250  20.545  0.00  0.00    +0.000 OA
ENDBRANCH   4  12
ENDBRANCH   1   7
BRANCH   2  13
ATOM     13  C   UNL     1       6.779   4.397  14.509  0.00  0.00    +0.000 C 
ATOM     14 CL   UNL     1       6.278   3.633  12.984  0.00  0.00    +0.000 Cl
ENDBRANCH   2  13
BRANCH   1  15
ATOM     15  C   UNL     1       7.242   5.347  17.153  0.00  0.00    +0.000 C 
BRANCH  15  16
ATOM     16  C   UNL     1       7.753   6.489  18.029  0.00  0.00    +0.000 C 
ATOM     17  O   UNL     1       8.103   6.277  19.213  0.00  0.00    +0.000 OA
ATOM     18  N   UNL     1       7.786   7.759  17.488  0.00  0.00    +0.000 N 
ATOM     19  H   UNL     1       7.300   7.950  16.614  0.00  0.00    +0.000 HD
BRANCH  18  20
ATOM     20  C   UNL     1       8.186   8.870  18.348  0.00  0.00    +0.000 C 
BRANCH  20  21
ATOM     21  C   UNL     1       8.667  10.135  17.628  0.00  0.00    +0.000 C 
BRANCH  21  22
ATOM     22  C   UNL     1       9.695  10.882  18.460  0.00  0.00    +0.000 A 
ATOM     23  C   UNL     1       9.577  10.928  19.857  0.00  0.00    +0.000 A 
ATOM     24  C   UNL     1      10.461  11.695  20.623  0.00  0.00    +0.000 A 
ATOM     25  C   UNL     1      11.471  12.430  20.005  0.00  0.00    +0.000 A 
ATOM     26  C   UNL     1      11.616  12.371  18.620  0.00  0.00    +0.000 A 
ATOM     27  C   UNL     1      10.741  11.595  17.853  0.00  0.00    +0.000 A 
ENDBRANCH  21  22
ENDBRANCH  20  21
ENDBRANCH  18  20
ENDBRANCH  15  16
ENDBRANCH   1  15
TORSDOF 8
ENDMDL
MODEL 9
REMARK VINA RESULT:      -7.6      4.887      7.693
REMARK  Name = 
REMARK  9 active torsions:
REMARK  status: ('A' for Active; 'I' for Inactive)
REMARK    1  A    between atoms: C_1  and  O_2
REMARK    2  A    between atoms: O_2  and  C_3
REMARK    3  A    between atoms: C_6  and  N_7
REMARK    4  A    between atoms: N_7  and  C_8
REMARK    5  A    between atoms: C_8  and  C_9
REMARK    6  A    between atoms: N_11  and  C_12
REMARK    7  A    between atoms: C_12  and  C_13
REMARK    8  A    between atoms: C_13  and  C_14
REMARK    9  A    between atoms: C_20  and  C_22
REMARK                            x       y       z     vdW  Elec       q    Type
REMARK                         _______ _______ _______ _____ _____    ______ ____
ROOT
ATOM      1  N   UNL     1       2.979   4.366  19.324  0.00  0.00    +0.000 N 
ATOM      2  C   UNL     1       2.256   3.132  19.257  0.00  0.00    +0.000 C 
ATOM      3  O   UNL     1       2.498   2.196  18.483  0.00  0.00    +0.000 OA
ENDROOT
BRANCH   1   7
ATOM      4  C   UNL     1       6.426   4.873  16.734  0.00  0.00    +0.000 A 
ATOM      5  C   UNL     1       5.154   4.681  16.232  0.00  0.00    +0.000 A 
ATOM      6  C   UNL     1       4.025   4.612  17.058  0.00  0.00    +0.000 A 
ATOM      7  C   UNL     1       4.131   4.597  18.454  0.00  0.00    +0.000 A 
ATOM      8  C   UNL     1       5.431   4.797  18.937  0.00  0.00    +0.000 A 
ATOM      9  C   UNL     1       6.561   4.971  18.117  0.00  0.00    +0.000 A 
ATOM     10 CL   UNL     1       8.041   5.419  18.890  0.00  0.00    +0.000 Cl
BRANCH   4  12
ATOM     11  C   UNL     1       7.168   4.760  14.525  0.00  0.00    +0.000 C 
ATOM     12  O   UNL     1       7.516   4.960  15.905  0.00  0.00    +0.000 OA
ENDBRANCH   4  12
ENDBRANCH   1   7
BRANCH   2  13
ATOM     13  C   UNL     1       1.085   2.947  20.237  0.00  0.00    +0.000 C 
ATOM     14 CL   UNL     1       1.681   2.447  21.835  0.00  0.00    +0.000 Cl
ENDBRANCH   2  13
BRANCH   1  15
ATOM     15  C   UNL     1       2.583   5.364  20.363  0.00  0.00    +0.000 C 
BRANCH  15  16
ATOM     16  C   UNL     1       2.102   6.797  20.139  0.00  0.00    +0.000 C 
ATOM     17  O   UNL     1       2.295   7.369  19.042  0.00  0.00    +0.000 OA
ATOM     18  N   UNL     1       1.483   7.446  21.188  0.00  0.00    +0.000 N 
ATOM     19  H   UNL     1       1.530   7.053  22.126  0.00  0.00    +0.000 HD
BRANCH  18  20
ATOM     20  C   UNL     1       1.102   8.846  21.011  0.00  0.00    +0.000 C 
BRANCH  20  21
ATOM     21  C   UNL     1      -0.271   9.241  21.565  0.00  0.00    +0.000 C 
BRANCH  21  22
ATOM     22  C   UNL     1      -0.332  10.729  21.868  0.00  0.00    +0.000 A 
ATOM     23  C   UNL     1      -1.185  11.214  22.869  0.00  0.00    +0.000 A 
ATOM     24  C   UNL     1      -1.321  12.589  23.087  0.00  0.00    +0.000 A 
ATOM     25  C   UNL     1      -0.610  13.497  22.305  0.00  0.00    +0.000 A 
ATOM     26  C   UNL     1       0.262  13.028  21.324  0.00  0.00    +0.000 A 
ATOM     27  C   UNL     1       0.408  11.654  21.113  0.00  0.00    +0.000 A 
ENDBRANCH  21  22
ENDBRANCH  20  21
ENDBRANCH  18  20
ENDBRANCH  15  16
ENDBRANCH   1  15
TORSDOF 8
ENDMDL
