MODEL 1
REMARK VINA RESULT:      -7.4      0.000      0.000
REMARK  Name = 
REMARK  7 active torsions:
REMARK  status: ('A' for Active; 'I' for Inactive)
REMARK    1  A    between atoms: C_1  and  O_2
REMARK    2  A    between atoms: O_2  and  C_3
REMARK    3  A    between atoms: N_8  and  C_9
REMARK    4  A    between atoms: C_9  and  C_10
REMARK    5  A    between atoms: C_13  and  N_14
REMARK    6  A    between atoms: C_22  and  O_23
REMARK    7  A    between atoms: O_23  and  C_24
REMARK                            x       y       z     vdW  Elec       q    Type
REMARK                         _______ _______ _______ _____ _____    ______ ____
ROOT
ATOM      1  C   UNL     1       0.398  11.244  20.668  0.00  0.00    +0.000 A 
ATOM      2  C   UNL     1       0.966  10.727  19.491  0.00  0.00    +0.000 A 
ATOM      3  C   UNL     1       1.357   9.383  19.405  0.00  0.00    +0.000 A 
ATOM      4  C   UNL     1       1.826   8.829  18.209  0.00  0.00    +0.000 A 
ATOM      5  C   UNL     1       2.153   7.480  18.159  0.00  0.00    +0.000 A 
ATOM      6  N   UNL     1       2.047   6.700  19.258  0.00  0.00    +0.000 N 
ATOM      7  C   UNL     1       1.616   7.220  20.432  0.00  0.00    +0.000 A 
ATOM      8  C   UNL     1       1.253   8.564  20.536  0.00  0.00    +0.000 A 
ATOM      9  C   UNL     1       0.782   9.113  21.737  0.00  0.00    +0.000 A 
ATOM     10  C   UNL     1       0.347  10.444  21.816  0.00  0.00    +0.000 A 
ENDROOT
BRANCH   1  12
ATOM     11  C   UNL     1       0.875  13.533  21.070  0.00  0.00    +0.000 C 
ATOM     12  O   UNL     1      -0.075  12.526  20.708  0.00  0.00    +0.000 OA
ENDBRANCH   1  12
BRANCH  10  13
ATOM     13  O   UNL     1      -0.112  10.751  23.067  0.00  0.00    +0.000 OA
ATOM     14  C   UNL     1      -1.496  11.013  23.256  0.00  0.00    +0.000 C 
ENDBRANCH  10  13
BRANCH   6  15
ATOM     15  C   UNL     1       2.433   5.267  19.187  0.00  0.00    +0.000 C 
BRANCH  15  16
ATOM     16  C   UNL     1       3.790   5.149  18.539  0.00  0.00    +0.000 A 
ATOM     17  C   UNL     1       3.940   4.468  17.319  0.00  0.00    +0.000 A 
ATOM     18  C   UNL     1       5.212   4.232  16.787  0.00  0.00    +0.000 A 
ATOM     19  C   UNL     1       6.345   4.685  17.475  0.00  0.00    +0.000 A 
ATOM     20  C   UNL     1       6.208   5.405  18.666  0.00  0.00    +0.000 A 
ATOM     21  C   UNL     1       4.935   5.637  19.195  0.00  0.00    +0.000 A 
BRANCH  19  22
ATOM     22  N   UNL     1       7.685   4.365  16.964  0.00  0.00    +0.000 N 
ATOM     23  O   UNL     1       8.539   4.005  17.784  0.00  0.00    +0.000 OA
ATOM     24  O   UNL     1       7.880   4.501  15.749  0.00  0.00    +0.000 OA
ENDBRANCH  19  22
ENDBRANCH  15  16
ENDBRANCH   6  15
TORSDOF 5
ENDMDL
MODEL 2
REMARK VINA RESULT:      -7.4      3.429      8.819
REMARK  Name = 
REMARK  7 active torsions:
REMARK  status: ('A' for Active; 'I' for Inactive)
REMARK    1  A    between atoms: C_1  and  O_2
REMARK    2  A    between atoms: O_2  and  C_3
REMARK    3  A    between atoms: N_8  and  C_9
REMARK    4  A    between atoms: C_9  and  C_10
REMARK    5  A    between atoms: C_13  and  N_14
REMARK    6  A    between atoms: C_22  and  O_23
REMARK    7  A    between atoms: O_23  and  C_24
REMARK                            x       y       z     vdW  Elec       q    Type
REMARK                         _______ _______ _______ _____ _____    ______ ____
ROOT
ATOM      1  C   UNL     1       2.814   4.369  19.938  0.00  0.00    +0.000 A 
ATOM      2  C   UNL     1       2.252   5.376  20.743  0.00  0.00    +0.000 A 
ATOM      3  C   UNL     1       1.999   6.657  20.231  0.00  0.00    +0.000 A 
ATOM      4  C   UNL     1       1.346   7.635  20.989  0.00  0.00    +0.000 A 
ATOM      5  C   UNL     1       1.072   8.873  20.421  0.00  0.00    +0.000 A 
ATOM      6  N   UNL     1       1.450   9.153  19.154  0.00  0.00    +0.000 N 
ATOM      7  C   UNL     1       2.103   8.229  18.409  0.00  0.00    +0.000 A 
ATOM      8  C   UNL     1       2.386   6.961  18.921  0.00  0.00    +0.000 A 
ATOM      9  C   UNL     1       3.040   5.984  18.156  0.00  0.00    +0.000 A 
ATOM     10  C   UNL     1       3.254   4.688  18.648  0.00  0.00    +0.000 A 
ENDROOT
BRANCH   1  12
ATOM     11  C   UNL     1       2.079   2.722  21.477  0.00  0.00    +0.000 C 
ATOM     12  O   UNL     1       2.960   3.097  20.415  0.00  0.00    +0.000 OA
ENDBRANCH   1  12
BRANCH  10  13
ATOM     13  O   UNL     1       3.865   3.891  17.719  0.00  0.00    +0.000 OA
ATOM     14  C   UNL     1       4.687   4.486  16.725  0.00  0.00    +0.000 C 
ENDBRANCH  10  13
BRANCH   6  15
ATOM     15  C   UNL     1       1.173  10.496  18.580  0.00  0.00    +0.000 C 
BRANCH  15  16
ATOM     16  C   UNL     1      -0.318  10.713  18.521  0.00  0.00    +0.000 A 
ATOM     17  C   UNL     1      -1.112   9.974  17.627  0.00  0.00    +0.000 A 
ATOM     18  C   UNL     1      -2.469  10.271  17.466  0.00  0.00    +0.000 A 
ATOM     19  C   UNL     1      -3.043  11.311  18.208  0.00  0.00    +0.000 A 
ATOM     20  C   UNL     1      -2.277  12.024  19.137  0.00  0.00    +0.000 A 
ATOM     21  C   UNL     1      -0.920  11.725  19.293  0.00  0.00    +0.000 A 
BRANCH  19  22
ATOM     22  N   UNL     1      -4.447  11.683  17.980  0.00  0.00    +0.000 N 
ATOM     23  O   UNL     1      -4.830  11.774  16.808  0.00  0.00    +0.000 OA
ATOM     24  O   UNL     1      -5.146  11.905  18.977  0.00  0.00    +0.000 OA
ENDBRANCH  19  22
ENDBRANCH  15  16
ENDBRANCH   6  15
TORSDOF 5
ENDMDL
MODEL 3
REMARK VINA RESULT:      -7.3      0.924      1.500
REMARK  Name = 
REMARK  7 active torsions:
REMARK  status: ('A' for Active; 'I' for Inactive)
REMARK    1  A    between atoms: C_1  and  O_2
REMARK    2  A    between atoms: O_2  and  C_3
REMARK    3  A    between atoms: N_8  and  C_9
REMARK    4  A    between atoms: C_9  and  C_10
REMARK    5  A    between atoms: C_13  and  N_14
REMARK    6  A    between atoms: C_22  and  O_23
REMARK    7  A    between atoms: O_23  and  C_24
REMARK                            x       y       z     vdW  Elec       q    Type
REMARK                         _______ _______ _______ _____ _____    ______ ____
ROOT
ATOM      1  C   UNL     1       0.544  11.436  19.942  0.00  0.00    +0.000 A 
ATOM      2  C   UNL     1       1.128  10.680  18.910  0.00  0.00    +0.000 A 
ATOM      3  C   UNL     1       1.497   9.342  19.112  0.00  0.00    +0.000 A 
ATOM      4  C   UNL     1       1.981   8.548  18.067  0.00  0.00    +0.000 A 
ATOM      5  C   UNL     1       2.287   7.214  18.303  0.00  0.00    +0.000 A 
ATOM      6  N   UNL     1       2.144   6.678  19.536  0.00  0.00    +0.000 N 
ATOM      7  C   UNL     1       1.698   7.434  20.568  0.00  0.00    +0.000 A 
ATOM      8  C   UNL     1       1.356   8.775  20.385  0.00  0.00    +0.000 A 
ATOM      9  C   UNL     1       0.870   9.565  21.436  0.00  0.00    +0.000 A 
ATOM     10  C   UNL     1       0.456  10.890  21.229  0.00  0.00    +0.000 A 
ENDROOT
BRANCH   1  12
ATOM     11  C   UNL     1      -0.647  12.890  18.496  0.00  0.00    +0.000 C 
ATOM     12  O   UNL     1       0.093  12.704  19.706  0.00  0.00    +0.000 OA
ENDBRANCH   1  12
BRANCH  10  13
ATOM     13  O   UNL     1      -0.024  11.454  22.379  0.00  0.00    +0.000 OA
ATOM     14  C   UNL     1      -1.412  11.367  22.670  0.00  0.00    +0.000 C 
ENDBRANCH  10  13
BRANCH   6  15
ATOM     15  C   UNL     1       2.507   5.257  19.771  0.00  0.00    +0.000 C 
BRANCH  15  16
ATOM     16  C   UNL     1       3.654   4.880  18.867  0.00  0.00    +0.000 A 
ATOM     17  C   UNL     1       4.970   5.252  19.192  0.00  0.00    +0.000 A 
ATOM     18  C   UNL     1       6.016   5.031  18.290  0.00  0.00    +0.000 A 
ATOM     19  C   UNL     1       5.749   4.429  17.054  0.00  0.00    +0.000 A 
ATOM     20  C   UNL     1       4.453   4.011  16.736  0.00  0.00    +0.000 A 
ATOM     21  C   UNL     1       3.410   4.235  17.640  0.00  0.00    +0.000 A 
BRANCH  19  22
ATOM     22  N   UNL     1       6.829   4.274  16.069  0.00  0.00    +0.000 N 
ATOM     23  O   UNL     1       6.511   3.943  14.920  0.00  0.00    +0.000 OA
ATOM     24  O   UNL     1       7.988   4.459  16.461  0.00  0.00    +0.000 OA
ENDBRANCH  19  22
ENDBRANCH  15  16
ENDBRANCH   6  15
TORSDOF 5
ENDMDL
MODEL 4
REMARK VINA RESULT:      -7.3      1.360      1.596
REMARK  Name = 
REMARK  7 active torsions:
REMARK  status: ('A' for Active; 'I' for Inactive)
REMARK    1  A    between atoms: C_1  and  O_2
REMARK    2  A    between atoms: O_2  and  C_3
REMARK    3  A    between atoms: N_8  and  C_9
REMARK    4  A    between atoms: C_9  and  C_10
REMARK    5  A    between atoms: C_13  and  N_14
REMARK    6  A    between atoms: C_22  and  O_23
REMARK    7  A    between atoms: O_23  and  C_24
REMARK                            x       y       z     vdW  Elec       q    Type
REMARK                         _______ _______ _______ _____ _____    ______ ____
ROOT
ATOM      1  C   UNL     1      -0.104  11.432  19.896  0.00  0.00    +0.000 A 
ATOM      2  C   UNL     1       0.457  10.823  18.760  0.00  0.00    +0.000 A 
ATOM      3  C   UNL     1       1.139   9.601  18.855  0.00  0.00    +0.000 A 
ATOM      4  C   UNL     1       1.611   8.933  17.721  0.00  0.00    +0.000 A 
ATOM      5  C   UNL     1       2.237   7.701  17.861  0.00  0.00    +0.000 A 
ATOM      6  N   UNL     1       2.417   7.150  19.082  0.00  0.00    +0.000 N 
ATOM      7  C   UNL     1       1.988   7.789  20.196  0.00  0.00    +0.000 A 
ATOM      8  C   UNL     1       1.334   9.020  20.114  0.00  0.00    +0.000 A 
ATOM      9  C   UNL     1       0.862   9.685  21.255  0.00  0.00    +0.000 A 
ATOM     10  C   UNL     1       0.139  10.883  21.161  0.00  0.00    +0.000 A 
ENDROOT
BRANCH   1  12
ATOM     11  C   UNL     1      -2.271  12.377  19.701  0.00  0.00    +0.000 C 
ATOM     12  O   UNL     1      -0.856  12.568  19.777  0.00  0.00    +0.000 OA
ENDBRANCH   1  12
BRANCH  10  13
ATOM     13  O   UNL     1      -0.261  11.329  22.391  0.00  0.00    +0.000 OA
ATOM     14  C   UNL     1      -1.050  10.483  23.215  0.00  0.00    +0.000 C 
ENDBRANCH  10  13
BRANCH   6  15
ATOM     15  C   UNL     1       3.117   5.845  19.208  0.00  0.00    +0.000 C 
BRANCH  15  16
ATOM     16  C   UNL     1       3.958   5.611  17.978  0.00  0.00    +0.000 A 
ATOM     17  C   UNL     1       3.853   4.406  17.262  0.00  0.00    +0.000 A 
ATOM     18  C   UNL     1       4.729   4.125  16.209  0.00  0.00    +0.000 A 
ATOM     19  C   UNL     1       5.716   5.057  15.861  0.00  0.00    +0.000 A 
ATOM     20  C   UNL     1       5.801   6.281  16.534  0.00  0.00    +0.000 A 
ATOM     21  C   UNL     1       4.924   6.557  17.587  0.00  0.00    +0.000 A 
BRANCH  19  22
ATOM     22  N   UNL     1       6.692   4.730  14.812  0.00  0.00    +0.000 N 
ATOM     23  O   UNL     1       6.391   3.837  14.010  0.00  0.00    +0.000 OA
ATOM     24  O   UNL     1       7.762   5.351  14.817  0.00  0.00    +0.000 OA
ENDBRANCH  19  22
ENDBRANCH  15  16
ENDBRANCH   6  15
TORSDOF 5
ENDMDL
MODEL 5
REMARK VINA RESULT:      -7.2      1.504      1.938
REMARK  Name = 
REMARK  7 active torsions:
REMARK  status: ('A' for Active; 'I' for Inactive)
REMARK    1  A    between atoms: C_1  and  O_2
REMARK    2  A    between atoms: O_2  and  C_3
REMARK    3  A    between atoms: N_8  and  C_9
REMARK    4  A    between atoms: C_9  and  C_10
REMARK    5  A    between atoms: C_13  and  N_14
REMARK    6  A    between atoms: C_22  and  O_23
REMARK    7  A    between atoms: O_23  and  C_24
REMARK                            x       y       z     vdW  Elec       q    Type
REMARK                         _______ _______ _______ _____ _____    ______ ____
ROOT
ATOM      1  C   UNL     1       0.109  10.686  19.624  0.00  0.00    +0.000 A 
ATOM      2  C   UNL     1       0.981  10.193  18.638  0.00  0.00    +0.000 A 
ATOM      3  C   UNL     1       1.677   8.989  18.822  0.00  0.00    +0.000 A 
ATOM      4  C   UNL     1       2.465   8.434  17.808  0.00  0.00    +0.000 A 
ATOM      5  C   UNL     1       3.095   7.214  18.019  0.00  0.00    +0.000 A 
ATOM      6  N   UNL     1       2.976   6.568  19.200  0.00  0.00    +0.000 N 
ATOM      7  C   UNL     1       2.236   7.097  20.204  0.00  0.00    +0.000 A 
ATOM      8  C   UNL     1       1.563   8.310  20.041  0.00  0.00    +0.000 A 
ATOM      9  C   UNL     1       0.773   8.861  21.060  0.00  0.00    +0.000 A 
ATOM     10  C   UNL     1       0.038  10.040  20.864  0.00  0.00    +0.000 A 
ENDROOT
BRANCH   1  12
ATOM     11  C   UNL     1      -2.010  11.576  19.038  0.00  0.00    +0.000 C 
ATOM     12  O   UNL     1      -0.643  11.804  19.393  0.00  0.00    +0.000 OA
ENDBRANCH   1  12
BRANCH  10  13
ATOM     13  O   UNL     1      -0.694  10.367  21.972  0.00  0.00    +0.000 OA
ATOM     14  C   UNL     1      -0.571   9.577  23.146  0.00  0.00    +0.000 C 
ENDBRANCH  10  13
BRANCH   6  15
ATOM     15  C   UNL     1       3.685   5.280  19.413  0.00  0.00    +0.000 C 
BRANCH  15  16
ATOM     16  C   UNL     1       4.534   4.974  18.204  0.00  0.00    +0.000 A 
ATOM     17  C   UNL     1       5.890   5.341  18.173  0.00  0.00    +0.000 A 
ATOM     18  C   UNL     1       6.643   5.189  17.004  0.00  0.00    +0.000 A 
ATOM     19  C   UNL     1       6.040   4.660  15.856  0.00  0.00    +0.000 A 
ATOM     20  C   UNL     1       4.704   4.246  15.886  0.00  0.00    +0.000 A 
ATOM     21  C   UNL     1       3.955   4.401  17.056  0.00  0.00    +0.000 A 
BRANCH  19  22
ATOM     22  N   UNL     1       6.802   4.579  14.602  0.00  0.00    +0.000 N 
ATOM     23  O   UNL     1       7.724   5.388  14.441  0.00  0.00    +0.000 OA
ATOM     24  O   UNL     1       6.455   3.723  13.779  0.00  0.00    +0.000 OA
ENDBRANCH  19  22
ENDBRANCH  15  16
ENDBRANCH   6  15
TORSDOF 5
ENDMDL
MODEL 6
REMARK VINA RESULT:      -7.2      3.359      8.779
REMARK  Name = 
REMARK  7 active torsions:
REMARK  status: ('A' for Active; 'I' for Inactive)
REMARK    1  A    between atoms: C_1  and  O_2
REMARK    2  A    between atoms: O_2  and  C_3
REMARK    3  A    between atoms: N_8  and  C_9
REMARK    4  A    between atoms: C_9  and  C_10
REMARK    5  A    between atoms: C_13  and  N_14
REMARK    6  A    between atoms: C_22  and  O_23
REMARK    7  A    between atoms: O_23  and  C_24
REMARK                            x       y       z     vdW  Elec       q    Type
REMARK                         _______ _______ _______ _____ _____    ______ ____
ROOT
ATOM      1  C   UNL     1       2.501   4.267  19.915  0.00  0.00    +0.000 A 
ATOM      2  C   UNL     1       2.021   5.325  20.706  0.00  0.00    +0.000 A 
ATOM      3  C   UNL     1       1.887   6.620  20.182  0.00  0.00    +0.000 A 
ATOM      4  C   UNL     1       1.314   7.657  20.925  0.00  0.00    +0.000 A 
ATOM      5  C   UNL     1       1.157   8.910  20.345  0.00  0.00    +0.000 A 
ATOM      6  N   UNL     1       1.573   9.146  19.081  0.00  0.00    +0.000 N 
ATOM      7  C   UNL     1       2.151   8.162  18.351  0.00  0.00    +0.000 A 
ATOM      8  C   UNL     1       2.316   6.878  18.874  0.00  0.00    +0.000 A 
ATOM      9  C   UNL     1       2.890   5.842  18.125  0.00  0.00    +0.000 A 
ATOM     10  C   UNL     1       2.983   4.535  18.628  0.00  0.00    +0.000 A 
ENDROOT
BRANCH   1  12
ATOM     11  C   UNL     1       1.576   2.691  21.426  0.00  0.00    +0.000 C 
ATOM     12  O   UNL     1       2.529   2.990  20.402  0.00  0.00    +0.000 OA
ENDBRANCH   1  12
BRANCH  10  13
ATOM     13  O   UNL     1       3.533   3.680  17.712  0.00  0.00    +0.000 OA
ATOM     14  C   UNL     1       4.526   4.163  16.819  0.00  0.00    +0.000 C 
ENDBRANCH  10  13
BRANCH   6  15
ATOM     15  C   UNL     1       1.422  10.503  18.495  0.00  0.00    +0.000 C 
BRANCH  15  16
ATOM     16  C   UNL     1      -0.044  10.840  18.391  0.00  0.00    +0.000 A 
ATOM     17  C   UNL     1      -0.573  11.942  19.085  0.00  0.00    +0.000 A 
ATOM     18  C   UNL     1      -1.952  12.175  19.108  0.00  0.00    +0.000 A 
ATOM     19  C   UNL     1      -2.812  11.304  18.427  0.00  0.00    +0.000 A 
ATOM     20  C   UNL     1      -2.296  10.231  17.693  0.00  0.00    +0.000 A 
ATOM     21  C   UNL     1      -0.918  10.001  17.674  0.00  0.00    +0.000 A 
BRANCH  19  22
ATOM     22  N   UNL     1      -4.266  11.495  18.519  0.00  0.00    +0.000 N 
ATOM     23  O   UNL     1      -4.681  12.357  19.304  0.00  0.00    +0.000 OA
ATOM     24  O   UNL     1      -4.982  10.762  17.825  0.00  0.00    +0.000 OA
ENDBRANCH  19  22
ENDBRANCH  15  16
ENDBRANCH   6  15
TORSDOF 5
ENDMDL
MODEL 7
REMARK VINA RESULT:      -7.1      2.041      3.481
REMARK  Name = 
REMARK  7 active torsions:
REMARK  status: ('A' for Active; 'I' for Inactive)
REMARK    1  A    between atoms: C_1  and  O_2
REMARK    2  A    between atoms: O_2  and  C_3
REMARK    3  A    between atoms: N_8  and  C_9
REMARK    4  A    between atoms: C_9  and  C_10
REMARK    5  A    between atoms: C_13  and  N_14
REMARK    6  A    between atoms: C_22  and  O_23
REMARK    7  A    between atoms: O_23  and  C_24
REMARK                            x       y       z     vdW  Elec       q    Type
REMARK                         _______ _______ _______ _____ _____    ______ ____
ROOT
ATOM      1  C   UNL     1       1.148   9.083  19.589  0.00  0.00    +0.000 A 
ATOM      2  C   UNL     1       1.210   7.856  20.272  0.00  0.00    +0.000 A 
ATOM      3  C   UNL     1       2.073   6.834  19.851  0.00  0.00    +0.000 A 
ATOM      4  C   UNL     1       2.221   5.650  20.581  0.00  0.00    +0.000 A 
ATOM      5  C   UNL     1       3.126   4.687  20.151  0.00  0.00    +0.000 A 
ATOM      6  N   UNL     1       3.847   4.869  19.023  0.00  0.00    +0.000 N 
ATOM      7  C   UNL     1       3.704   5.998  18.288  0.00  0.00    +0.000 A 
ATOM      8  C   UNL     1       2.825   7.008  18.683  0.00  0.00    +0.000 A 
ATOM      9  C   UNL     1       2.682   8.194  17.948  0.00  0.00    +0.000 A 
ATOM     10  C   UNL     1       1.856   9.238  18.390  0.00  0.00    +0.000 A 
ENDROOT
BRANCH   1  12
ATOM     11  C   UNL     1       0.837  10.715  21.281  0.00  0.00    +0.000 C 
ATOM     12  O   UNL     1       0.382  10.109  20.068  0.00  0.00    +0.000 OA
ENDBRANCH   1  12
BRANCH  10  13
ATOM     13  O   UNL     1       1.903  10.312  17.545  0.00  0.00    +0.000 OA
ATOM     14  C   UNL     1       2.512  11.517  17.985  0.00  0.00    +0.000 C 
ENDBRANCH  10  13
BRANCH   6  15
ATOM     15  C   UNL     1       4.786   3.811  18.567  0.00  0.00    +0.000 C 
BRANCH  15  16
ATOM     16  C   UNL     1       5.423   4.237  17.268  0.00  0.00    +0.000 A 
ATOM     17  C   UNL     1       4.757   4.035  16.047  0.00  0.00    +0.000 A 
ATOM     18  C   UNL     1       5.399   4.296  14.833  0.00  0.00    +0.000 A 
ATOM     19  C   UNL     1       6.718   4.770  14.835  0.00  0.00    +0.000 A 
ATOM     20  C   UNL     1       7.377   5.021  16.043  0.00  0.00    +0.000 A 
ATOM     21  C   UNL     1       6.731   4.757  17.255  0.00  0.00    +0.000 A 
BRANCH  19  22
ATOM     22  N   UNL     1       7.426   4.964  13.562  0.00  0.00    +0.000 N 
ATOM     23  O   UNL     1       8.345   5.792  13.541  0.00  0.00    +0.000 OA
ATOM     24  O   UNL     1       7.039   4.305  12.589  0.00  0.00    +0.000 OA
ENDBRANCH  19  22
ENDBRANCH  15  16
ENDBRANCH   6  15
TORSDOF 5
ENDMDL
MODEL 8
REMARK VINA RESULT:      -7.1      3.309      8.824
REMARK  Name = 
REMARK  7 active torsions:
REMARK  status: ('A' for Active; 'I' for Inactive)
REMARK    1  A    between atoms: C_1  and  O_2
REMARK    2  A    between atoms: O_2  and  C_3
REMARK    3  A    between atoms: N_8  and  C_9
REMARK    4  A    between atoms: C_9  and  C_10
REMARK    5  A    between atoms: C_13  and  N_14
REMARK    6  A    between atoms: C_22  and  O_23
REMARK    7  A    between atoms: O_23  and  C_24
REMARK                            x       y       z     vdW  Elec       q    Type
REMARK                         _______ _______ _______ _____ _____    ______ ____
ROOT
ATOM      1  C   UNL     1       3.397   4.511  18.836  0.00  0.00    +0.000 A 
ATOM      2  C   UNL     1       2.743   5.258  19.831  0.00  0.00    +0.000 A 
ATOM      3  C   UNL     1       2.372   6.592  19.610  0.00  0.00    +0.000 A 
ATOM      4  C   UNL     1       1.629   7.314  20.550  0.00  0.00    +0.000 A 
ATOM      5  C   UNL     1       1.241   8.617  20.265  0.00  0.00    +0.000 A 
ATOM      6  N   UNL     1       1.594   9.206  19.100  0.00  0.00    +0.000 N 
ATOM      7  C   UNL     1       2.332   8.534  18.184  0.00  0.00    +0.000 A 
ATOM      8  C   UNL     1       2.731   7.215  18.408  0.00  0.00    +0.000 A 
ATOM      9  C   UNL     1       3.475   6.496  17.461  0.00  0.00    +0.000 A 
ATOM     10  C   UNL     1       3.808   5.147  17.658  0.00  0.00    +0.000 A 
ENDROOT
BRANCH   1  12
ATOM     11  C   UNL     1       2.520   2.327  19.121  0.00  0.00    +0.000 C 
ATOM     12  O   UNL     1       3.661   3.183  19.022  0.00  0.00    +0.000 OA
ENDBRANCH   1  12
BRANCH  10  13
ATOM     13  O   UNL     1       4.493   4.636  16.590  0.00  0.00    +0.000 OA
ATOM     14  C   UNL     1       5.267   5.508  15.778  0.00  0.00    +0.000 C 
ENDBRANCH  10  13
BRANCH   6  15
ATOM     15  C   UNL     1       1.194  10.611  18.831  0.00  0.00    +0.000 C 
BRANCH  15  16
ATOM     16  C   UNL     1      -0.296  10.669  18.601  0.00  0.00    +0.000 A 
ATOM     17  C   UNL     1      -0.901   9.844  17.638  0.00  0.00    +0.000 A 
ATOM     18  C   UNL     1      -2.255   9.994  17.321  0.00  0.00    +0.000 A 
ATOM     19  C   UNL     1      -3.015  10.973  17.974  0.00  0.00    +0.000 A 
ATOM     20  C   UNL     1      -2.437  11.769  18.969  0.00  0.00    +0.000 A 
ATOM     21  C   UNL     1      -1.083  11.617  19.282  0.00  0.00    +0.000 A 
BRANCH  19  22
ATOM     22  N   UNL     1      -4.415  11.192  17.584  0.00  0.00    +0.000 N 
ATOM     23  O   UNL     1      -5.279  11.067  18.461  0.00  0.00    +0.000 OA
ATOM     24  O   UNL     1      -4.640  11.461  16.397  0.00  0.00    +0.000 OA
ENDBRANCH  19  22
ENDBRANCH  15  16
ENDBRANCH   6  15
TORSDOF 5
ENDMDL
MODEL 9
REMARK VINA RESULT:      -7.1      1.895      2.201
REMARK  Name = 
REMARK  7 active torsions:
REMARK  status: ('A' for Active; 'I' for Inactive)
REMARK    1  A    between atoms: C_1  and  O_2
REMARK    2  A    between atoms: O_2  and  C_3
REMARK    3  A    between atoms: N_8  and  C_9
REMARK    4  A    between atoms: C_9  and  C_10
REMARK    5  A    between atoms: C_13  and  N_14
REMARK    6  A    between atoms: C_22  and  O_23
REMARK    7  A    between atoms: O_23  and  C_24
REMARK                            x       y       z     vdW  Elec       q    Type
REMARK                         _______ _______ _______ _____ _____    ______ ____
ROOT
ATOM      1  C   UNL     1       0.041   9.807  20.170  0.00  0.00    +0.000 A 
ATOM      2  C   UNL     1       0.908   9.673  19.071  0.00  0.00    +0.000 A 
ATOM      3  C   UNL     1       1.773   8.575  18.959  0.00  0.00    +0.000 A 
ATOM      4  C   UNL     1       2.563   8.376  17.823  0.00  0.00    +0.000 A 
ATOM      5  C   UNL     1       3.368   7.246  17.736  0.00  0.00    +0.000 A 
ATOM      6  N   UNL     1       3.414   6.349  18.746  0.00  0.00    +0.000 N 
ATOM      7  C   UNL     1       2.674   6.533  19.866  0.00  0.00    +0.000 A 
ATOM      8  C   UNL     1       1.832   7.639  19.999  0.00  0.00    +0.000 A 
ATOM      9  C   UNL     1       1.041   7.833  21.140  0.00  0.00    +0.000 A 
ATOM     10  C   UNL     1       0.140   8.905  21.236  0.00  0.00    +0.000 A 
ENDROOT
BRANCH   1  12
ATOM     11  C   UNL     1      -1.448  11.207  18.966  0.00  0.00    +0.000 C 
ATOM     12  O   UNL     1      -0.871  10.824  20.218  0.00  0.00    +0.000 OA
ENDBRANCH   1  12
BRANCH  10  13
ATOM     13  O   UNL     1      -0.558   8.873  22.412  0.00  0.00    +0.000 OA
ATOM     14  C   UNL     1      -0.188   9.751  23.465  0.00  0.00    +0.000 C 
ENDBRANCH  10  13
BRANCH   6  15
ATOM     15  C   UNL     1       4.306   5.165  18.643  0.00  0.00    +0.000 C 
BRANCH  15  16
ATOM     16  C   UNL     1       5.029   5.201  17.320  0.00  0.00    +0.000 A 
ATOM     17  C   UNL     1       4.509   4.523  16.204  0.00  0.00    +0.000 A 
ATOM     18  C   UNL     1       5.245   4.434  15.018  0.00  0.00    +0.000 A 
ATOM     19  C   UNL     1       6.510   5.032  14.941  0.00  0.00    +0.000 A 
ATOM     20  C   UNL     1       7.019   5.750  16.028  0.00  0.00    +0.000 A 
ATOM     21  C   UNL     1       6.281   5.836  17.212  0.00  0.00    +0.000 A 
BRANCH  19  22
ATOM     22  N   UNL     1       7.322   4.868  13.727  0.00  0.00    +0.000 N 
ATOM     23  O   UNL     1       8.295   5.619  13.586  0.00  0.00    +0.000 OA
ATOM     24  O   UNL     1       6.963   4.007  12.914  0.00  0.00    +0.000 OA
ENDBRANCH  19  22
ENDBRANCH  15  16
ENDBRANCH   6  15
TORSDOF 5
ENDMDL
