MODEL 1
REMARK VINA RESULT:      -6.5      0.000      0.000
REMARK  Name = 
REMARK  8 active torsions:
REMARK  status: ('A' for Active; 'I' for Inactive)
REMARK    1  A    between atoms: C_1  and  C_2
REMARK    2  A    between atoms: C_2  and  C_3
REMARK    3  A    between atoms: C_2  and  N_6
REMARK    4  A    between atoms: C_3  and  C_4
REMARK    5  A    between atoms: N_6  and  C_7
REMARK    6  A    between atoms: N_6  and  C_8
REMARK    7  A    between atoms: C_8  and  C_9
REMARK    8  A    between atoms: C_15  and  C_16
REMARK                            x       y       z     vdW  Elec       q    Type
REMARK                         _______ _______ _______ _____ _____    ______ ____
ROOT
ATOM      1  C   UNL     1       5.229   4.448  17.681  0.00  0.00    +0.000 A 
ATOM      2  C   UNL     1       5.522   4.748  19.028  0.00  0.00    +0.000 A 
ATOM      3  C   UNL     1       6.620   5.543  19.363  0.00  0.00    +0.000 A 
ATOM      4  C   UNL     1       7.424   6.058  18.357  0.00  0.00    +0.000 A 
ATOM      5  F   UNL     1       8.448   6.862  18.674  0.00  0.00    +0.000 F 
ATOM      6  C   UNL     1       7.191   5.744  17.025  0.00  0.00    +0.000 A 
ATOM      7  C   UNL     1       6.112   4.917  16.683  0.00  0.00    +0.000 A 
ENDROOT
BRANCH   7   8
ATOM      8  C   UNL     1       5.970   4.538  15.304  0.00  0.00    +0.000 C 
ATOM      9  N   UNL     1       5.833   4.260  14.187  0.00  0.00    +0.000 NA
ENDBRANCH   7   8
BRANCH   1  10
ATOM     10  C   UNL     1       3.938   3.700  17.350  0.00  0.00    +0.000 C 
BRANCH  10  11
ATOM     11  N   UNL     1       3.271   3.057  18.503  0.00  0.00    +0.000 NA
ATOM     12  C   UNL     1       3.278   1.590  18.322  0.00  0.00    +0.000 C 
BRANCH  11  14
ATOM     13  C   UNL     1       0.885   2.335  18.728  0.00  0.00    +0.000 C 
ATOM     14  C   UNL     1       1.855   3.541  18.700  0.00  0.00    +0.000 C 
BRANCH  14  15
ATOM     15  C   UNL     1       1.620   4.391  19.987  0.00  0.00    +0.000 C 
BRANCH  15  16
ATOM     16  C   UNL     1       1.891   3.617  21.216  0.00  0.00    +0.000 C 
ATOM     17  N   UNL     1       2.100   3.014  22.181  0.00  0.00    +0.000 NA
ENDBRANCH  15  16
ENDBRANCH  14  15
ENDBRANCH  11  14
ENDBRANCH  10  11
ENDBRANCH   1  10
TORSDOF 6
ENDMDL
MODEL 2
REMARK VINA RESULT:      -6.2      2.269      3.189
REMARK  Name = 
REMARK  8 active torsions:
REMARK  status: ('A' for Active; 'I' for Inactive)
REMARK    1  A    between atoms: C_1  and  C_2
REMARK    2  A    between atoms: C_2  and  C_3
REMARK    3  A    between atoms: C_2  and  N_6
REMARK    4  A    between atoms: C_3  and  C_4
REMARK    5  A    between atoms: N_6  and  C_7
REMARK    6  A    between atoms: N_6  and  C_8
REMARK    7  A    between atoms: C_8  and  C_9
REMARK    8  A    between atoms: C_15  and  C_16
REMARK                            x       y       z     vdW  Elec       q    Type
REMARK                         _______ _______ _______ _____ _____    ______ ____
ROOT
ATOM      1  C   UNL     1       5.204   5.517  17.956  0.00  0.00    +0.000 A 
ATOM      2  C   UNL     1       4.630   5.616  16.671  0.00  0.00    +0.000 A 
ATOM      3  C   UNL     1       5.408   5.445  15.524  0.00  0.00    +0.000 A 
ATOM      4  C   UNL     1       6.760   5.160  15.650  0.00  0.00    +0.000 A 
ATOM      5  F   UNL     1       7.498   4.947  14.552  0.00  0.00    +0.000 F 
ATOM      6  C   UNL     1       7.365   5.104  16.898  0.00  0.00    +0.000 A 
ATOM      7  C   UNL     1       6.598   5.308  18.054  0.00  0.00    +0.000 A 
ENDROOT
BRANCH   7   8
ATOM      8  C   UNL     1       7.283   5.340  19.316  0.00  0.00    +0.000 C 
ATOM      9  N   UNL     1       7.856   5.393  20.323  0.00  0.00    +0.000 NA
ENDBRANCH   7   8
BRANCH   1  10
ATOM     10  C   UNL     1       4.292   5.563  19.182  0.00  0.00    +0.000 C 
BRANCH  10  11
ATOM     11  N   UNL     1       2.858   5.776  18.891  0.00  0.00    +0.000 NA
ATOM     12  C   UNL     1       2.338   6.866  19.742  0.00  0.00    +0.000 C 
BRANCH  11  14
ATOM     13  C   UNL     1       1.445   4.060  17.740  0.00  0.00    +0.000 C 
ATOM     14  C   UNL     1       2.031   4.529  19.094  0.00  0.00    +0.000 C 
BRANCH  14  15
ATOM     15  C   UNL     1       2.789   3.332  19.744  0.00  0.00    +0.000 C 
BRANCH  15  16
ATOM     16  C   UNL     1       2.278   3.022  21.095  0.00  0.00    +0.000 C 
ATOM     17  N   UNL     1       1.881   2.780  22.155  0.00  0.00    +0.000 NA
ENDBRANCH  15  16
ENDBRANCH  14  15
ENDBRANCH  11  14
ENDBRANCH  10  11
ENDBRANCH   1  10
TORSDOF 6
ENDMDL
MODEL 3
REMARK VINA RESULT:      -6.2      1.695      2.287
REMARK  Name = 
REMARK  8 active torsions:
REMARK  status: ('A' for Active; 'I' for Inactive)
REMARK    1  A    between atoms: C_1  and  C_2
REMARK    2  A    between atoms: C_2  and  C_3
REMARK    3  A    between atoms: C_2  and  N_6
REMARK    4  A    between atoms: C_3  and  C_4
REMARK    5  A    between atoms: N_6  and  C_7
REMARK    6  A    between atoms: N_6  and  C_8
REMARK    7  A    between atoms: C_8  and  C_9
REMARK    8  A    between atoms: C_15  and  C_16
REMARK                            x       y       z     vdW  Elec       q    Type
REMARK                         _______ _______ _______ _____ _____    ______ ____
ROOT
ATOM      1  C   UNL     1       4.439   4.768  16.984  0.00  0.00    +0.000 A 
ATOM      2  C   UNL     1       5.637   4.237  16.464  0.00  0.00    +0.000 A 
ATOM      3  C   UNL     1       6.818   4.982  16.481  0.00  0.00    +0.000 A 
ATOM      4  C   UNL     1       6.815   6.256  17.030  0.00  0.00    +0.000 A 
ATOM      5  F   UNL     1       7.958   6.953  17.092  0.00  0.00    +0.000 F 
ATOM      6  C   UNL     1       5.643   6.826  17.506  0.00  0.00    +0.000 A 
ATOM      7  C   UNL     1       4.446   6.098  17.462  0.00  0.00    +0.000 A 
ENDROOT
BRANCH   7   8
ATOM      8  C   UNL     1       3.241   6.764  17.873  0.00  0.00    +0.000 C 
ATOM      9  N   UNL     1       2.289   7.328  18.217  0.00  0.00    +0.000 NA
ENDBRANCH   7   8
BRANCH   1  10
ATOM     10  C   UNL     1       3.207   3.867  17.082  0.00  0.00    +0.000 C 
BRANCH  10  11
ATOM     11  N   UNL     1       2.916   3.346  18.435  0.00  0.00    +0.000 NA
ATOM     12  C   UNL     1       3.191   1.894  18.474  0.00  0.00    +0.000 C 
BRANCH  11  14
ATOM     13  C   UNL     1       0.702   2.278  18.905  0.00  0.00    +0.000 C 
ATOM     14  C   UNL     1       1.494   3.608  18.866  0.00  0.00    +0.000 C 
BRANCH  14  15
ATOM     15  C   UNL     1       1.342   4.312  20.249  0.00  0.00    +0.000 C 
BRANCH  15  16
ATOM     16  C   UNL     1       1.909   3.501  21.347  0.00  0.00    +0.000 C 
ATOM     17  N   UNL     1       2.355   2.863  22.203  0.00  0.00    +0.000 NA
ENDBRANCH  15  16
ENDBRANCH  14  15
ENDBRANCH  11  14
ENDBRANCH  10  11
ENDBRANCH   1  10
TORSDOF 6
ENDMDL
MODEL 4
REMARK VINA RESULT:      -6.2      2.118      2.832
REMARK  Name = 
REMARK  8 active torsions:
REMARK  status: ('A' for Active; 'I' for Inactive)
REMARK    1  A    between atoms: C_1  and  C_2
REMARK    2  A    between atoms: C_2  and  C_3
REMARK    3  A    between atoms: C_2  and  N_6
REMARK    4  A    between atoms: C_3  and  C_4
REMARK    5  A    between atoms: N_6  and  C_7
REMARK    6  A    between atoms: N_6  and  C_8
REMARK    7  A    between atoms: C_8  and  C_9
REMARK    8  A    between atoms: C_15  and  C_16
REMARK                            x       y       z     vdW  Elec       q    Type
REMARK                         _______ _______ _______ _____ _____    ______ ____
ROOT
ATOM      1  C   UNL     1       5.169   5.441  17.999  0.00  0.00    +0.000 A 
ATOM      2  C   UNL     1       4.596   5.506  16.711  0.00  0.00    +0.000 A 
ATOM      3  C   UNL     1       5.377   5.316  15.569  0.00  0.00    +0.000 A 
ATOM      4  C   UNL     1       6.731   5.043  15.703  0.00  0.00    +0.000 A 
ATOM      5  F   UNL     1       7.471   4.811  14.611  0.00  0.00    +0.000 F 
ATOM      6  C   UNL     1       7.334   5.018  16.953  0.00  0.00    +0.000 A 
ATOM      7  C   UNL     1       6.564   5.243  18.103  0.00  0.00    +0.000 A 
ENDROOT
BRANCH   7   8
ATOM      8  C   UNL     1       7.248   5.307  19.365  0.00  0.00    +0.000 C 
ATOM      9  N   UNL     1       7.804   5.394  20.378  0.00  0.00    +0.000 NA
ENDBRANCH   7   8
BRANCH   1  10
ATOM     10  C   UNL     1       4.255   5.507  19.223  0.00  0.00    +0.000 C 
BRANCH  10  11
ATOM     11  N   UNL     1       3.540   4.252  19.542  0.00  0.00    +0.000 NA
ATOM     12  C   UNL     1       4.253   3.110  18.933  0.00  0.00    +0.000 C 
BRANCH  11  14
ATOM     13  C   UNL     1       1.875   3.133  18.046  0.00  0.00    +0.000 C 
ATOM     14  C   UNL     1       2.104   4.265  19.076  0.00  0.00    +0.000 C 
BRANCH  14  15
ATOM     15  C   UNL     1       1.041   4.124  20.208  0.00  0.00    +0.000 C 
BRANCH  15  16
ATOM     16  C   UNL     1       1.479   3.186  21.262  0.00  0.00    +0.000 C 
ATOM     17  N   UNL     1       1.821   2.448  22.085  0.00  0.00    +0.000 NA
ENDBRANCH  15  16
ENDBRANCH  14  15
ENDBRANCH  11  14
ENDBRANCH  10  11
ENDBRANCH   1  10
TORSDOF 6
ENDMDL
MODEL 5
REMARK VINA RESULT:      -6.1      2.174      3.111
REMARK  Name = 
REMARK  8 active torsions:
REMARK  status: ('A' for Active; 'I' for Inactive)
REMARK    1  A    between atoms: C_1  and  C_2
REMARK    2  A    between atoms: C_2  and  C_3
REMARK    3  A    between atoms: C_2  and  N_6
REMARK    4  A    between atoms: C_3  and  C_4
REMARK    5  A    between atoms: N_6  and  C_7
REMARK    6  A    between atoms: N_6  and  C_8
REMARK    7  A    between atoms: C_8  and  C_9
REMARK    8  A    between atoms: C_15  and  C_16
REMARK                            x       y       z     vdW  Elec       q    Type
REMARK                         _______ _______ _______ _____ _____    ______ ____
ROOT
ATOM      1  C   UNL     1       5.411   4.279  16.856  0.00  0.00    +0.000 A 
ATOM      2  C   UNL     1       4.805   4.176  15.587  0.00  0.00    +0.000 A 
ATOM      3  C   UNL     1       5.529   4.442  14.423  0.00  0.00    +0.000 A 
ATOM      4  C   UNL     1       6.868   4.797  14.516  0.00  0.00    +0.000 A 
ATOM      5  F   UNL     1       7.578   5.003  13.399  0.00  0.00    +0.000 F 
ATOM      6  C   UNL     1       7.481   4.953  15.752  0.00  0.00    +0.000 A 
ATOM      7  C   UNL     1       6.750   4.722  16.926  0.00  0.00    +0.000 A 
ENDROOT
BRANCH   7   8
ATOM      8  C   UNL     1       7.396   4.992  18.180  0.00  0.00    +0.000 C 
ATOM      9  N   UNL     1       7.946   5.224  19.175  0.00  0.00    +0.000 NA
ENDBRANCH   7   8
BRANCH   1  10
ATOM     10  C   UNL     1       4.626   3.838  18.092  0.00  0.00    +0.000 C 
BRANCH  10  11
ATOM     11  N   UNL     1       3.556   4.764  18.521  0.00  0.00    +0.000 NA
ATOM     12  C   UNL     1       4.044   5.598  19.638  0.00  0.00    +0.000 C 
BRANCH  11  14
ATOM     13  C   UNL     1       1.366   3.864  17.708  0.00  0.00    +0.000 C 
ATOM     14  C   UNL     1       2.294   4.044  18.934  0.00  0.00    +0.000 C 
BRANCH  14  15
ATOM     15  C   UNL     1       2.515   2.649  19.593  0.00  0.00    +0.000 C 
BRANCH  15  16
ATOM     16  C   UNL     1       2.031   2.615  20.989  0.00  0.00    +0.000 C 
ATOM     17  N   UNL     1       1.656   2.587  22.083  0.00  0.00    +0.000 NA
ENDBRANCH  15  16
ENDBRANCH  14  15
ENDBRANCH  11  14
ENDBRANCH  10  11
ENDBRANCH   1  10
TORSDOF 6
ENDMDL
MODEL 6
REMARK VINA RESULT:      -6.1      1.189      1.489
REMARK  Name = 
REMARK  8 active torsions:
REMARK  status: ('A' for Active; 'I' for Inactive)
REMARK    1  A    between atoms: C_1  and  C_2
REMARK    2  A    between atoms: C_2  and  C_3
REMARK    3  A    between atoms: C_2  and  N_6
REMARK    4  A    between atoms: C_3  and  C_4
REMARK    5  A    between atoms: N_6  and  C_7
REMARK    6  A    between atoms: N_6  and  C_8
REMARK    7  A    between atoms: C_8  and  C_9
REMARK    8  A    between atoms: C_15  and  C_16
REMARK                            x       y       z     vdW  Elec       q    Type
REMARK                         _______ _______ _______ _____ _____    ______ ____
ROOT
ATOM      1  C   UNL     1       5.475   4.286  17.594  0.00  0.00    +0.000 A 
ATOM      2  C   UNL     1       5.672   4.653  18.941  0.00  0.00    +0.000 A 
ATOM      3  C   UNL     1       6.668   5.564  19.297  0.00  0.00    +0.000 A 
ATOM      4  C   UNL     1       7.465   6.128  18.311  0.00  0.00    +0.000 A 
ATOM      5  F   UNL     1       8.388   7.040  18.645  0.00  0.00    +0.000 F 
ATOM      6  C   UNL     1       7.328   5.753  16.982  0.00  0.00    +0.000 A 
ATOM      7  C   UNL     1       6.353   4.812  16.620  0.00  0.00    +0.000 A 
ENDROOT
BRANCH   7   8
ATOM      8  C   UNL     1       6.315   4.380  15.251  0.00  0.00    +0.000 C 
ATOM      9  N   UNL     1       6.269   4.001  14.156  0.00  0.00    +0.000 NA
ENDBRANCH   7   8
BRANCH   1  10
ATOM     10  C   UNL     1       4.281   3.403  17.232  0.00  0.00    +0.000 C 
BRANCH  10  11
ATOM     11  N   UNL     1       3.453   2.965  18.376  0.00  0.00    +0.000 NA
ATOM     12  C   UNL     1       3.505   1.492  18.488  0.00  0.00    +0.000 C 
BRANCH  11  14
ATOM     13  C   UNL     1       1.293   3.209  19.616  0.00  0.00    +0.000 C 
ATOM     14  C   UNL     1       2.018   3.419  18.264  0.00  0.00    +0.000 C 
BRANCH  14  15
ATOM     15  C   UNL     1       1.827   4.903  17.828  0.00  0.00    +0.000 C 
BRANCH  15  16
ATOM     16  C   UNL     1       2.257   5.848  18.880  0.00  0.00    +0.000 C 
ATOM     17  N   UNL     1       2.598   6.588  19.701  0.00  0.00    +0.000 NA
ENDBRANCH  15  16
ENDBRANCH  14  15
ENDBRANCH  11  14
ENDBRANCH  10  11
ENDBRANCH   1  10
TORSDOF 6
ENDMDL
MODEL 7
REMARK VINA RESULT:      -6.1      2.264      3.492
REMARK  Name = 
REMARK  8 active torsions:
REMARK  status: ('A' for Active; 'I' for Inactive)
REMARK    1  A    between atoms: C_1  and  C_2
REMARK    2  A    between atoms: C_2  and  C_3
REMARK    3  A    between atoms: C_2  and  N_6
REMARK    4  A    between atoms: C_3  and  C_4
REMARK    5  A    between atoms: N_6  and  C_7
REMARK    6  A    between atoms: N_6  and  C_8
REMARK    7  A    between atoms: C_8  and  C_9
REMARK    8  A    between atoms: C_15  and  C_16
REMARK                            x       y       z     vdW  Elec       q    Type
REMARK                         _______ _______ _______ _____ _____    ______ ____
ROOT
ATOM      1  C   UNL     1       5.153   5.171  18.112  0.00  0.00    +0.000 A 
ATOM      2  C   UNL     1       4.497   5.073  16.868  0.00  0.00    +0.000 A 
ATOM      3  C   UNL     1       5.209   4.787  15.702  0.00  0.00    +0.000 A 
ATOM      4  C   UNL     1       6.580   4.580  15.771  0.00  0.00    +0.000 A 
ATOM      5  F   UNL     1       7.258   4.256  14.662  0.00  0.00    +0.000 F 
ATOM      6  C   UNL     1       7.263   4.716  16.972  0.00  0.00    +0.000 A 
ATOM      7  C   UNL     1       6.559   5.038  18.141  0.00  0.00    +0.000 A 
ENDROOT
BRANCH   7   8
ATOM      8  C   UNL     1       7.320   5.265  19.338  0.00  0.00    +0.000 C 
ATOM      9  N   UNL     1       7.932   5.484  20.298  0.00  0.00    +0.000 NA
ENDBRANCH   7   8
BRANCH   1  10
ATOM     10  C   UNL     1       4.318   5.338  19.382  0.00  0.00    +0.000 C 
BRANCH  10  11
ATOM     11  N   UNL     1       2.854   5.318  19.178  0.00  0.00    +0.000 NA
ATOM     12  C   UNL     1       2.244   6.477  19.862  0.00  0.00    +0.000 C 
BRANCH  11  14
ATOM     13  C   UNL     1       0.921   4.368  20.453  0.00  0.00    +0.000 C 
ATOM     14  C   UNL     1       2.215   4.041  19.668  0.00  0.00    +0.000 C 
BRANCH  14  15
ATOM     15  C   UNL     1       1.867   3.006  18.556  0.00  0.00    +0.000 C 
BRANCH  15  16
ATOM     16  C   UNL     1       2.933   1.996  18.389  0.00  0.00    +0.000 C 
ATOM     17  N   UNL     1       3.764   1.202  18.256  0.00  0.00    +0.000 NA
ENDBRANCH  15  16
ENDBRANCH  14  15
ENDBRANCH  11  14
ENDBRANCH  10  11
ENDBRANCH   1  10
TORSDOF 6
ENDMDL
MODEL 8
REMARK VINA RESULT:      -6.0      1.992      3.017
REMARK  Name = 
REMARK  8 active torsions:
REMARK  status: ('A' for Active; 'I' for Inactive)
REMARK    1  A    between atoms: C_1  and  C_2
REMARK    2  A    between atoms: C_2  and  C_3
REMARK    3  A    between atoms: C_2  and  N_6
REMARK    4  A    between atoms: C_3  and  C_4
REMARK    5  A    between atoms: N_6  and  C_7
REMARK    6  A    between atoms: N_6  and  C_8
REMARK    7  A    between atoms: C_8  and  C_9
REMARK    8  A    between atoms: C_15  and  C_16
REMARK                            x       y       z     vdW  Elec       q    Type
REMARK                         _______ _______ _______ _____ _____    ______ ____
ROOT
ATOM      1  C   UNL     1       5.061   4.823  17.335  0.00  0.00    +0.000 A 
ATOM      2  C   UNL     1       4.619   4.722  15.999  0.00  0.00    +0.000 A 
ATOM      3  C   UNL     1       5.526   4.779  14.939  0.00  0.00    +0.000 A 
ATOM      4  C   UNL     1       6.880   4.920  15.203  0.00  0.00    +0.000 A 
ATOM      5  F   UNL     1       7.756   4.924  14.189  0.00  0.00    +0.000 F 
ATOM      6  C   UNL     1       7.343   5.069  16.503  0.00  0.00    +0.000 A 
ATOM      7  C   UNL     1       6.435   5.048  17.572  0.00  0.00    +0.000 A 
ENDROOT
BRANCH   7   8
ATOM      8  C   UNL     1       6.946   5.306  18.889  0.00  0.00    +0.000 C 
ATOM      9  N   UNL     1       7.328   5.501  19.966  0.00  0.00    +0.000 NA
ENDBRANCH   7   8
BRANCH   1  10
ATOM     10  C   UNL     1       4.056   4.608  18.467  0.00  0.00    +0.000 C 
BRANCH  10  11
ATOM     11  N   UNL     1       2.925   3.712  18.142  0.00  0.00    +0.000 NA
ATOM     12  C   UNL     1       1.651   4.430  18.355  0.00  0.00    +0.000 C 
BRANCH  11  14
ATOM     13  C   UNL     1       3.753   1.352  18.217  0.00  0.00    +0.000 C 
ATOM     14  C   UNL     1       2.937   2.441  18.956  0.00  0.00    +0.000 C 
BRANCH  14  15
ATOM     15  C   UNL     1       3.504   2.586  20.400  0.00  0.00    +0.000 C 
BRANCH  15  16
ATOM     16  C   UNL     1       2.429   2.655  21.411  0.00  0.00    +0.000 C 
ATOM     17  N   UNL     1       1.588   2.714  22.204  0.00  0.00    +0.000 NA
ENDBRANCH  15  16
ENDBRANCH  14  15
ENDBRANCH  11  14
ENDBRANCH  10  11
ENDBRANCH   1  10
TORSDOF 6
ENDMDL
MODEL 9
REMARK VINA RESULT:      -6.0      3.109      5.706
REMARK  Name = 
REMARK  8 active torsions:
REMARK  status: ('A' for Active; 'I' for Inactive)
REMARK    1  A    between atoms: C_1  and  C_2
REMARK    2  A    between atoms: C_2  and  C_3
REMARK    3  A    between atoms: C_2  and  N_6
REMARK    4  A    between atoms: C_3  and  C_4
REMARK    5  A    between atoms: N_6  and  C_7
REMARK    6  A    between atoms: N_6  and  C_8
REMARK    7  A    between atoms: C_8  and  C_9
REMARK    8  A    between atoms: C_15  and  C_16
REMARK                            x       y       z     vdW  Elec       q    Type
REMARK                         _______ _______ _______ _____ _____    ______ ____
ROOT
ATOM      1  C   UNL     1       2.890   4.218  18.614  0.00  0.00    +0.000 A 
ATOM      2  C   UNL     1       2.951   2.835  18.884  0.00  0.00    +0.000 A 
ATOM      3  C   UNL     1       2.315   2.295  20.004  0.00  0.00    +0.000 A 
ATOM      4  C   UNL     1       1.601   3.128  20.854  0.00  0.00    +0.000 A 
ATOM      5  F   UNL     1       0.949   2.605  21.900  0.00  0.00    +0.000 F 
ATOM      6  C   UNL     1       1.562   4.499  20.642  0.00  0.00    +0.000 A 
ATOM      7  C   UNL     1       2.227   5.054  19.540  0.00  0.00    +0.000 A 
ENDROOT
BRANCH   7   8
ATOM      8  C   UNL     1       2.242   6.485  19.417  0.00  0.00    +0.000 C 
ATOM      9  N   UNL     1       2.234   7.642  19.349  0.00  0.00    +0.000 NA
ENDBRANCH   7   8
BRANCH   1  10
ATOM     10  C   UNL     1       3.473   4.745  17.302  0.00  0.00    +0.000 C 
BRANCH  10  11
ATOM     11  N   UNL     1       4.816   5.354  17.411  0.00  0.00    +0.000 NA
ATOM     12  C   UNL     1       4.878   6.566  16.569  0.00  0.00    +0.000 C 
BRANCH  11  14
ATOM     13  C   UNL     1       5.886   4.159  15.490  0.00  0.00    +0.000 C 
ATOM     14  C   UNL     1       5.920   4.402  17.019  0.00  0.00    +0.000 C 
BRANCH  14  15
ATOM     15  C   UNL     1       7.357   4.858  17.413  0.00  0.00    +0.000 C 
BRANCH  15  16
ATOM     16  C   UNL     1       7.459   5.183  18.851  0.00  0.00    +0.000 C 
ATOM     17  N   UNL     1       7.538   5.433  19.978  0.00  0.00    +0.000 NA
ENDBRANCH  15  16
ENDBRANCH  14  15
ENDBRANCH  11  14
ENDBRANCH  10  11
ENDBRANCH   1  10
TORSDOF 6
ENDMDL
