MODEL 1
REMARK VINA RESULT:      -7.8      0.000      0.000
REMARK  Name = 
REMARK  5 active torsions:
REMARK  status: ('A' for Active; 'I' for Inactive)
REMARK    1  A    between atoms: C_2  and  C_3
REMARK    2  A    between atoms: C_3  and  N_4
REMARK    3  A    between atoms: C_10  and  N_11
REMARK    4  A    between atoms: N_18  and  C_19
REMARK    5  A    between atoms: C_19  and  C_20
REMARK                            x       y       z     vdW  Elec       q    Type
REMARK                         _______ _______ _______ _____ _____    ______ ____
ROOT
ATOM      1  N   UNL     1       5.790   5.240  17.024  0.00  0.00    +0.000 N 
ATOM      2  C   UNL     1       6.801   5.664  16.210  0.00  0.00    +0.000 C 
ATOM      3  O   UNL     1       7.668   6.488  16.425  0.00  0.00    +0.000 OA
ATOM      4  C   UNL     1       6.628   4.961  14.938  0.00  0.00    +0.000 A 
ATOM      5  C   UNL     1       7.375   5.021  13.776  0.00  0.00    +0.000 A 
ATOM      6  C   UNL     1       6.938   4.252  12.691  0.00  0.00    +0.000 A 
ATOM      7  C   UNL     1       5.768   3.457  12.798  0.00  0.00    +0.000 A 
ATOM      8  C   UNL     1       5.027   3.407  13.991  0.00  0.00    +0.000 A 
ATOM      9  C   UNL     1       5.495   4.171  15.045  0.00  0.00    +0.000 A 
ATOM     10  C   UNL     1       4.959   4.357  16.396  0.00  0.00    +0.000 C 
ATOM     11  O   UNL     1       3.945   3.830  16.806  0.00  0.00    +0.000 OA
ENDROOT
BRANCH   7  12
ATOM     12  N   UNL     1       5.317   2.682  11.632  0.00  0.00    +0.000 N 
ATOM     13  O   UNL     1       4.249   3.015  11.100  0.00  0.00    +0.000 OA
ATOM     14  O   UNL     1       6.028   1.741  11.259  0.00  0.00    +0.000 OA
ENDBRANCH   7  12
BRANCH   1  15
ATOM     15  C   UNL     1       5.627   5.685  18.391  0.00  0.00    +0.000 C 
BRANCH  15  17
ATOM     16  O   UNL     1       3.759   7.200  17.997  0.00  0.00    +0.000 OA
ATOM     17  C   UNL     1       4.222   6.249  18.620  0.00  0.00    +0.000 C 
ATOM     18  N   UNL     1       3.539   5.607  19.635  0.00  0.00    +0.000 N 
ATOM     19  H   UNL     1       3.853   4.697  19.952  0.00  0.00    +0.000 HD
BRANCH  18  20
ATOM     20  C   UNL     1       2.185   5.976  20.027  0.00  0.00    +0.000 C 
BRANCH  20  21
ATOM     21  C   UNL     1       1.413   4.776  20.588  0.00  0.00    +0.000 C 
ATOM     22  C   UNL     1       2.209   3.918  21.563  0.00  0.00    +0.000 C 
ATOM     23  C   UNL     1       1.612   2.549  21.352  0.00  0.00    +0.000 C 
ATOM     24  C   UNL     1       1.311   2.554  19.870  0.00  0.00    +0.000 C 
ATOM     25  O   UNL     1       1.010   3.907  19.506  0.00  0.00    +0.000 OA
ENDBRANCH  20  21
ENDBRANCH  18  20
ENDBRANCH  15  17
ENDBRANCH   1  15
TORSDOF 5
ENDMDL
MODEL 2
REMARK VINA RESULT:      -7.7      2.208      3.688
REMARK  Name = 
REMARK  5 active torsions:
REMARK  status: ('A' for Active; 'I' for Inactive)
REMARK    1  A    between atoms: C_2  and  C_3
REMARK    2  A    between atoms: C_3  and  N_4
REMARK    3  A    between atoms: C_10  and  N_11
REMARK    4  A    between atoms: N_18  and  C_19
REMARK    5  A    between atoms: C_19  and  C_20
REMARK                            x       y       z     vdW  Elec       q    Type
REMARK                         _______ _______ _______ _____ _____    ______ ____
ROOT
ATOM      1  N   UNL     1       4.307   3.787  18.859  0.00  0.00    +0.000 N 
ATOM      2  C   UNL     1       5.494   4.452  18.962  0.00  0.00    +0.000 C 
ATOM      3  O   UNL     1       6.021   4.939  19.943  0.00  0.00    +0.000 OA
ATOM      4  C   UNL     1       6.037   4.538  17.605  0.00  0.00    +0.000 A 
ATOM      5  C   UNL     1       7.212   5.107  17.149  0.00  0.00    +0.000 A 
ATOM      6  C   UNL     1       7.449   5.070  15.770  0.00  0.00    +0.000 A 
ATOM      7  C   UNL     1       6.505   4.475  14.893  0.00  0.00    +0.000 A 
ATOM      8  C   UNL     1       5.320   3.898  15.380  0.00  0.00    +0.000 A 
ATOM      9  C   UNL     1       5.125   3.944  16.749  0.00  0.00    +0.000 A 
ATOM     10  C   UNL     1       4.009   3.461  17.566  0.00  0.00    +0.000 C 
ATOM     11  O   UNL     1       3.020   2.918  17.118  0.00  0.00    +0.000 OA
ENDROOT
BRANCH   7  12
ATOM     12  N   UNL     1       6.768   4.477  13.446  0.00  0.00    +0.000 N 
ATOM     13  O   UNL     1       7.581   5.305  13.011  0.00  0.00    +0.000 OA
ATOM     14  O   UNL     1       6.156   3.657  12.751  0.00  0.00    +0.000 OA
ENDBRANCH   7  12
BRANCH   1  15
ATOM     15  C   UNL     1       3.468   3.472  19.996  0.00  0.00    +0.000 C 
BRANCH  15  17
ATOM     16  O   UNL     1       1.118   4.051  19.708  0.00  0.00    +0.000 OA
ATOM     17  C   UNL     1       2.246   4.395  20.048  0.00  0.00    +0.000 C 
ATOM     18  N   UNL     1       2.550   5.672  20.475  0.00  0.00    +0.000 N 
ATOM     19  H   UNL     1       3.421   5.844  20.963  0.00  0.00    +0.000 HD
BRANCH  18  20
ATOM     20  C   UNL     1       1.543   6.719  20.602  0.00  0.00    +0.000 C 
BRANCH  20  21
ATOM     21  C   UNL     1       2.004   8.027  19.948  0.00  0.00    +0.000 C 
ATOM     22  C   UNL     1       0.992   9.162  20.034  0.00  0.00    +0.000 C 
ATOM     23  C   UNL     1       1.283   9.951  18.783  0.00  0.00    +0.000 C 
ATOM     24  C   UNL     1       1.649   8.866  17.796  0.00  0.00    +0.000 C 
ATOM     25  O   UNL     1       2.258   7.806  18.542  0.00  0.00    +0.000 OA
ENDBRANCH  20  21
ENDBRANCH  18  20
ENDBRANCH  15  17
ENDBRANCH   1  15
TORSDOF 5
ENDMDL
MODEL 3
REMARK VINA RESULT:      -7.7      1.260      1.759
REMARK  Name = 
REMARK  5 active torsions:
REMARK  status: ('A' for Active; 'I' for Inactive)
REMARK    1  A    between atoms: C_2  and  C_3
REMARK    2  A    between atoms: C_3  and  N_4
REMARK    3  A    between atoms: C_10  and  N_11
REMARK    4  A    between atoms: N_18  and  C_19
REMARK    5  A    between atoms: C_19  and  C_20
REMARK                            x       y       z     vdW  Elec       q    Type
REMARK                         _______ _______ _______ _____ _____    ______ ____
ROOT
ATOM      1  N   UNL     1       5.747   5.516  16.781  0.00  0.00    +0.000 N 
ATOM      2  C   UNL     1       6.834   5.801  16.006  0.00  0.00    +0.000 C 
ATOM      3  O   UNL     1       7.748   6.575  16.217  0.00  0.00    +0.000 OA
ATOM      4  C   UNL     1       6.683   5.017  14.780  0.00  0.00    +0.000 A 
ATOM      5  C   UNL     1       7.501   4.934  13.668  0.00  0.00    +0.000 A 
ATOM      6  C   UNL     1       7.072   4.118  12.615  0.00  0.00    +0.000 A 
ATOM      7  C   UNL     1       5.840   3.420  12.702  0.00  0.00    +0.000 A 
ATOM      8  C   UNL     1       5.027   3.514  13.845  0.00  0.00    +0.000 A 
ATOM      9  C   UNL     1       5.488   4.322  14.869  0.00  0.00    +0.000 A 
ATOM     10  C   UNL     1       4.889   4.649  16.166  0.00  0.00    +0.000 C 
ATOM     11  O   UNL     1       3.815   4.230  16.545  0.00  0.00    +0.000 OA
ENDROOT
BRANCH   7  12
ATOM     12  N   UNL     1       5.401   2.592  11.569  0.00  0.00    +0.000 N 
ATOM     13  O   UNL     1       6.179   1.720  11.158  0.00  0.00    +0.000 OA
ATOM     14  O   UNL     1       4.283   2.823  11.089  0.00  0.00    +0.000 OA
ENDBRANCH   7  12
BRANCH   1  15
ATOM     15  C   UNL     1       5.537   6.075  18.099  0.00  0.00    +0.000 C 
BRANCH  15  17
ATOM     16  O   UNL     1       6.655   4.841  19.878  0.00  0.00    +0.000 OA
ATOM     17  C   UNL     1       5.658   4.995  19.178  0.00  0.00    +0.000 C 
ATOM     18  N   UNL     1       4.546   4.180  19.257  0.00  0.00    +0.000 N 
ATOM     19  H   UNL     1       3.673   4.482  18.840  0.00  0.00    +0.000 HD
BRANCH  18  20
ATOM     20  C   UNL     1       4.441   3.085  20.212  0.00  0.00    +0.000 C 
BRANCH  20  21
ATOM     21  C   UNL     1       2.979   2.695  20.464  0.00  0.00    +0.000 C 
ATOM     22  C   UNL     1       2.181   2.401  19.201  0.00  0.00    +0.000 C 
ATOM     23  C   UNL     1       0.784   2.805  19.599  0.00  0.00    +0.000 C 
ATOM     24  C   UNL     1       1.036   3.994  20.498  0.00  0.00    +0.000 C 
ATOM     25  O   UNL     1       2.297   3.775  21.142  0.00  0.00    +0.000 OA
ENDBRANCH  20  21
ENDBRANCH  18  20
ENDBRANCH  15  17
ENDBRANCH   1  15
TORSDOF 5
ENDMDL
MODEL 4
REMARK VINA RESULT:      -7.6      4.341      8.058
REMARK  Name = 
REMARK  5 active torsions:
REMARK  status: ('A' for Active; 'I' for Inactive)
REMARK    1  A    between atoms: C_2  and  C_3
REMARK    2  A    between atoms: C_3  and  N_4
REMARK    3  A    between atoms: C_10  and  N_11
REMARK    4  A    between atoms: N_18  and  C_19
REMARK    5  A    between atoms: C_19  and  C_20
REMARK                            x       y       z     vdW  Elec       q    Type
REMARK                         _______ _______ _______ _____ _____    ______ ____
ROOT
ATOM      1  N   UNL     1       2.549   7.212  18.661  0.00  0.00    +0.000 N 
ATOM      2  C   UNL     1       2.149   8.439  18.216  0.00  0.00    +0.000 C 
ATOM      3  O   UNL     1       2.357   8.974  17.144  0.00  0.00    +0.000 OA
ATOM      4  C   UNL     1       1.432   9.067  19.326  0.00  0.00    +0.000 A 
ATOM      5  C   UNL     1       0.823  10.306  19.407  0.00  0.00    +0.000 A 
ATOM      6  C   UNL     1       0.240  10.655  20.631  0.00  0.00    +0.000 A 
ATOM      7  C   UNL     1       0.292   9.763  21.734  0.00  0.00    +0.000 A 
ATOM      8  C   UNL     1       0.911   8.506  21.626  0.00  0.00    +0.000 A 
ATOM      9  C   UNL     1       1.467   8.191  20.399  0.00  0.00    +0.000 A 
ATOM     10  C   UNL     1       2.190   6.994  19.961  0.00  0.00    +0.000 C 
ATOM     11  O   UNL     1       2.428   6.042  20.676  0.00  0.00    +0.000 OA
ENDROOT
BRANCH   7  12
ATOM     12  N   UNL     1      -0.303  10.169  23.015  0.00  0.00    +0.000 N 
ATOM     13  O   UNL     1       0.194   9.708  24.052  0.00  0.00    +0.000 OA
ATOM     14  O   UNL     1      -1.270  10.941  22.980  0.00  0.00    +0.000 OA
ENDBRANCH   7  12
BRANCH   1  15
ATOM     15  C   UNL     1       3.270   6.262  17.842  0.00  0.00    +0.000 C 
BRANCH  15  17
ATOM     16  O   UNL     1       1.308   4.885  17.401  0.00  0.00    +0.000 OA
ATOM     17  C   UNL     1       2.494   4.948  17.714  0.00  0.00    +0.000 C 
ATOM     18  N   UNL     1       3.251   3.837  18.029  0.00  0.00    +0.000 N 
ATOM     19  H   UNL     1       4.262   3.909  18.047  0.00  0.00    +0.000 HD
BRANCH  18  20
ATOM     20  C   UNL     1       2.719   2.482  17.977  0.00  0.00    +0.000 C 
BRANCH  20  21
ATOM     21  C   UNL     1       2.295   1.988  19.365  0.00  0.00    +0.000 C 
ATOM     22  C   UNL     1       1.059   2.677  19.926  0.00  0.00    +0.000 C 
ATOM     23  C   UNL     1       1.305   2.627  21.413  0.00  0.00    +0.000 C 
ATOM     24  C   UNL     1       2.805   2.802  21.496  0.00  0.00    +0.000 C 
ATOM     25  O   UNL     1       3.363   2.221  20.311  0.00  0.00    +0.000 OA
ENDBRANCH  20  21
ENDBRANCH  18  20
ENDBRANCH  15  17
ENDBRANCH   1  15
TORSDOF 5
ENDMDL
MODEL 5
REMARK VINA RESULT:      -7.6      2.788      8.066
REMARK  Name = 
REMARK  5 active torsions:
REMARK  status: ('A' for Active; 'I' for Inactive)
REMARK    1  A    between atoms: C_2  and  C_3
REMARK    2  A    between atoms: C_3  and  N_4
REMARK    3  A    between atoms: C_10  and  N_11
REMARK    4  A    between atoms: N_18  and  C_19
REMARK    5  A    between atoms: C_19  and  C_20
REMARK                            x       y       z     vdW  Elec       q    Type
REMARK                         _______ _______ _______ _____ _____    ______ ____
ROOT
ATOM      1  N   UNL     1       3.407   5.316  18.833  0.00  0.00    +0.000 N 
ATOM      2  C   UNL     1       3.421   6.331  17.921  0.00  0.00    +0.000 C 
ATOM      3  O   UNL     1       3.998   6.398  16.853  0.00  0.00    +0.000 OA
ATOM      4  C   UNL     1       2.625   7.415  18.498  0.00  0.00    +0.000 A 
ATOM      5  C   UNL     1       2.319   8.665  17.990  0.00  0.00    +0.000 A 
ATOM      6  C   UNL     1       1.558   9.517  18.800  0.00  0.00    +0.000 A 
ATOM      7  C   UNL     1       1.136   9.098  20.088  0.00  0.00    +0.000 A 
ATOM      8  C   UNL     1       1.455   7.822  20.581  0.00  0.00    +0.000 A 
ATOM      9  C   UNL     1       2.199   7.003  19.750  0.00  0.00    +0.000 A 
ATOM     10  C   UNL     1       2.708   5.645  19.960  0.00  0.00    +0.000 C 
ATOM     11  O   UNL     1       2.540   5.004  20.977  0.00  0.00    +0.000 OA
ENDROOT
BRANCH   7  12
ATOM     12  N   UNL     1       0.363  10.026  20.927  0.00  0.00    +0.000 N 
ATOM     13  O   UNL     1       0.854  10.365  22.013  0.00  0.00    +0.000 OA
ATOM     14  O   UNL     1      -0.735  10.405  20.501  0.00  0.00    +0.000 OA
ENDBRANCH   7  12
BRANCH   1  15
ATOM     15  C   UNL     1       4.063   4.043  18.621  0.00  0.00    +0.000 C 
BRANCH  15  17
ATOM     16  O   UNL     1       6.426   4.628  18.733  0.00  0.00    +0.000 OA
ATOM     17  C   UNL     1       5.474   4.241  18.061  0.00  0.00    +0.000 C 
ATOM     18  N   UNL     1       5.562   3.981  16.707  0.00  0.00    +0.000 N 
ATOM     19  H   UNL     1       4.831   3.446  16.251  0.00  0.00    +0.000 HD
BRANCH  18  20
ATOM     20  C   UNL     1       6.808   4.103  15.962  0.00  0.00    +0.000 C 
BRANCH  20  21
ATOM     21  C   UNL     1       6.581   4.735  14.584  0.00  0.00    +0.000 C 
ATOM     22  C   UNL     1       6.334   3.731  13.466  0.00  0.00    +0.000 C 
ATOM     23  C   UNL     1       6.894   4.444  12.260  0.00  0.00    +0.000 C 
ATOM     24  C   UNL     1       8.076   5.183  12.844  0.00  0.00    +0.000 C 
ATOM     25  O   UNL     1       7.746   5.501  14.201  0.00  0.00    +0.000 OA
ENDBRANCH  20  21
ENDBRANCH  18  20
ENDBRANCH  15  17
ENDBRANCH   1  15
TORSDOF 5
ENDMDL
MODEL 6
REMARK VINA RESULT:      -7.5      2.628      7.898
REMARK  Name = 
REMARK  5 active torsions:
REMARK  status: ('A' for Active; 'I' for Inactive)
REMARK    1  A    between atoms: C_2  and  C_3
REMARK    2  A    between atoms: C_3  and  N_4
REMARK    3  A    between atoms: C_10  and  N_11
REMARK    4  A    between atoms: N_18  and  C_19
REMARK    5  A    between atoms: C_19  and  C_20
REMARK                            x       y       z     vdW  Elec       q    Type
REMARK                         _______ _______ _______ _____ _____    ______ ____
ROOT
ATOM      1  N   UNL     1       3.388   5.246  19.045  0.00  0.00    +0.000 N 
ATOM      2  C   UNL     1       2.641   5.487  20.162  0.00  0.00    +0.000 C 
ATOM      3  O   UNL     1       2.390   4.748  21.094  0.00  0.00    +0.000 OA
ATOM      4  C   UNL     1       2.115   6.845  20.021  0.00  0.00    +0.000 A 
ATOM      5  C   UNL     1       1.304   7.580  20.867  0.00  0.00    +0.000 A 
ATOM      6  C   UNL     1       0.924   8.858  20.442  0.00  0.00    +0.000 A 
ATOM      7  C   UNL     1       1.357   9.357  19.186  0.00  0.00    +0.000 A 
ATOM      8  C   UNL     1       2.185   8.594  18.345  0.00  0.00    +0.000 A 
ATOM      9  C   UNL     1       2.549   7.340  18.803  0.00  0.00    +0.000 A 
ATOM     10  C   UNL     1       3.372   6.302  18.177  0.00  0.00    +0.000 C 
ATOM     11  O   UNL     1       3.881   6.404  17.080  0.00  0.00    +0.000 OA
ENDROOT
BRANCH   7  12
ATOM     12  N   UNL     1       0.918  10.692  18.753  0.00  0.00    +0.000 N 
ATOM     13  O   UNL     1      -0.298  10.926  18.756  0.00  0.00    +0.000 OA
ATOM     14  O   UNL     1       1.791  11.497  18.404  0.00  0.00    +0.000 OA
ENDBRANCH   7  12
BRANCH   1  15
ATOM     15  C   UNL     1       4.107   4.011  18.816  0.00  0.00    +0.000 C 
BRANCH  15  17
ATOM     16  O   UNL     1       6.441   4.703  18.933  0.00  0.00    +0.000 OA
ATOM     17  C   UNL     1       5.505   4.287  18.256  0.00  0.00    +0.000 C 
ATOM     18  N   UNL     1       5.599   4.062  16.896  0.00  0.00    +0.000 N 
ATOM     19  H   UNL     1       4.892   3.504  16.431  0.00  0.00    +0.000 HD
BRANCH  18  20
ATOM     20  C   UNL     1       6.834   4.259  16.150  0.00  0.00    +0.000 C 
BRANCH  20  21
ATOM     21  C   UNL     1       6.563   4.802  14.742  0.00  0.00    +0.000 C 
ATOM     22  C   UNL     1       6.283   3.729  13.699  0.00  0.00    +0.000 C 
ATOM     23  C   UNL     1       6.803   4.364  12.433  0.00  0.00    +0.000 C 
ATOM     24  C   UNL     1       8.002   5.139  12.931  0.00  0.00    +0.000 C 
ATOM     25  O   UNL     1       7.713   5.543  14.276  0.00  0.00    +0.000 OA
ENDBRANCH  20  21
ENDBRANCH  18  20
ENDBRANCH  15  17
ENDBRANCH   1  15
TORSDOF 5
ENDMDL
MODEL 7
REMARK VINA RESULT:      -7.5      4.096      7.872
REMARK  Name = 
REMARK  5 active torsions:
REMARK  status: ('A' for Active; 'I' for Inactive)
REMARK    1  A    between atoms: C_2  and  C_3
REMARK    2  A    between atoms: C_3  and  N_4
REMARK    3  A    between atoms: C_10  and  N_11
REMARK    4  A    between atoms: N_18  and  C_19
REMARK    5  A    between atoms: C_19  and  C_20
REMARK                            x       y       z     vdW  Elec       q    Type
REMARK                         _______ _______ _______ _____ _____    ______ ____
ROOT
ATOM      1  N   UNL     1       6.531   6.204  17.841  0.00  0.00    +0.000 N 
ATOM      2  C   UNL     1       5.414   6.216  17.057  0.00  0.00    +0.000 C 
ATOM      3  O   UNL     1       5.238   6.745  15.976  0.00  0.00    +0.000 OA
ATOM      4  C   UNL     1       4.382   5.490  17.798  0.00  0.00    +0.000 A 
ATOM      5  C   UNL     1       3.071   5.210  17.459  0.00  0.00    +0.000 A 
ATOM      6  C   UNL     1       2.298   4.520  18.400  0.00  0.00    +0.000 A 
ATOM      7  C   UNL     1       2.854   4.142  19.650  0.00  0.00    +0.000 A 
ATOM      8  C   UNL     1       4.191   4.433  19.970  0.00  0.00    +0.000 A 
ATOM      9  C   UNL     1       4.927   5.106  19.012  0.00  0.00    +0.000 A 
ATOM     10  C   UNL     1       6.317   5.570  19.033  0.00  0.00    +0.000 C 
ATOM     11  O   UNL     1       7.070   5.425  19.973  0.00  0.00    +0.000 OA
ENDROOT
BRANCH   7  12
ATOM     12  N   UNL     1       2.010   3.445  20.631  0.00  0.00    +0.000 N 
ATOM     13  O   UNL     1       2.556   2.617  21.374  0.00  0.00    +0.000 OA
ATOM     14  O   UNL     1       0.803   3.721  20.649  0.00  0.00    +0.000 OA
ENDBRANCH   7  12
BRANCH   1  15
ATOM     15  C   UNL     1       7.789   6.800  17.447  0.00  0.00    +0.000 C 
BRANCH  15  17
ATOM     16  O   UNL     1       7.088   9.127  17.278  0.00  0.00    +0.000 OA
ATOM     17  C   UNL     1       7.823   8.291  17.794  0.00  0.00    +0.000 C 
ATOM     18  N   UNL     1       8.798   8.610  18.719  0.00  0.00    +0.000 N 
ATOM     19  H   UNL     1       9.210   7.878  19.286  0.00  0.00    +0.000 HD
BRANCH  18  20
ATOM     20  C   UNL     1       9.012   9.970  19.197  0.00  0.00    +0.000 C 
BRANCH  20  21
ATOM     21  C   UNL     1       9.677  10.846  18.128  0.00  0.00    +0.000 C 
ATOM     22  C   UNL     1      10.983  11.492  18.569  0.00  0.00    +0.000 C 
ATOM     23  C   UNL     1      10.999  12.770  17.769  0.00  0.00    +0.000 C 
ATOM     24  C   UNL     1       9.535  13.145  17.732  0.00  0.00    +0.000 C 
ATOM     25  O   UNL     1       8.787  11.923  17.758  0.00  0.00    +0.000 OA
ENDBRANCH  20  21
ENDBRANCH  18  20
ENDBRANCH  15  17
ENDBRANCH   1  15
TORSDOF 5
ENDMDL
MODEL 8
REMARK VINA RESULT:      -7.4      3.761      7.307
REMARK  Name = 
REMARK  5 active torsions:
REMARK  status: ('A' for Active; 'I' for Inactive)
REMARK    1  A    between atoms: C_2  and  C_3
REMARK    2  A    between atoms: C_3  and  N_4
REMARK    3  A    between atoms: C_10  and  N_11
REMARK    4  A    between atoms: N_18  and  C_19
REMARK    5  A    between atoms: C_19  and  C_20
REMARK                            x       y       z     vdW  Elec       q    Type
REMARK                         _______ _______ _______ _____ _____    ______ ____
ROOT
ATOM      1  N   UNL     1       6.329   5.045  17.806  0.00  0.00    +0.000 N 
ATOM      2  C   UNL     1       5.691   4.401  16.785  0.00  0.00    +0.000 C 
ATOM      3  O   UNL     1       5.994   4.331  15.610  0.00  0.00    +0.000 OA
ATOM      4  C   UNL     1       4.478   3.817  17.360  0.00  0.00    +0.000 A 
ATOM      5  C   UNL     1       3.482   3.065  16.766  0.00  0.00    +0.000 A 
ATOM      6  C   UNL     1       2.407   2.672  17.572  0.00  0.00    +0.000 A 
ATOM      7  C   UNL     1       2.357   3.051  18.939  0.00  0.00    +0.000 A 
ATOM      8  C   UNL     1       3.383   3.812  19.523  0.00  0.00    +0.000 A 
ATOM      9  C   UNL     1       4.435   4.172  18.699  0.00  0.00    +0.000 A 
ATOM     10  C   UNL     1       5.634   4.965  18.980  0.00  0.00    +0.000 C 
ATOM     11  O   UNL     1       5.886   5.462  20.059  0.00  0.00    +0.000 OA
ENDROOT
BRANCH   7  12
ATOM     12  N   UNL     1       1.200   2.649  19.753  0.00  0.00    +0.000 N 
ATOM     13  O   UNL     1       0.155   2.351  19.159  0.00  0.00    +0.000 OA
ATOM     14  O   UNL     1       1.340   2.640  20.983  0.00  0.00    +0.000 OA
ENDBRANCH   7  12
BRANCH   1  15
ATOM     15  C   UNL     1       7.593   5.731  17.650  0.00  0.00    +0.000 C 
BRANCH  15  17
ATOM     16  O   UNL     1       6.520   7.719  16.736  0.00  0.00    +0.000 OA
ATOM     17  C   UNL     1       7.381   7.237  17.466  0.00  0.00    +0.000 C 
ATOM     18  N   UNL     1       8.286   8.003  18.174  0.00  0.00    +0.000 N 
ATOM     19  H   UNL     1       8.812   7.584  18.933  0.00  0.00    +0.000 HD
BRANCH  18  20
ATOM     20  C   UNL     1       8.273   9.460  18.148  0.00  0.00    +0.000 C 
BRANCH  20  21
ATOM     21  C   UNL     1       9.524  10.047  18.813  0.00  0.00    +0.000 C 
ATOM     22  C   UNL     1       9.274  10.668  20.180  0.00  0.00    +0.000 C 
ATOM     23  C   UNL     1      10.321  11.753  20.240  0.00  0.00    +0.000 C 
ATOM     24  C   UNL     1      10.380  12.222  18.804  0.00  0.00    +0.000 C 
ATOM     25  O   UNL     1      10.074  11.091  17.979  0.00  0.00    +0.000 OA
ENDBRANCH  20  21
ENDBRANCH  18  20
ENDBRANCH  15  17
ENDBRANCH   1  15
TORSDOF 5
ENDMDL
MODEL 9
REMARK VINA RESULT:      -7.4      3.818      7.313
REMARK  Name = 
REMARK  5 active torsions:
REMARK  status: ('A' for Active; 'I' for Inactive)
REMARK    1  A    between atoms: C_2  and  C_3
REMARK    2  A    between atoms: C_3  and  N_4
REMARK    3  A    between atoms: C_10  and  N_11
REMARK    4  A    between atoms: N_18  and  C_19
REMARK    5  A    between atoms: C_19  and  C_20
REMARK                            x       y       z     vdW  Elec       q    Type
REMARK                         _______ _______ _______ _____ _____    ______ ____
ROOT
ATOM      1  N   UNL     1       5.500   6.024  17.032  0.00  0.00    +0.000 N 
ATOM      2  C   UNL     1       5.712   4.688  16.851  0.00  0.00    +0.000 C 
ATOM      3  O   UNL     1       6.631   4.123  16.291  0.00  0.00    +0.000 OA
ATOM      4  C   UNL     1       4.554   4.005  17.429  0.00  0.00    +0.000 A 
ATOM      5  C   UNL     1       4.265   2.656  17.515  0.00  0.00    +0.000 A 
ATOM      6  C   UNL     1       3.043   2.297  18.096  0.00  0.00    +0.000 A 
ATOM      7  C   UNL     1       2.148   3.294  18.564  0.00  0.00    +0.000 A 
ATOM      8  C   UNL     1       2.466   4.660  18.472  0.00  0.00    +0.000 A 
ATOM      9  C   UNL     1       3.686   4.976  17.901  0.00  0.00    +0.000 A 
ATOM     10  C   UNL     1       4.305   6.279  17.642  0.00  0.00    +0.000 C 
ATOM     11  O   UNL     1       3.786   7.345  17.904  0.00  0.00    +0.000 OA
ENDROOT
BRANCH   7  12
ATOM     12  N   UNL     1       0.859   2.888  19.143  0.00  0.00    +0.000 N 
ATOM     13  O   UNL     1       0.125   2.161  18.459  0.00  0.00    +0.000 OA
ATOM     14  O   UNL     1       0.583   3.304  20.276  0.00  0.00    +0.000 OA
ENDBRANCH   7  12
BRANCH   1  15
ATOM     15  C   UNL     1       6.441   7.044  16.620  0.00  0.00    +0.000 C 
BRANCH  15  17
ATOM     16  O   UNL     1       7.869   6.443  18.501  0.00  0.00    +0.000 OA
ATOM     17  C   UNL     1       7.485   7.300  17.711  0.00  0.00    +0.000 C 
ATOM     18  N   UNL     1       7.923   8.610  17.746  0.00  0.00    +0.000 N 
ATOM     19  H   UNL     1       7.767   9.212  16.946  0.00  0.00    +0.000 HD
BRANCH  18  20
ATOM     20  C   UNL     1       8.915   9.081  18.703  0.00  0.00    +0.000 C 
BRANCH  20  21
ATOM     21  C   UNL     1       8.963  10.613  18.757  0.00  0.00    +0.000 C 
ATOM     22  C   UNL     1      10.086  11.235  17.938  0.00  0.00    +0.000 C 
ATOM     23  C   UNL     1      10.391  12.494  18.710  0.00  0.00    +0.000 C 
ATOM     24  C   UNL     1      10.176  12.055  20.140  0.00  0.00    +0.000 C 
ATOM     25  O   UNL     1       9.159  11.046  20.122  0.00  0.00    +0.000 OA
ENDBRANCH  20  21
ENDBRANCH  18  20
ENDBRANCH  15  17
ENDBRANCH   1  15
TORSDOF 5
ENDMDL
