MODEL 1
REMARK VINA RESULT:      -7.4      0.000      0.000
REMARK  Name = 
REMARK  3 active torsions:
REMARK  status: ('A' for Active; 'I' for Inactive)
REMARK    1  A    between atoms: C_1  and  C_2
REMARK    2  A    between atoms: C_5  and  N_6
REMARK    3  A    between atoms: C_7  and  C_9
REMARK                            x       y       z     vdW  Elec       q    Type
REMARK                         _______ _______ _______ _____ _____    ______ ____
ROOT
ATOM      1  C   UNL     1       1.351   8.769  19.447  0.00  0.00    +0.000 A 
ATOM      2  C   UNL     1       1.289   8.328  20.759  0.00  0.00    +0.000 A 
ATOM      3  C   UNL     1       0.469   9.221  21.502  0.00  0.00    +0.000 A 
ATOM      4  C   UNL     1       0.126   9.315  22.864  0.00  0.00    +0.000 A 
ATOM      5  C   UNL     1      -0.679  10.375  23.298  0.00  0.00    +0.000 A 
ATOM      6  C   UNL     1      -1.167  11.316  22.389  0.00  0.00    +0.000 A 
ATOM      7 CL   UNL     1      -2.136  12.601  23.027  0.00  0.00    +0.000 Cl
ATOM      8  C   UNL     1      -0.863  11.221  21.019  0.00  0.00    +0.000 A 
ATOM      9 CL   UNL     1      -1.456  12.342  19.851  0.00  0.00    +0.000 Cl
ATOM     10  C   UNL     1      -0.024  10.169  20.608  0.00  0.00    +0.000 A 
ATOM     11  N   UNL     1       0.486   9.844  19.366  0.00  0.00    +0.000 N 
ATOM     12  H   UNL     1       0.307  10.363  18.513  0.00  0.00    +0.000 HD
ENDROOT
BRANCH   1  14
ATOM     13  N   UNL     1       2.715   7.069  18.459  0.00  0.00    +0.000 N 
ATOM     14  C   UNL     1       2.137   8.315  18.312  0.00  0.00    +0.000 C 
ATOM     15  O   UNL     1       2.300   9.008  17.313  0.00  0.00    +0.000 OA
ATOM     16  H   UNL     1       2.443   6.509  19.250  0.00  0.00    +0.000 HD
BRANCH  13  21
ATOM     17  C   UNL     1       6.824   4.089  15.684  0.00  0.00    +0.000 C 
ATOM     18  C   UNL     1       5.916   4.757  16.718  0.00  0.00    +0.000 C 
ATOM     19  C   UNL     1       5.944   6.284  16.568  0.00  0.00    +0.000 C 
ATOM     20  C   UNL     1       4.994   6.969  17.551  0.00  0.00    +0.000 C 
ATOM     21  C   UNL     1       3.555   6.436  17.448  0.00  0.00    +0.000 C 
ATOM     22  C   UNL     1       3.540   4.912  17.597  0.00  0.00    +0.000 C 
ATOM     23  C   UNL     1       4.481   4.231  16.603  0.00  0.00    +0.000 C 
ENDBRANCH  13  21
ENDBRANCH   1  14
TORSDOF 2
ENDMDL
MODEL 2
REMARK VINA RESULT:      -7.2      2.155      2.764
REMARK  Name = 
REMARK  3 active torsions:
REMARK  status: ('A' for Active; 'I' for Inactive)
REMARK    1  A    between atoms: C_1  and  C_2
REMARK    2  A    between atoms: C_5  and  N_6
REMARK    3  A    between atoms: C_7  and  C_9
REMARK                            x       y       z     vdW  Elec       q    Type
REMARK                         _______ _______ _______ _____ _____    ______ ____
ROOT
ATOM      1  C   UNL     1       1.447   9.148  19.103  0.00  0.00    +0.000 A 
ATOM      2  C   UNL     1       0.944  10.323  18.568  0.00  0.00    +0.000 A 
ATOM      3  C   UNL     1       0.155  10.972  19.556  0.00  0.00    +0.000 A 
ATOM      4  C   UNL     1      -0.648  12.129  19.548  0.00  0.00    +0.000 A 
ATOM      5  C   UNL     1      -1.363  12.477  20.700  0.00  0.00    +0.000 A 
ATOM      6  C   UNL     1      -1.262  11.706  21.860  0.00  0.00    +0.000 A 
ATOM      7 CL   UNL     1      -2.203  12.207  23.225  0.00  0.00    +0.000 Cl
ATOM      8  C   UNL     1      -0.441  10.565  21.899  0.00  0.00    +0.000 A 
ATOM      9 CL   UNL     1      -0.263   9.590  23.309  0.00  0.00    +0.000 Cl
ATOM     10  C   UNL     1       0.242  10.212  20.720  0.00  0.00    +0.000 A 
ATOM     11  N   UNL     1       1.068   9.142  20.432  0.00  0.00    +0.000 N 
ATOM     12  H   UNL     1       1.313   8.408  21.088  0.00  0.00    +0.000 HD
ENDROOT
BRANCH   1  14
ATOM     13  N   UNL     1       2.098   6.846  19.161  0.00  0.00    +0.000 N 
ATOM     14  C   UNL     1       2.195   8.056  18.502  0.00  0.00    +0.000 C 
ATOM     15  O   UNL     1       2.889   8.214  17.503  0.00  0.00    +0.000 OA
ATOM     16  H   UNL     1       1.421   6.761  19.901  0.00  0.00    +0.000 HD
BRANCH  13  21
ATOM     17  C   UNL     1       3.704   1.356  18.297  0.00  0.00    +0.000 C 
ATOM     18  C   UNL     1       3.005   2.650  18.716  0.00  0.00    +0.000 C 
ATOM     19  C   UNL     1       3.926   3.515  19.587  0.00  0.00    +0.000 C 
ATOM     20  C   UNL     1       3.269   4.843  19.964  0.00  0.00    +0.000 C 
ATOM     21  C   UNL     1       2.783   5.629  18.736  0.00  0.00    +0.000 C 
ATOM     22  C   UNL     1       1.866   4.757  17.874  0.00  0.00    +0.000 C 
ATOM     23  C   UNL     1       2.533   3.436  17.487  0.00  0.00    +0.000 C 
ENDBRANCH  13  21
ENDBRANCH   1  14
TORSDOF 2
ENDMDL
MODEL 3
REMARK VINA RESULT:      -7.1      3.536      8.076
REMARK  Name = 
REMARK  3 active torsions:
REMARK  status: ('A' for Active; 'I' for Inactive)
REMARK    1  A    between atoms: C_1  and  C_2
REMARK    2  A    between atoms: C_5  and  N_6
REMARK    3  A    between atoms: C_7  and  C_9
REMARK                            x       y       z     vdW  Elec       q    Type
REMARK                         _______ _______ _______ _____ _____    ______ ____
ROOT
ATOM      1  C   UNL     1       2.561   7.828  18.294  0.00  0.00    +0.000 A 
ATOM      2  C   UNL     1       3.480   7.269  17.421  0.00  0.00    +0.000 A 
ATOM      3  C   UNL     1       3.853   5.988  17.912  0.00  0.00    +0.000 A 
ATOM      4  C   UNL     1       4.791   5.026  17.492  0.00  0.00    +0.000 A 
ATOM      5  C   UNL     1       4.964   3.859  18.246  0.00  0.00    +0.000 A 
ATOM      6  C   UNL     1       4.194   3.631  19.389  0.00  0.00    +0.000 A 
ATOM      7 CL   UNL     1       4.498   2.169  20.265  0.00  0.00    +0.000 Cl
ATOM      8  C   UNL     1       3.230   4.564  19.807  0.00  0.00    +0.000 A 
ATOM      9 CL   UNL     1       2.238   4.323  21.197  0.00  0.00    +0.000 Cl
ATOM     10  C   UNL     1       3.096   5.746  19.055  0.00  0.00    +0.000 A 
ATOM     11  N   UNL     1       2.289   6.853  19.236  0.00  0.00    +0.000 N 
ATOM     12  H   UNL     1       1.630   6.970  19.998  0.00  0.00    +0.000 HD
ENDROOT
BRANCH   1  14
ATOM     13  N   UNL     1       1.147   9.382  19.439  0.00  0.00    +0.000 N 
ATOM     14  C   UNL     1       1.958   9.150  18.346  0.00  0.00    +0.000 C 
ATOM     15  O   UNL     1       2.133   9.980  17.460  0.00  0.00    +0.000 OA
ATOM     16  H   UNL     1       1.143   8.703  20.182  0.00  0.00    +0.000 HD
BRANCH  13  21
ATOM     17  C   UNL     1      -2.625  13.422  21.147  0.00  0.00    +0.000 C 
ATOM     18  C   UNL     1      -1.847  12.131  20.891  0.00  0.00    +0.000 C 
ATOM     19  C   UNL     1      -1.821  11.793  19.395  0.00  0.00    +0.000 C 
ATOM     20  C   UNL     1      -0.994  10.538  19.109  0.00  0.00    +0.000 C 
ATOM     21  C   UNL     1       0.433  10.634  19.673  0.00  0.00    +0.000 C 
ATOM     22  C   UNL     1       0.395  10.973  21.166  0.00  0.00    +0.000 C 
ATOM     23  C   UNL     1      -0.421  12.236  21.444  0.00  0.00    +0.000 C 
ENDBRANCH  13  21
ENDBRANCH   1  14
TORSDOF 2
ENDMDL
MODEL 4
REMARK VINA RESULT:      -7.1      3.787      9.107
REMARK  Name = 
REMARK  3 active torsions:
REMARK  status: ('A' for Active; 'I' for Inactive)
REMARK    1  A    between atoms: C_1  and  C_2
REMARK    2  A    between atoms: C_5  and  N_6
REMARK    3  A    between atoms: C_7  and  C_9
REMARK                            x       y       z     vdW  Elec       q    Type
REMARK                         _______ _______ _______ _____ _____    ______ ____
ROOT
ATOM      1  C   UNL     1       0.547   9.587  21.250  0.00  0.00    +0.000 A 
ATOM      2  C   UNL     1       0.854  10.034  19.975  0.00  0.00    +0.000 A 
ATOM      3  C   UNL     1       1.534   8.997  19.280  0.00  0.00    +0.000 A 
ATOM      4  C   UNL     1       2.142   8.917  18.013  0.00  0.00    +0.000 A 
ATOM      5  C   UNL     1       2.797   7.739  17.637  0.00  0.00    +0.000 A 
ATOM      6  C   UNL     1       2.825   6.637  18.495  0.00  0.00    +0.000 A 
ATOM      7 CL   UNL     1       3.680   5.234  17.949  0.00  0.00    +0.000 Cl
ATOM      8  C   UNL     1       2.197   6.685  19.752  0.00  0.00    +0.000 A 
ATOM      9 CL   UNL     1       2.182   5.347  20.840  0.00  0.00    +0.000 Cl
ATOM     10  C   UNL     1       1.573   7.890  20.124  0.00  0.00    +0.000 A 
ATOM     11  N   UNL     1       0.927   8.259  21.289  0.00  0.00    +0.000 N 
ATOM     12  H   UNL     1       0.805   7.658  22.097  0.00  0.00    +0.000 HD
ENDROOT
BRANCH   1  14
ATOM     13  N   UNL     1      -0.754  11.401  22.110  0.00  0.00    +0.000 N 
ATOM     14  C   UNL     1      -0.021  10.268  22.402  0.00  0.00    +0.000 C 
ATOM     15  O   UNL     1       0.173   9.879  23.549  0.00  0.00    +0.000 OA
ATOM     16  H   UNL     1      -0.970  11.593  21.146  0.00  0.00    +0.000 HD
BRANCH  13  21
ATOM     17  C   UNL     1      -3.751  15.505  24.876  0.00  0.00    +0.000 C 
ATOM     18  C   UNL     1      -3.077  14.599  23.844  0.00  0.00    +0.000 C 
ATOM     19  C   UNL     1      -1.551  14.627  24.002  0.00  0.00    +0.000 C 
ATOM     20  C   UNL     1      -0.860  13.679  23.021  0.00  0.00    +0.000 C 
ATOM     21  C   UNL     1      -1.393  12.240  23.120  0.00  0.00    +0.000 C 
ATOM     22  C   UNL     1      -2.917  12.224  22.963  0.00  0.00    +0.000 C 
ATOM     23  C   UNL     1      -3.603  13.163  23.955  0.00  0.00    +0.000 C 
ENDBRANCH  13  21
ENDBRANCH   1  14
TORSDOF 2
ENDMDL
MODEL 5
REMARK VINA RESULT:      -7.1      0.713      1.312
REMARK  Name = 
REMARK  3 active torsions:
REMARK  status: ('A' for Active; 'I' for Inactive)
REMARK    1  A    between atoms: C_1  and  C_2
REMARK    2  A    between atoms: C_5  and  N_6
REMARK    3  A    between atoms: C_7  and  C_9
REMARK                            x       y       z     vdW  Elec       q    Type
REMARK                         _______ _______ _______ _____ _____    ______ ____
ROOT
ATOM      1  C   UNL     1       1.576   8.261  19.711  0.00  0.00    +0.000 A 
ATOM      2  C   UNL     1       1.233   7.919  21.010  0.00  0.00    +0.000 A 
ATOM      3  C   UNL     1       0.461   8.973  21.570  0.00  0.00    +0.000 A 
ATOM      4  C   UNL     1      -0.075   9.206  22.851  0.00  0.00    +0.000 A 
ATOM      5  C   UNL     1      -0.755  10.403  23.104  0.00  0.00    +0.000 A 
ATOM      6  C   UNL     1      -0.930  11.349  22.091  0.00  0.00    +0.000 A 
ATOM      7 CL   UNL     1      -1.766  12.807  22.510  0.00  0.00    +0.000 Cl
ATOM      8  C   UNL     1      -0.430  11.121  20.797  0.00  0.00    +0.000 A 
ATOM      9 CL   UNL     1      -0.637  12.245  19.505  0.00  0.00    +0.000 Cl
ATOM     10  C   UNL     1       0.280   9.928  20.572  0.00  0.00    +0.000 A 
ATOM     11  N   UNL     1       0.923   9.449  19.446  0.00  0.00    +0.000 N 
ATOM     12  H   UNL     1       0.970   9.935  18.557  0.00  0.00    +0.000 HD
ENDROOT
BRANCH   1  14
ATOM     13  N   UNL     1       3.178   6.551  19.227  0.00  0.00    +0.000 N 
ATOM     14  C   UNL     1       2.449   7.619  18.742  0.00  0.00    +0.000 C 
ATOM     15  O   UNL     1       2.551   8.025  17.589  0.00  0.00    +0.000 OA
ATOM     16  H   UNL     1       2.957   6.201  20.144  0.00  0.00    +0.000 HD
BRANCH  13  21
ATOM     17  C   UNL     1       6.071   4.031  14.897  0.00  0.00    +0.000 C 
ATOM     18  C   UNL     1       5.104   4.835  15.767  0.00  0.00    +0.000 C 
ATOM     19  C   UNL     1       4.307   3.914  16.699  0.00  0.00    +0.000 C 
ATOM     20  C   UNL     1       3.378   4.704  17.622  0.00  0.00    +0.000 C 
ATOM     21  C   UNL     1       4.125   5.781  18.426  0.00  0.00    +0.000 C 
ATOM     22  C   UNL     1       4.917   6.694  17.485  0.00  0.00    +0.000 C 
ATOM     23  C   UNL     1       5.855   5.900  16.575  0.00  0.00    +0.000 C 
ENDBRANCH  13  21
ENDBRANCH   1  14
TORSDOF 2
ENDMDL
MODEL 6
REMARK VINA RESULT:      -7.1      3.876      8.508
REMARK  Name = 
REMARK  3 active torsions:
REMARK  status: ('A' for Active; 'I' for Inactive)
REMARK    1  A    between atoms: C_1  and  C_2
REMARK    2  A    between atoms: C_5  and  N_6
REMARK    3  A    between atoms: C_7  and  C_9
REMARK                            x       y       z     vdW  Elec       q    Type
REMARK                         _______ _______ _______ _____ _____    ______ ____
ROOT
ATOM      1  C   UNL     1       1.773   7.635  20.387  0.00  0.00    +0.000 A 
ATOM      2  C   UNL     1       2.270   7.551  19.096  0.00  0.00    +0.000 A 
ATOM      3  C   UNL     1       2.683   6.213  18.852  0.00  0.00    +0.000 A 
ATOM      4  C   UNL     1       3.324   5.579  17.771  0.00  0.00    +0.000 A 
ATOM      5  C   UNL     1       3.655   4.223  17.868  0.00  0.00    +0.000 A 
ATOM      6  C   UNL     1       3.327   3.491  19.012  0.00  0.00    +0.000 A 
ATOM      7 CL   UNL     1       3.799   1.825  19.044  0.00  0.00    +0.000 Cl
ATOM      8  C   UNL     1       2.658   4.097  20.089  0.00  0.00    +0.000 A 
ATOM      9 CL   UNL     1       2.211   3.236  21.515  0.00  0.00    +0.000 Cl
ATOM     10  C   UNL     1       2.365   5.470  19.987  0.00  0.00    +0.000 A 
ATOM     11  N   UNL     1       1.773   6.344  20.878  0.00  0.00    +0.000 N 
ATOM     12  H   UNL     1       1.441   6.089  21.803  0.00  0.00    +0.000 HD
ENDROOT
BRANCH   1  14
ATOM     13  N   UNL     1       0.403   9.587  20.584  0.00  0.00    +0.000 N 
ATOM     14  C   UNL     1       1.342   8.772  21.184  0.00  0.00    +0.000 C 
ATOM     15  O   UNL     1       1.810   9.003  22.294  0.00  0.00    +0.000 OA
ATOM     16  H   UNL     1      -0.021   9.273  19.727  0.00  0.00    +0.000 HD
BRANCH  13  21
ATOM     17  C   UNL     1      -3.105  13.607  22.820  0.00  0.00    +0.000 C 
ATOM     18  C   UNL     1      -2.493  12.359  22.183  0.00  0.00    +0.000 C 
ATOM     19  C   UNL     1      -1.798  12.702  20.859  0.00  0.00    +0.000 C 
ATOM     20  C   UNL     1      -1.124  11.478  20.237  0.00  0.00    +0.000 C 
ATOM     21  C   UNL     1      -0.148  10.788  21.204  0.00  0.00    +0.000 C 
ATOM     22  C   UNL     1      -0.852  10.452  22.521  0.00  0.00    +0.000 C 
ATOM     23  C   UNL     1      -1.511  11.681  23.147  0.00  0.00    +0.000 C 
ENDBRANCH  13  21
ENDBRANCH   1  14
TORSDOF 2
ENDMDL
MODEL 7
REMARK VINA RESULT:      -7.1      3.502      8.164
REMARK  Name = 
REMARK  3 active torsions:
REMARK  status: ('A' for Active; 'I' for Inactive)
REMARK    1  A    between atoms: C_1  and  C_2
REMARK    2  A    between atoms: C_5  and  N_6
REMARK    3  A    between atoms: C_7  and  C_9
REMARK                            x       y       z     vdW  Elec       q    Type
REMARK                         _______ _______ _______ _____ _____    ______ ____
ROOT
ATOM      1  C   UNL     1       2.639   7.689  17.955  0.00  0.00    +0.000 A 
ATOM      2  C   UNL     1       3.828   7.304  17.356  0.00  0.00    +0.000 A 
ATOM      3  C   UNL     1       3.953   5.891  17.459  0.00  0.00    +0.000 A 
ATOM      4  C   UNL     1       4.969   4.981  17.111  0.00  0.00    +0.000 A 
ATOM      5  C   UNL     1       4.805   3.623  17.406  0.00  0.00    +0.000 A 
ATOM      6  C   UNL     1       3.634   3.163  18.011  0.00  0.00    +0.000 A 
ATOM      7 CL   UNL     1       3.536   1.468  18.354  0.00  0.00    +0.000 Cl
ATOM      8  C   UNL     1       2.594   4.051  18.337  0.00  0.00    +0.000 A 
ATOM      9 CL   UNL     1       1.118   3.534  19.066  0.00  0.00    +0.000 Cl
ATOM     10  C   UNL     1       2.792   5.417  18.065  0.00  0.00    +0.000 A 
ATOM     11  N   UNL     1       1.996   6.519  18.310  0.00  0.00    +0.000 N 
ATOM     12  H   UNL     1       1.084   6.487  18.754  0.00  0.00    +0.000 HD
ENDROOT
BRANCH   1  14
ATOM     13  N   UNL     1       1.337   9.081  19.401  0.00  0.00    +0.000 N 
ATOM     14  C   UNL     1       2.084   9.002  18.242  0.00  0.00    +0.000 C 
ATOM     15  O   UNL     1       2.242   9.955  17.487  0.00  0.00    +0.000 OA
ATOM     16  H   UNL     1       1.348   8.295  20.029  0.00  0.00    +0.000 HD
BRANCH  13  21
ATOM     17  C   UNL     1      -2.314  12.905  21.750  0.00  0.00    +0.000 C 
ATOM     18  C   UNL     1      -1.591  11.649  21.260  0.00  0.00    +0.000 C 
ATOM     19  C   UNL     1      -1.490  11.635  19.730  0.00  0.00    +0.000 C 
ATOM     20  C   UNL     1      -0.715  10.418  19.222  0.00  0.00    +0.000 C 
ATOM     21  C   UNL     1       0.678  10.299  19.863  0.00  0.00    +0.000 C 
ATOM     22  C   UNL     1       0.564  10.315  21.390  0.00  0.00    +0.000 C 
ATOM     23  C   UNL     1      -0.199  11.541  21.894  0.00  0.00    +0.000 C 
ENDBRANCH  13  21
ENDBRANCH   1  14
TORSDOF 2
ENDMDL
MODEL 8
REMARK VINA RESULT:      -7.0      3.804      8.448
REMARK  Name = 
REMARK  3 active torsions:
REMARK  status: ('A' for Active; 'I' for Inactive)
REMARK    1  A    between atoms: C_1  and  C_2
REMARK    2  A    between atoms: C_5  and  N_6
REMARK    3  A    between atoms: C_7  and  C_9
REMARK                            x       y       z     vdW  Elec       q    Type
REMARK                         _______ _______ _______ _____ _____    ______ ____
ROOT
ATOM      1  C   UNL     1       3.469   6.172  19.241  0.00  0.00    +0.000 A 
ATOM      2  C   UNL     1       4.529   5.349  19.588  0.00  0.00    +0.000 A 
ATOM      3  C   UNL     1       5.364   5.179  18.450  0.00  0.00    +0.000 A 
ATOM      4  C   UNL     1       6.509   4.400  18.197  0.00  0.00    +0.000 A 
ATOM      5  C   UNL     1       7.079   4.410  16.919  0.00  0.00    +0.000 A 
ATOM      6  C   UNL     1       6.540   5.207  15.907  0.00  0.00    +0.000 A 
ATOM      7 CL   UNL     1       7.303   5.134  14.354  0.00  0.00    +0.000 Cl
ATOM      8  C   UNL     1       5.416   6.017  16.147  0.00  0.00    +0.000 A 
ATOM      9 CL   UNL     1       4.723   7.035  14.941  0.00  0.00    +0.000 Cl
ATOM     10  C   UNL     1       4.837   5.966  17.429  0.00  0.00    +0.000 A 
ATOM     11  N   UNL     1       3.720   6.592  17.949  0.00  0.00    +0.000 N 
ATOM     12  H   UNL     1       3.120   7.226  17.433  0.00  0.00    +0.000 HD
ENDROOT
BRANCH   1  14
ATOM     13  N   UNL     1       2.028   7.922  20.005  0.00  0.00    +0.000 N 
ATOM     14  C   UNL     1       2.272   6.564  19.968  0.00  0.00    +0.000 C 
ATOM     15  O   UNL     1       1.557   5.744  20.535  0.00  0.00    +0.000 OA
ATOM     16  H   UNL     1       2.587   8.522  19.422  0.00  0.00    +0.000 HD
BRANCH  13  21
ATOM     17  C   UNL     1      -1.484  11.475  22.923  0.00  0.00    +0.000 C 
ATOM     18  C   UNL     1      -0.318  10.816  22.185  0.00  0.00    +0.000 C 
ATOM     19  C   UNL     1       0.144   9.546  22.910  0.00  0.00    +0.000 C 
ATOM     20  C   UNL     1       1.268   8.836  22.154  0.00  0.00    +0.000 C 
ATOM     21  C   UNL     1       0.892   8.526  20.696  0.00  0.00    +0.000 C 
ATOM     22  C   UNL     1       0.431   9.801  19.982  0.00  0.00    +0.000 C 
ATOM     23  C   UNL     1      -0.702  10.499  20.735  0.00  0.00    +0.000 C 
ENDBRANCH  13  21
ENDBRANCH   1  14
TORSDOF 2
ENDMDL
MODEL 9
REMARK VINA RESULT:      -6.9      1.524      1.972
REMARK  Name = 
REMARK  3 active torsions:
REMARK  status: ('A' for Active; 'I' for Inactive)
REMARK    1  A    between atoms: C_1  and  C_2
REMARK    2  A    between atoms: C_5  and  N_6
REMARK    3  A    between atoms: C_7  and  C_9
REMARK                            x       y       z     vdW  Elec       q    Type
REMARK                         _______ _______ _______ _____ _____    ______ ____
ROOT
ATOM      1  C   UNL     1       1.656   7.617  20.373  0.00  0.00    +0.000 A 
ATOM      2  C   UNL     1       0.900   7.686  21.532  0.00  0.00    +0.000 A 
ATOM      3  C   UNL     1       0.328   8.984  21.626  0.00  0.00    +0.000 A 
ATOM      4  C   UNL     1      -0.444   9.633  22.608  0.00  0.00    +0.000 A 
ATOM      5  C   UNL     1      -0.811  10.971  22.421  0.00  0.00    +0.000 A 
ATOM      6  C   UNL     1      -0.443  11.653  21.259  0.00  0.00    +0.000 A 
ATOM      7 CL   UNL     1      -0.926  13.311  21.131  0.00  0.00    +0.000 Cl
ATOM      8  C   UNL     1       0.300  11.013  20.252  0.00  0.00    +0.000 A 
ATOM      9 CL   UNL     1       0.762  11.801  18.789  0.00  0.00    +0.000 Cl
ATOM     10  C   UNL     1       0.688   9.679  20.474  0.00  0.00    +0.000 A 
ATOM     11  N   UNL     1       1.450   8.814  19.713  0.00  0.00    +0.000 N 
ATOM     12  H   UNL     1       1.864   9.044  18.816  0.00  0.00    +0.000 HD
ENDROOT
BRANCH   1  14
ATOM     13  N   UNL     1       3.274   6.946  18.743  0.00  0.00    +0.000 N 
ATOM     14  C   UNL     1       2.544   6.587  19.859  0.00  0.00    +0.000 C 
ATOM     15  O   UNL     1       2.607   5.471  20.363  0.00  0.00    +0.000 OA
ATOM     16  H   UNL     1       3.261   7.911  18.456  0.00  0.00    +0.000 HD
BRANCH  13  21
ATOM     17  C   UNL     1       6.135   3.806  14.816  0.00  0.00    +0.000 C 
ATOM     18  C   UNL     1       5.180   4.739  15.561  0.00  0.00    +0.000 C 
ATOM     19  C   UNL     1       4.361   3.968  16.605  0.00  0.00    +0.000 C 
ATOM     20  C   UNL     1       3.444   4.894  17.406  0.00  0.00    +0.000 C 
ATOM     21  C   UNL     1       4.208   6.056  18.060  0.00  0.00    +0.000 C 
ATOM     22  C   UNL     1       5.023   6.818  17.010  0.00  0.00    +0.000 C 
ATOM     23  C   UNL     1       5.948   5.890  16.222  0.00  0.00    +0.000 C 
ENDBRANCH  13  21
ENDBRANCH   1  14
TORSDOF 2
ENDMDL
