MODEL 1
REMARK VINA RESULT:      -8.2      0.000      0.000
REMARK  Name = 
REMARK  7 active torsions:
REMARK  status: ('A' for Active; 'I' for Inactive)
REMARK    1  A    between atoms: C_1  and  C_2
REMARK    2  A    between atoms: C_2  and  C_3
REMARK    3  A    between atoms: C_6  and  C_7
REMARK    4  A    between atoms: C_7  and  N_8
REMARK    5  A    between atoms: C_12  and  C_13
REMARK    6  A    between atoms: C_13  and  C_14
REMARK    7  A    between atoms: C_14  and  C_15
REMARK                            x       y       z     vdW  Elec       q    Type
REMARK                         _______ _______ _______ _____ _____    ______ ____
ROOT
ATOM      1  C   UNL     1       1.497   6.016  20.300  0.00  0.00    +0.000 C 
ENDROOT
BRANCH   1   6
ATOM      2  N   UNL     1       2.989   3.368  17.915  0.00  0.00    +0.000 NA
ATOM      3  C   UNL     1       2.551   2.166  18.640  0.00  0.00    +0.000 C 
ATOM      4  C   UNL     1       1.134   2.308  19.187  0.00  0.00    +0.000 C 
ATOM      5  C   UNL     1       1.020   3.519  20.099  0.00  0.00    +0.000 C 
ATOM      6  C   UNL     1       1.469   4.787  19.364  0.00  0.00    +0.000 C 
ATOM      7  C   UNL     1       2.866   4.585  18.739  0.00  0.00    +0.000 C 
BRANCH   2   8
ATOM      8  C   UNL     1       4.406   3.218  17.492  0.00  0.00    +0.000 C 
BRANCH   8  12
ATOM      9  C   UNL     1       6.556   6.098  17.508  0.00  0.00    +0.000 A 
ATOM     10  C   UNL     1       5.802   6.493  16.422  0.00  0.00    +0.000 A 
ATOM     11  C   UNL     1       4.847   5.475  16.209  0.00  0.00    +0.000 A 
ATOM     12  C   UNL     1       5.065   4.520  17.176  0.00  0.00    +0.000 A 
ATOM     13  O   UNL     1       6.111   4.896  17.979  0.00  0.00    +0.000 OA
BRANCH   9  15
ATOM     14  C   UNL     1       7.923   8.152  17.775  0.00  0.00    +0.000 C 
ATOM     15  C   UNL     1       7.711   6.711  18.212  0.00  0.00    +0.000 C 
ENDBRANCH   9  15
ENDBRANCH   8  12
ENDBRANCH   2   8
ENDBRANCH   1   6
BRANCH   1  16
ATOM     16  C   UNL     1       2.542   7.056  19.900  0.00  0.00    +0.000 C 
BRANCH  16  17
ATOM     17  C   UNL     1       1.971   8.183  19.054  0.00  0.00    +0.000 C 
ATOM     18  O   UNL     1       2.206   8.272  17.850  0.00  0.00    +0.000 OA
ATOM     19  N   UNL     1       1.136   9.069  19.720  0.00  0.00    +0.000 N 
ATOM     20  C   UNL     1       0.496  10.153  18.950  0.00  0.00    +0.000 C 
ATOM     21  C   UNL     1      -0.886  10.537  19.527  0.00  0.00    +0.000 C 
ATOM     22  N   UNL     1      -0.710  10.806  20.955  0.00  0.00    +0.000 N 
ATOM     23  C   UNL     1      -1.370  11.848  21.559  0.00  0.00    +0.000 A 
ATOM     24  C   UNL     1      -0.822  12.446  22.695  0.00  0.00    +0.000 A 
ATOM     25  C   UNL     1      -1.438  13.551  23.274  0.00  0.00    +0.000 A 
ATOM     26  C   UNL     1      -2.609  14.032  22.716  0.00  0.00    +0.000 A 
ATOM     27  C   UNL     1      -3.097  13.392  21.591  0.00  0.00    +0.000 A 
ATOM     28  N   UNL     1      -2.498  12.332  21.001  0.00  0.00    +0.000 NA
ATOM     29  C   UNL     1      -0.219   9.670  21.732  0.00  0.00    +0.000 C 
ATOM     30  C   UNL     1       1.158   9.271  21.182  0.00  0.00    +0.000 C 
ENDBRANCH  16  17
ENDBRANCH   1  16
TORSDOF 6
ENDMDL
MODEL 2
REMARK VINA RESULT:      -8.2      1.551      2.151
REMARK  Name = 
REMARK  7 active torsions:
REMARK  status: ('A' for Active; 'I' for Inactive)
REMARK    1  A    between atoms: C_1  and  C_2
REMARK    2  A    between atoms: C_2  and  C_3
REMARK    3  A    between atoms: C_6  and  C_7
REMARK    4  A    between atoms: C_7  and  N_8
REMARK    5  A    between atoms: C_12  and  C_13
REMARK    6  A    between atoms: C_13  and  C_14
REMARK    7  A    between atoms: C_14  and  C_15
REMARK                            x       y       z     vdW  Elec       q    Type
REMARK                         _______ _______ _______ _____ _____    ______ ____
ROOT
ATOM      1  C   UNL     1       1.481   5.577  20.268  0.00  0.00    +0.000 C 
ENDROOT
BRANCH   1   6
ATOM      2  N   UNL     1       3.970   3.808  17.901  0.00  0.00    +0.000 NA
ATOM      3  C   UNL     1       3.546   2.422  18.154  0.00  0.00    +0.000 C 
ATOM      4  C   UNL     1       2.030   2.294  18.258  0.00  0.00    +0.000 C 
ATOM      5  C   UNL     1       1.480   3.198  19.350  0.00  0.00    +0.000 C 
ATOM      6  C   UNL     1       1.906   4.651  19.107  0.00  0.00    +0.000 C 
ATOM      7  C   UNL     1       3.434   4.740  18.910  0.00  0.00    +0.000 C 
BRANCH   2   8
ATOM      8  C   UNL     1       5.454   3.895  17.909  0.00  0.00    +0.000 C 
BRANCH   8  12
ATOM      9  C   UNL     1       6.140   4.107  14.388  0.00  0.00    +0.000 A 
ATOM     10  C   UNL     1       7.123   4.994  14.775  0.00  0.00    +0.000 A 
ATOM     11  C   UNL     1       7.046   5.084  16.182  0.00  0.00    +0.000 A 
ATOM     12  C   UNL     1       6.028   4.245  16.577  0.00  0.00    +0.000 A 
ATOM     13  O   UNL     1       5.469   3.640  15.482  0.00  0.00    +0.000 OA
BRANCH   9  15
ATOM     14  C   UNL     1       6.833   3.646  12.050  0.00  0.00    +0.000 C 
ATOM     15  C   UNL     1       5.699   3.604  13.062  0.00  0.00    +0.000 C 
ENDBRANCH   9  15
ENDBRANCH   8  12
ENDBRANCH   2   8
ENDBRANCH   1   6
BRANCH   1  16
ATOM     16  C   UNL     1       2.372   6.809  20.414  0.00  0.00    +0.000 C 
BRANCH  16  17
ATOM     17  C   UNL     1       1.959   7.957  19.506  0.00  0.00    +0.000 C 
ATOM     18  O   UNL     1       2.314   8.012  18.329  0.00  0.00    +0.000 OA
ATOM     19  N   UNL     1       1.123   8.905  20.079  0.00  0.00    +0.000 N 
ATOM     20  C   UNL     1       0.631  10.015  19.240  0.00  0.00    +0.000 C 
ATOM     21  C   UNL     1      -0.773  10.495  19.675  0.00  0.00    +0.000 C 
ATOM     22  N   UNL     1      -0.718  10.774  21.112  0.00  0.00    +0.000 N 
ATOM     23  C   UNL     1      -1.364  11.865  21.639  0.00  0.00    +0.000 A 
ATOM     24  C   UNL     1      -0.891  12.446  22.816  0.00  0.00    +0.000 A 
ATOM     25  C   UNL     1      -1.487  13.596  23.323  0.00  0.00    +0.000 A 
ATOM     26  C   UNL     1      -2.566  14.142  22.649  0.00  0.00    +0.000 A 
ATOM     27  C   UNL     1      -2.983  13.516  21.488  0.00  0.00    +0.000 A 
ATOM     28  N   UNL     1      -2.399  12.411  20.969  0.00  0.00    +0.000 NA
ATOM     29  C   UNL     1      -0.378   9.622  21.943  0.00  0.00    +0.000 C 
ATOM     30  C   UNL     1       1.016   9.128  21.533  0.00  0.00    +0.000 C 
ENDBRANCH  16  17
ENDBRANCH   1  16
TORSDOF 6
ENDMDL
MODEL 3
REMARK VINA RESULT:      -8.0      1.708      4.035
REMARK  Name = 
REMARK  7 active torsions:
REMARK  status: ('A' for Active; 'I' for Inactive)
REMARK    1  A    between atoms: C_1  and  C_2
REMARK    2  A    between atoms: C_2  and  C_3
REMARK    3  A    between atoms: C_6  and  C_7
REMARK    4  A    between atoms: C_7  and  N_8
REMARK    5  A    between atoms: C_12  and  C_13
REMARK    6  A    between atoms: C_13  and  C_14
REMARK    7  A    between atoms: C_14  and  C_15
REMARK                            x       y       z     vdW  Elec       q    Type
REMARK                         _______ _______ _______ _____ _____    ______ ____
ROOT
ATOM      1  C   UNL     1       4.291   7.778  17.776  0.00  0.00    +0.000 C 
ENDROOT
BRANCH   1   6
ATOM      2  N   UNL     1       5.340   4.123  17.095  0.00  0.00    +0.000 NA
ATOM      3  C   UNL     1       5.257   4.154  15.627  0.00  0.00    +0.000 C 
ATOM      4  C   UNL     1       5.801   5.456  15.047  0.00  0.00    +0.000 C 
ATOM      5  C   UNL     1       5.067   6.657  15.621  0.00  0.00    +0.000 C 
ATOM      6  C   UNL     1       5.141   6.649  17.152  0.00  0.00    +0.000 C 
ATOM      7  C   UNL     1       4.675   5.287  17.709  0.00  0.00    +0.000 C 
BRANCH   2   8
ATOM      8  C   UNL     1       4.707   2.882  17.613  0.00  0.00    +0.000 C 
BRANCH   8  12
ATOM      9  C   UNL     1       1.664   3.193  19.500  0.00  0.00    +0.000 A 
ATOM     10  C   UNL     1       1.087   3.415  18.267  0.00  0.00    +0.000 A 
ATOM     11  C   UNL     1       2.131   3.342  17.320  0.00  0.00    +0.000 A 
ATOM     12  C   UNL     1       3.285   3.075  18.022  0.00  0.00    +0.000 A 
ATOM     13  O   UNL     1       3.006   2.979  19.361  0.00  0.00    +0.000 OA
BRANCH   9  15
ATOM     14  C   UNL     1       2.128   2.582  21.860  0.00  0.00    +0.000 C 
ATOM     15  C   UNL     1       1.117   3.156  20.880  0.00  0.00    +0.000 C 
ENDBRANCH   9  15
ENDBRANCH   8  12
ENDBRANCH   2   8
ENDBRANCH   1   6
BRANCH   1  16
ATOM     16  C   UNL     1       2.801   7.446  17.843  0.00  0.00    +0.000 C 
BRANCH  16  17
ATOM     17  C   UNL     1       2.278   7.328  19.266  0.00  0.00    +0.000 C 
ATOM     18  O   UNL     1       2.487   6.330  19.952  0.00  0.00    +0.000 OA
ATOM     19  N   UNL     1       1.595   8.437  19.747  0.00  0.00    +0.000 N 
ATOM     20  C   UNL     1       1.111   8.420  21.141  0.00  0.00    +0.000 C 
ATOM     21  C   UNL     1       1.095   9.833  21.768  0.00  0.00    +0.000 C 
ATOM     22  N   UNL     1       0.354  10.710  20.860  0.00  0.00    +0.000 N 
ATOM     23  C   UNL     1      -0.511  11.658  21.351  0.00  0.00    +0.000 A 
ATOM     24  C   UNL     1      -1.587  12.081  20.570  0.00  0.00    +0.000 A 
ATOM     25  C   UNL     1      -2.514  12.984  21.080  0.00  0.00    +0.000 A 
ATOM     26  C   UNL     1      -2.341  13.464  22.367  0.00  0.00    +0.000 A 
ATOM     27  C   UNL     1      -1.254  13.002  23.086  0.00  0.00    +0.000 A 
ATOM     28  N   UNL     1      -0.356  12.107  22.613  0.00  0.00    +0.000 NA
ATOM     29  C   UNL     1       0.934  10.837  19.526  0.00  0.00    +0.000 C 
ATOM     30  C   UNL     1       0.957   9.445  18.878  0.00  0.00    +0.000 C 
ENDBRANCH  16  17
ENDBRANCH   1  16
TORSDOF 6
ENDMDL
MODEL 4
REMARK VINA RESULT:      -7.9      2.446      3.341
REMARK  Name = 
REMARK  7 active torsions:
REMARK  status: ('A' for Active; 'I' for Inactive)
REMARK    1  A    between atoms: C_1  and  C_2
REMARK    2  A    between atoms: C_2  and  C_3
REMARK    3  A    between atoms: C_6  and  C_7
REMARK    4  A    between atoms: C_7  and  N_8
REMARK    5  A    between atoms: C_12  and  C_13
REMARK    6  A    between atoms: C_13  and  C_14
REMARK    7  A    between atoms: C_14  and  C_15
REMARK                            x       y       z     vdW  Elec       q    Type
REMARK                         _______ _______ _______ _____ _____    ______ ____
ROOT
ATOM      1  C   UNL     1       2.948   7.640  18.276  0.00  0.00    +0.000 C 
ENDROOT
BRANCH   1   6
ATOM      2  N   UNL     1       4.770   4.735  16.499  0.00  0.00    +0.000 NA
ATOM      3  C   UNL     1       4.337   3.645  17.387  0.00  0.00    +0.000 C 
ATOM      4  C   UNL     1       2.874   3.783  17.796  0.00  0.00    +0.000 C 
ATOM      5  C   UNL     1       2.621   5.120  18.475  0.00  0.00    +0.000 C 
ATOM      6  C   UNL     1       3.062   6.273  17.567  0.00  0.00    +0.000 C 
ATOM      7  C   UNL     1       4.515   6.061  17.090  0.00  0.00    +0.000 C 
BRANCH   2   8
ATOM      8  C   UNL     1       6.223   4.609  16.213  0.00  0.00    +0.000 C 
BRANCH   8  12
ATOM      9  C   UNL     1       6.222   3.621  12.757  0.00  0.00    +0.000 A 
ATOM     10  C   UNL     1       7.239   4.545  12.637  0.00  0.00    +0.000 A 
ATOM     11  C   UNL     1       7.429   5.097  13.923  0.00  0.00    +0.000 A 
ATOM     12  C   UNL     1       6.525   4.477  14.757  0.00  0.00    +0.000 A 
ATOM     13  O   UNL     1       5.782   3.568  14.049  0.00  0.00    +0.000 OA
BRANCH   9  15
ATOM     14  C   UNL     1       4.188   3.272  11.380  0.00  0.00    +0.000 C 
ATOM     15  C   UNL     1       5.549   2.727  11.781  0.00  0.00    +0.000 C 
ENDBRANCH   9  15
ENDBRANCH   8  12
ENDBRANCH   2   8
ENDBRANCH   1   6
BRANCH   1  16
ATOM     16  C   UNL     1       1.745   8.462  17.816  0.00  0.00    +0.000 C 
BRANCH  16  17
ATOM     17  C   UNL     1       1.928   9.957  18.020  0.00  0.00    +0.000 C 
ATOM     18  O   UNL     1       2.846  10.577  17.484  0.00  0.00    +0.000 OA
ATOM     19  N   UNL     1       0.967  10.578  18.807  0.00  0.00    +0.000 N 
ATOM     20  C   UNL     1       1.045  12.039  18.998  0.00  0.00    +0.000 C 
ATOM     21  C   UNL     1      -0.353  12.676  19.178  0.00  0.00    +0.000 C 
ATOM     22  N   UNL     1      -1.038  11.942  20.244  0.00  0.00    +0.000 N 
ATOM     23  C   UNL     1      -1.805  12.605  21.170  0.00  0.00    +0.000 A 
ATOM     24  C   UNL     1      -1.983  12.054  22.440  0.00  0.00    +0.000 A 
ATOM     25  C   UNL     1      -2.693  12.748  23.415  0.00  0.00    +0.000 A 
ATOM     26  C   UNL     1      -3.232  13.982  23.097  0.00  0.00    +0.000 A 
ATOM     27  C   UNL     1      -3.017  14.469  21.821  0.00  0.00    +0.000 A 
ATOM     28  N   UNL     1      -2.309  13.819  20.869  0.00  0.00    +0.000 NA
ATOM     29  C   UNL     1      -1.244  10.522  19.970  0.00  0.00    +0.000 C 
ATOM     30  C   UNL     1       0.132   9.863  19.791  0.00  0.00    +0.000 C 
ENDBRANCH  16  17
ENDBRANCH   1  16
TORSDOF 6
ENDMDL
MODEL 5
REMARK VINA RESULT:      -7.9      2.915      4.179
REMARK  Name = 
REMARK  7 active torsions:
REMARK  status: ('A' for Active; 'I' for Inactive)
REMARK    1  A    between atoms: C_1  and  C_2
REMARK    2  A    between atoms: C_2  and  C_3
REMARK    3  A    between atoms: C_6  and  C_7
REMARK    4  A    between atoms: C_7  and  N_8
REMARK    5  A    between atoms: C_12  and  C_13
REMARK    6  A    between atoms: C_13  and  C_14
REMARK    7  A    between atoms: C_14  and  C_15
REMARK                            x       y       z     vdW  Elec       q    Type
REMARK                         _______ _______ _______ _____ _____    ______ ____
ROOT
ATOM      1  C   UNL     1       3.848   7.444  17.788  0.00  0.00    +0.000 C 
ENDROOT
BRANCH   1   6
ATOM      2  N   UNL     1       5.275   4.675  15.503  0.00  0.00    +0.000 NA
ATOM      3  C   UNL     1       5.719   3.748  16.555  0.00  0.00    +0.000 C 
ATOM      4  C   UNL     1       4.717   3.656  17.701  0.00  0.00    +0.000 C 
ATOM      5  C   UNL     1       4.457   5.024  18.311  0.00  0.00    +0.000 C 
ATOM      6  C   UNL     1       3.990   6.010  17.233  0.00  0.00    +0.000 C 
ATOM      7  C   UNL     1       4.972   6.014  16.042  0.00  0.00    +0.000 C 
BRANCH   2   8
ATOM      8  C   UNL     1       6.329   4.805  14.463  0.00  0.00    +0.000 C 
BRANCH   8  12
ATOM      9  C   UNL     1       4.733   3.159  11.696  0.00  0.00    +0.000 A 
ATOM     10  C   UNL     1       6.005   2.707  11.412  0.00  0.00    +0.000 A 
ATOM     11  C   UNL     1       6.850   3.248  12.406  0.00  0.00    +0.000 A 
ATOM     12  C   UNL     1       6.051   3.994  13.242  0.00  0.00    +0.000 A 
ATOM     13  O   UNL     1       4.749   3.942  12.815  0.00  0.00    +0.000 OA
BRANCH   9  15
ATOM     14  C   UNL     1       3.167   4.036   9.982  0.00  0.00    +0.000 C 
ATOM     15  C   UNL     1       3.420   2.964  11.030  0.00  0.00    +0.000 C 
ENDBRANCH   9  15
ENDBRANCH   8  12
ENDBRANCH   2   8
ENDBRANCH   1   6
BRANCH   1  16
ATOM     16  C   UNL     1       2.396   7.883  17.964  0.00  0.00    +0.000 C 
BRANCH  16  17
ATOM     17  C   UNL     1       1.911   7.786  19.402  0.00  0.00    +0.000 C 
ATOM     18  O   UNL     1       2.115   6.786  20.088  0.00  0.00    +0.000 OA
ATOM     19  N   UNL     1       1.270   8.914  19.897  0.00  0.00    +0.000 N 
ATOM     20  C   UNL     1       0.827   8.915  21.304  0.00  0.00    +0.000 C 
ATOM     21  C   UNL     1       0.864  10.332  21.923  0.00  0.00    +0.000 C 
ATOM     22  N   UNL     1       0.119  11.223  21.032  0.00  0.00    +0.000 N 
ATOM     23  C   UNL     1      -0.707  12.194  21.543  0.00  0.00    +0.000 A 
ATOM     24  C   UNL     1      -1.794  12.641  20.791  0.00  0.00    +0.000 A 
ATOM     25  C   UNL     1      -2.684  13.569  21.323  0.00  0.00    +0.000 A 
ATOM     26  C   UNL     1      -2.462  14.051  22.601  0.00  0.00    +0.000 A 
ATOM     27  C   UNL     1      -1.366  13.565  23.291  0.00  0.00    +0.000 A 
ATOM     28  N   UNL     1      -0.505  12.645  22.797  0.00  0.00    +0.000 NA
ATOM     29  C   UNL     1       0.664  11.328  19.681  0.00  0.00    +0.000 C 
ATOM     30  C   UNL     1       0.633   9.933  19.041  0.00  0.00    +0.000 C 
ENDBRANCH  16  17
ENDBRANCH   1  16
TORSDOF 6
ENDMDL
MODEL 6
REMARK VINA RESULT:      -7.9      2.156      2.954
REMARK  Name = 
REMARK  7 active torsions:
REMARK  status: ('A' for Active; 'I' for Inactive)
REMARK    1  A    between atoms: C_1  and  C_2
REMARK    2  A    between atoms: C_2  and  C_3
REMARK    3  A    between atoms: C_6  and  C_7
REMARK    4  A    between atoms: C_7  and  N_8
REMARK    5  A    between atoms: C_12  and  C_13
REMARK    6  A    between atoms: C_13  and  C_14
REMARK    7  A    between atoms: C_14  and  C_15
REMARK                            x       y       z     vdW  Elec       q    Type
REMARK                         _______ _______ _______ _____ _____    ______ ____
ROOT
ATOM      1  C   UNL     1       1.669   6.066  19.011  0.00  0.00    +0.000 C 
ENDROOT
BRANCH   1   6
ATOM      2  N   UNL     1       4.325   4.566  16.641  0.00  0.00    +0.000 NA
ATOM      3  C   UNL     1       4.509   3.277  17.326  0.00  0.00    +0.000 C 
ATOM      4  C   UNL     1       3.188   2.693  17.816  0.00  0.00    +0.000 C 
ATOM      5  C   UNL     1       2.474   3.662  18.745  0.00  0.00    +0.000 C 
ATOM      6  C   UNL     1       2.268   5.014  18.052  0.00  0.00    +0.000 C 
ATOM      7  C   UNL     1       3.603   5.538  17.482  0.00  0.00    +0.000 C 
BRANCH   2   8
ATOM      8  C   UNL     1       5.647   5.139  16.274  0.00  0.00    +0.000 C 
BRANCH   8  12
ATOM      9  C   UNL     1       5.828   3.805  12.942  0.00  0.00    +0.000 A 
ATOM     10  C   UNL     1       7.126   4.271  12.977  0.00  0.00    +0.000 A 
ATOM     11  C   UNL     1       7.302   4.866  14.245  0.00  0.00    +0.000 A 
ATOM     12  C   UNL     1       6.108   4.728  14.915  0.00  0.00    +0.000 A 
ATOM     13  O   UNL     1       5.199   4.075  14.123  0.00  0.00    +0.000 OA
BRANCH   9  15
ATOM     14  C   UNL     1       5.766   1.885  11.371  0.00  0.00    +0.000 C 
ATOM     15  C   UNL     1       5.033   3.108  11.900  0.00  0.00    +0.000 C 
ENDBRANCH   9  15
ENDBRANCH   8  12
ENDBRANCH   2   8
ENDBRANCH   1   6
BRANCH   1  16
ATOM     16  C   UNL     1       2.559   7.295  19.191  0.00  0.00    +0.000 C 
BRANCH  16  17
ATOM     17  C   UNL     1       2.020   8.533  18.492  0.00  0.00    +0.000 C 
ATOM     18  O   UNL     1       2.298   8.789  17.322  0.00  0.00    +0.000 OA
ATOM     19  N   UNL     1       1.161   9.321  19.246  0.00  0.00    +0.000 N 
ATOM     20  C   UNL     1       0.549  10.506  18.613  0.00  0.00    +0.000 C 
ATOM     21  C   UNL     1      -0.853  10.813  19.188  0.00  0.00    +0.000 C 
ATOM     22  N   UNL     1      -0.728  10.877  20.645  0.00  0.00    +0.000 N 
ATOM     23  C   UNL     1      -1.409  11.828  21.366  0.00  0.00    +0.000 A 
ATOM     24  C   UNL     1      -0.902  12.258  22.593  0.00  0.00    +0.000 A 
ATOM     25  C   UNL     1      -1.539  13.273  23.299  0.00  0.00    +0.000 A 
ATOM     26  C   UNL     1      -2.689  13.834  22.773  0.00  0.00    +0.000 A 
ATOM     27  C   UNL     1      -3.136  13.361  21.553  0.00  0.00    +0.000 A 
ATOM     28  N   UNL     1      -2.516  12.391  20.841  0.00  0.00    +0.000 NA
ATOM     29  C   UNL     1      -0.266   9.641  21.272  0.00  0.00    +0.000 C 
ATOM     30  C   UNL     1       1.130   9.316  20.721  0.00  0.00    +0.000 C 
ENDBRANCH  16  17
ENDBRANCH   1  16
TORSDOF 6
ENDMDL
MODEL 7
REMARK VINA RESULT:      -7.8      1.766      3.010
REMARK  Name = 
REMARK  7 active torsions:
REMARK  status: ('A' for Active; 'I' for Inactive)
REMARK    1  A    between atoms: C_1  and  C_2
REMARK    2  A    between atoms: C_2  and  C_3
REMARK    3  A    between atoms: C_6  and  C_7
REMARK    4  A    between atoms: C_7  and  N_8
REMARK    5  A    between atoms: C_12  and  C_13
REMARK    6  A    between atoms: C_13  and  C_14
REMARK    7  A    between atoms: C_14  and  C_15
REMARK                            x       y       z     vdW  Elec       q    Type
REMARK                         _______ _______ _______ _____ _____    ______ ____
ROOT
ATOM      1  C   UNL     1       2.742   8.480  18.294  0.00  0.00    +0.000 C 
ENDROOT
BRANCH   1   6
ATOM      2  N   UNL     1       4.628   5.602  16.539  0.00  0.00    +0.000 NA
ATOM      3  C   UNL     1       4.293   4.527  17.485  0.00  0.00    +0.000 C 
ATOM      4  C   UNL     1       2.845   4.608  17.958  0.00  0.00    +0.000 C 
ATOM      5  C   UNL     1       2.555   5.956  18.599  0.00  0.00    +0.000 C 
ATOM      6  C   UNL     1       2.894   7.093  17.630  0.00  0.00    +0.000 C 
ATOM      7  C   UNL     1       4.332   6.936  17.093  0.00  0.00    +0.000 C 
BRANCH   2   8
ATOM      8  C   UNL     1       6.071   5.538  16.188  0.00  0.00    +0.000 C 
BRANCH   8  12
ATOM      9  C   UNL     1       7.997   8.030  17.920  0.00  0.00    +0.000 A 
ATOM     10  C   UNL     1       8.267   7.005  18.803  0.00  0.00    +0.000 A 
ATOM     11  C   UNL     1       7.586   5.869  18.316  0.00  0.00    +0.000 A 
ATOM     12  C   UNL     1       6.944   6.257  17.163  0.00  0.00    +0.000 A 
ATOM     13  O   UNL     1       7.193   7.582  16.910  0.00  0.00    +0.000 OA
BRANCH   9  15
ATOM     14  C   UNL     1       9.067   9.884  19.175  0.00  0.00    +0.000 C 
ATOM     15  C   UNL     1       8.396   9.459  17.878  0.00  0.00    +0.000 C 
ENDBRANCH   9  15
ENDBRANCH   8  12
ENDBRANCH   2   8
ENDBRANCH   1   6
BRANCH   1  16
ATOM     16  C   UNL     1       1.287   8.920  18.447  0.00  0.00    +0.000 C 
BRANCH  16  17
ATOM     17  C   UNL     1       0.901   9.218  19.888  0.00  0.00    +0.000 C 
ATOM     18  O   UNL     1       1.472   8.681  20.836  0.00  0.00    +0.000 OA
ATOM     19  N   UNL     1      -0.100  10.165  20.057  0.00  0.00    +0.000 N 
ATOM     20  C   UNL     1      -0.485  10.550  21.428  0.00  0.00    +0.000 C 
ATOM     21  C   UNL     1      -0.958  12.020  21.507  0.00  0.00    +0.000 C 
ATOM     22  N   UNL     1      -1.997  12.204  20.492  0.00  0.00    +0.000 N 
ATOM     23  C   UNL     1      -3.112  12.961  20.759  0.00  0.00    +0.000 A 
ATOM     24  C   UNL     1      -4.302  12.700  20.078  0.00  0.00    +0.000 A 
ATOM     25  C   UNL     1      -5.460  13.405  20.390  0.00  0.00    +0.000 A 
ATOM     26  C   UNL     1      -5.405  14.379  21.372  0.00  0.00    +0.000 A 
ATOM     27  C   UNL     1      -4.194  14.585  22.007  0.00  0.00    +0.000 A 
ATOM     28  N   UNL     1      -3.065  13.892  21.733  0.00  0.00    +0.000 NA
ATOM     29  C   UNL     1      -1.556  11.966  19.120  0.00  0.00    +0.000 C 
ATOM     30  C   UNL     1      -1.084  10.509  19.013  0.00  0.00    +0.000 C 
ENDBRANCH  16  17
ENDBRANCH   1  16
TORSDOF 6
ENDMDL
MODEL 8
REMARK VINA RESULT:      -7.8      2.404      2.771
REMARK  Name = 
REMARK  7 active torsions:
REMARK  status: ('A' for Active; 'I' for Inactive)
REMARK    1  A    between atoms: C_1  and  C_2
REMARK    2  A    between atoms: C_2  and  C_3
REMARK    3  A    between atoms: C_6  and  C_7
REMARK    4  A    between atoms: C_7  and  N_8
REMARK    5  A    between atoms: C_12  and  C_13
REMARK    6  A    between atoms: C_13  and  C_14
REMARK    7  A    between atoms: C_14  and  C_15
REMARK                            x       y       z     vdW  Elec       q    Type
REMARK                         _______ _______ _______ _____ _____    ______ ____
ROOT
ATOM      1  C   UNL     1       1.856   7.052  20.899  0.00  0.00    +0.000 C 
ENDROOT
BRANCH   1   6
ATOM      2  N   UNL     1       3.522   4.089  19.063  0.00  0.00    +0.000 NA
ATOM      3  C   UNL     1       2.664   3.014  19.584  0.00  0.00    +0.000 C 
ATOM      4  C   UNL     1       1.198   3.429  19.651  0.00  0.00    +0.000 C 
ATOM      5  C   UNL     1       1.021   4.675  20.504  0.00  0.00    +0.000 C 
ATOM      6  C   UNL     1       1.904   5.813  19.978  0.00  0.00    +0.000 C 
ATOM      7  C   UNL     1       3.366   5.339  19.830  0.00  0.00    +0.000 C 
BRANCH   2   8
ATOM      8  C   UNL     1       4.947   3.671  19.113  0.00  0.00    +0.000 C 
BRANCH   8  12
ATOM      9  C   UNL     1       7.284   6.146  17.960  0.00  0.00    +0.000 A 
ATOM     10  C   UNL     1       7.053   5.585  16.721  0.00  0.00    +0.000 A 
ATOM     11  C   UNL     1       6.126   4.539  16.925  0.00  0.00    +0.000 A 
ATOM     12  C   UNL     1       5.838   4.522  18.271  0.00  0.00    +0.000 A 
ATOM     13  O   UNL     1       6.542   5.508  18.913  0.00  0.00    +0.000 OA
BRANCH   9  15
ATOM     14  C   UNL     1       7.819   8.556  17.703  0.00  0.00    +0.000 C 
ATOM     15  C   UNL     1       8.156   7.257  18.418  0.00  0.00    +0.000 C 
ENDBRANCH   9  15
ENDBRANCH   8  12
ENDBRANCH   2   8
ENDBRANCH   1   6
BRANCH   1  16
ATOM     16  C   UNL     1       1.402   8.321  20.181  0.00  0.00    +0.000 C 
BRANCH  16  17
ATOM     17  C   UNL     1       0.325   9.084  20.938  0.00  0.00    +0.000 C 
ATOM     18  O   UNL     1      -0.442   8.521  21.717  0.00  0.00    +0.000 OA
ATOM     19  N   UNL     1       0.301  10.456  20.726  0.00  0.00    +0.000 N 
ATOM     20  C   UNL     1      -0.677  11.270  21.473  0.00  0.00    +0.000 C 
ATOM     21  C   UNL     1      -0.147  12.694  21.761  0.00  0.00    +0.000 C 
ATOM     22  N   UNL     1       0.299  13.265  20.488  0.00  0.00    +0.000 N 
ATOM     23  C   UNL     1       0.055  14.583  20.188  0.00  0.00    +0.000 A 
ATOM     24  C   UNL     1      -0.046  14.979  18.853  0.00  0.00    +0.000 A 
ATOM     25  C   UNL     1      -0.367  16.294  18.533  0.00  0.00    +0.000 A 
ATOM     26  C   UNL     1      -0.567  17.202  19.557  0.00  0.00    +0.000 A 
ATOM     27  C   UNL     1      -0.452  16.742  20.857  0.00  0.00    +0.000 A 
ATOM     28  N   UNL     1      -0.164  15.462  21.186  0.00  0.00    +0.000 NA
ATOM     29  C   UNL     1       1.377  12.528  19.835  0.00  0.00    +0.000 C 
ATOM     30  C   UNL     1       0.874  11.109  19.533  0.00  0.00    +0.000 C 
ENDBRANCH  16  17
ENDBRANCH   1  16
TORSDOF 6
ENDMDL
MODEL 9
REMARK VINA RESULT:      -7.7      2.226      3.227
REMARK  Name = 
REMARK  7 active torsions:
REMARK  status: ('A' for Active; 'I' for Inactive)
REMARK    1  A    between atoms: C_1  and  C_2
REMARK    2  A    between atoms: C_2  and  C_3
REMARK    3  A    between atoms: C_6  and  C_7
REMARK    4  A    between atoms: C_7  and  N_8
REMARK    5  A    between atoms: C_12  and  C_13
REMARK    6  A    between atoms: C_13  and  C_14
REMARK    7  A    between atoms: C_14  and  C_15
REMARK                            x       y       z     vdW  Elec       q    Type
REMARK                         _______ _______ _______ _____ _____    ______ ____
ROOT
ATOM      1  C   UNL     1       3.000   7.629  18.387  0.00  0.00    +0.000 C 
ENDROOT
BRANCH   1   6
ATOM      2  N   UNL     1       3.948   4.231  16.813  0.00  0.00    +0.000 NA
ATOM      3  C   UNL     1       3.060   3.376  17.616  0.00  0.00    +0.000 C 
ATOM      4  C   UNL     1       1.690   4.011  17.831  0.00  0.00    +0.000 C 
ATOM      5  C   UNL     1       1.817   5.373  18.495  0.00  0.00    +0.000 C 
ATOM      6  C   UNL     1       2.737   6.284  17.674  0.00  0.00    +0.000 C 
ATOM      7  C   UNL     1       4.081   5.581  17.390  0.00  0.00    +0.000 C 
BRANCH   2   8
ATOM      8  C   UNL     1       5.297   3.615  16.719  0.00  0.00    +0.000 C 
BRANCH   8  12
ATOM      9  C   UNL     1       6.611   4.107  13.410  0.00  0.00    +0.000 A 
ATOM     10  C   UNL     1       7.425   5.037  14.023  0.00  0.00    +0.000 A 
ATOM     11  C   UNL     1       7.078   5.028  15.392  0.00  0.00    +0.000 A 
ATOM     12  C   UNL     1       6.079   4.093  15.541  0.00  0.00    +0.000 A 
ATOM     13  O   UNL     1       5.788   3.520  14.330  0.00  0.00    +0.000 OA
BRANCH   9  15
ATOM     14  C   UNL     1       5.447   2.543  11.875  0.00  0.00    +0.000 C 
ATOM     15  C   UNL     1       6.471   3.660  12.001  0.00  0.00    +0.000 C 
ENDBRANCH   9  15
ENDBRANCH   8  12
ENDBRANCH   2   8
ENDBRANCH   1   6
BRANCH   1  16
ATOM     16  C   UNL     1       1.757   8.510  18.494  0.00  0.00    +0.000 C 
BRANCH  16  17
ATOM     17  C   UNL     1       1.281   8.702  19.925  0.00  0.00    +0.000 C 
ATOM     18  O   UNL     1       1.728   8.030  20.853  0.00  0.00    +0.000 OA
ATOM     19  N   UNL     1       0.349   9.714  20.117  0.00  0.00    +0.000 N 
ATOM     20  C   UNL     1      -0.113  10.000  21.489  0.00  0.00    +0.000 C 
ATOM     21  C   UNL     1      -0.471  11.492  21.682  0.00  0.00    +0.000 C 
ATOM     22  N   UNL     1      -1.405  11.862  20.617  0.00  0.00    +0.000 N 
ATOM     23  C   UNL     1      -2.474  12.686  20.879  0.00  0.00    +0.000 A 
ATOM     24  C   UNL     1      -3.622  12.597  20.090  0.00  0.00    +0.000 A 
ATOM     25  C   UNL     1      -4.740  13.369  20.387  0.00  0.00    +0.000 A 
ATOM     26  C   UNL     1      -4.687  14.236  21.464  0.00  0.00    +0.000 A 
ATOM     27  C   UNL     1      -3.518  14.274  22.203  0.00  0.00    +0.000 A 
ATOM     28  N   UNL     1      -2.430  13.512  21.942  0.00  0.00    +0.000 NA
ATOM     29  C   UNL     1      -0.876  11.718  19.264  0.00  0.00    +0.000 C 
ATOM     30  C   UNL     1      -0.516  10.241  19.045  0.00  0.00    +0.000 C 
ENDBRANCH  16  17
ENDBRANCH   1  16
TORSDOF 6
ENDMDL
