MODEL 1
REMARK VINA RESULT:      -8.7      0.000      0.000
REMARK  Name = 
REMARK  4 active torsions:
REMARK  status: ('A' for Active; 'I' for Inactive)
REMARK    1  A    between atoms: C_5  and  C_6
REMARK    2  A    between atoms: C_9  and  C_10
REMARK    3  A    between atoms: C_15  and  S_16
REMARK    4  A    between atoms: S_16  and  C_19
REMARK                            x       y       z     vdW  Elec       q    Type
REMARK                         _______ _______ _______ _____ _____    ______ ____
ROOT
ATOM      1  C   UNL     1       1.228   8.952  19.426  0.00  0.00    +0.000 A 
ATOM      2  C   UNL     1       1.519   8.978  18.054  0.00  0.00    +0.000 A 
ATOM      3  C   UNL     1       2.347   8.010  17.460  0.00  0.00    +0.000 A 
ATOM      4  C   UNL     1       2.982   7.016  18.213  0.00  0.00    +0.000 A 
ATOM      5  C   UNL     1       2.588   6.922  19.559  0.00  0.00    +0.000 A 
ATOM      6  C   UNL     1       1.723   7.857  20.140  0.00  0.00    +0.000 A 
ATOM      7  F   UNL     1       1.422   7.695  21.437  0.00  0.00    +0.000 F 
ENDROOT
BRANCH   1  12
ATOM      8  N   UNL     1      -1.446  13.313  21.680  0.00  0.00    +0.000 N 
ATOM      9  C   UNL     1      -0.810  12.198  21.175  0.00  0.00    +0.000 A 
ATOM     10  N   UNL     1       0.385  11.882  21.677  0.00  0.00    +0.000 NA
ATOM     11  C   UNL     1       1.013  10.818  21.123  0.00  0.00    +0.000 A 
ATOM     12  C   UNL     1       0.511  10.059  20.081  0.00  0.00    +0.000 A 
ATOM     13  C   UNL     1      -0.729  10.503  19.651  0.00  0.00    +0.000 A 
ATOM     14  N   UNL     1      -1.402  11.555  20.170  0.00  0.00    +0.000 NA
ATOM     15  H   UNL     1      -0.754  13.939  22.069  0.00  0.00    +0.000 HD
ATOM     16  H   UNL     1      -2.059  13.691  20.970  0.00  0.00    +0.000 HD
ENDBRANCH   1  12
BRANCH   4  17
ATOM     17  C   UNL     1       4.009   6.096  17.659  0.00  0.00    +0.000 A 
ATOM     18  C   UNL     1       5.217   6.641  17.178  0.00  0.00    +0.000 A 
ATOM     19  C   UNL     1       6.181   5.851  16.552  0.00  0.00    +0.000 A 
ATOM     20  C   UNL     1       5.941   4.497  16.428  0.00  0.00    +0.000 A 
ATOM     21  N   UNL     1       4.822   3.898  16.880  0.00  0.00    +0.000 NA
ATOM     22  C   UNL     1       3.885   4.703  17.474  0.00  0.00    +0.000 A 
BRANCH  22  23
ATOM     23  S   UNL     1       2.404   3.786  17.898  0.00  0.00    +0.000 S 
ATOM     24  O   UNL     1       1.261   4.576  17.468  0.00  0.00    +0.000 OA
ATOM     25  O   UNL     1       2.589   2.413  17.468  0.00  0.00    +0.000 OA
BRANCH  23  26
ATOM     26  C   UNL     1       2.244   3.780  19.723  0.00  0.00    +0.000 C 
ATOM     27  C   UNL     1       0.778   3.739  20.128  0.00  0.00    +0.000 C 
ATOM     28  C   UNL     1       1.664   2.551  20.367  0.00  0.00    +0.000 C 
ENDBRANCH  23  26
ENDBRANCH  22  23
ENDBRANCH   4  17
TORSDOF 4
ENDMDL
MODEL 2
REMARK VINA RESULT:      -8.4      1.981      3.522
REMARK  Name = 
REMARK  4 active torsions:
REMARK  status: ('A' for Active; 'I' for Inactive)
REMARK    1  A    between atoms: C_5  and  C_6
REMARK    2  A    between atoms: C_9  and  C_10
REMARK    3  A    between atoms: C_15  and  S_16
REMARK    4  A    between atoms: S_16  and  C_19
REMARK                            x       y       z     vdW  Elec       q    Type
REMARK                         _______ _______ _______ _____ _____    ______ ____
ROOT
ATOM      1  C   UNL     1       1.426   8.628  19.753  0.00  0.00    +0.000 A 
ATOM      2  C   UNL     1       1.518   7.581  20.680  0.00  0.00    +0.000 A 
ATOM      3  C   UNL     1       2.008   6.315  20.314  0.00  0.00    +0.000 A 
ATOM      4  C   UNL     1       2.360   6.011  18.995  0.00  0.00    +0.000 A 
ATOM      5  C   UNL     1       2.384   7.096  18.102  0.00  0.00    +0.000 A 
ATOM      6  C   UNL     1       1.943   8.370  18.479  0.00  0.00    +0.000 A 
ATOM      7  F   UNL     1       1.983   9.337  17.551  0.00  0.00    +0.000 F 
ENDROOT
BRANCH   1  12
ATOM      8  N   UNL     1      -1.255  13.301  21.243  0.00  0.00    +0.000 N 
ATOM      9  C   UNL     1      -0.557  12.185  20.830  0.00  0.00    +0.000 A 
ATOM     10  N   UNL     1      -0.989  11.549  19.740  0.00  0.00    +0.000 NA
ATOM     11  C   UNL     1      -0.321  10.423  19.391  0.00  0.00    +0.000 A 
ATOM     12  C   UNL     1       0.751   9.893  20.086  0.00  0.00    +0.000 A 
ATOM     13  C   UNL     1       1.086  10.647  21.200  0.00  0.00    +0.000 A 
ATOM     14  N   UNL     1       0.458  11.779  21.592  0.00  0.00    +0.000 NA
ATOM     15  H   UNL     1      -2.203  13.245  20.895  0.00  0.00    +0.000 HD
ATOM     16  H   UNL     1      -1.138  13.411  22.241  0.00  0.00    +0.000 HD
ENDBRANCH   1  12
BRANCH   4  17
ATOM     17  C   UNL     1       2.699   4.641  18.530  0.00  0.00    +0.000 A 
ATOM     18  C   UNL     1       1.654   3.715  18.332  0.00  0.00    +0.000 A 
ATOM     19  C   UNL     1       1.905   2.385  17.996  0.00  0.00    +0.000 A 
ATOM     20  C   UNL     1       3.216   1.985  17.834  0.00  0.00    +0.000 A 
ATOM     21  N   UNL     1       4.269   2.813  17.985  0.00  0.00    +0.000 NA
ATOM     22  C   UNL     1       3.991   4.110  18.334  0.00  0.00    +0.000 A 
BRANCH  22  23
ATOM     23  S   UNL     1       5.491   5.047  18.626  0.00  0.00    +0.000 S 
ATOM     24  O   UNL     1       5.256   5.901  19.780  0.00  0.00    +0.000 OA
ATOM     25  O   UNL     1       6.611   4.127  18.572  0.00  0.00    +0.000 OA
BRANCH  23  26
ATOM     26  C   UNL     1       5.688   6.245  17.254  0.00  0.00    +0.000 C 
ATOM     27  C   UNL     1       6.613   5.683  16.185  0.00  0.00    +0.000 C 
ATOM     28  C   UNL     1       5.148   5.856  15.906  0.00  0.00    +0.000 C 
ENDBRANCH  23  26
ENDBRANCH  22  23
ENDBRANCH   4  17
TORSDOF 4
ENDMDL
MODEL 3
REMARK VINA RESULT:      -8.3      1.092      1.144
REMARK  Name = 
REMARK  4 active torsions:
REMARK  status: ('A' for Active; 'I' for Inactive)
REMARK    1  A    between atoms: C_5  and  C_6
REMARK    2  A    between atoms: C_9  and  C_10
REMARK    3  A    between atoms: C_15  and  S_16
REMARK    4  A    between atoms: S_16  and  C_19
REMARK                            x       y       z     vdW  Elec       q    Type
REMARK                         _______ _______ _______ _____ _____    ______ ____
ROOT
ATOM      1  C   UNL     1       1.091   9.263  19.088  0.00  0.00    +0.000 A 
ATOM      2  C   UNL     1       1.553   8.932  17.806  0.00  0.00    +0.000 A 
ATOM      3  C   UNL     1       2.361   7.804  17.583  0.00  0.00    +0.000 A 
ATOM      4  C   UNL     1       2.808   6.995  18.634  0.00  0.00    +0.000 A 
ATOM      5  C   UNL     1       2.243   7.259  19.893  0.00  0.00    +0.000 A 
ATOM      6  C   UNL     1       1.397   8.353  20.105  0.00  0.00    +0.000 A 
ATOM      7  F   UNL     1       0.923   8.535  21.347  0.00  0.00    +0.000 F 
ENDROOT
BRANCH   1  12
ATOM      8  N   UNL     1      -1.517  14.153  19.810  0.00  0.00    +0.000 N 
ATOM      9  C   UNL     1      -0.893  12.929  19.696  0.00  0.00    +0.000 A 
ATOM     10  N   UNL     1       0.342  12.811  20.186  0.00  0.00    +0.000 NA
ATOM     11  C   UNL     1       0.954  11.617  20.008  0.00  0.00    +0.000 A 
ATOM     12  C   UNL     1       0.397  10.534  19.351  0.00  0.00    +0.000 A 
ATOM     13  C   UNL     1      -0.881  10.797  18.885  0.00  0.00    +0.000 A 
ATOM     14  N   UNL     1      -1.541  11.968  19.038  0.00  0.00    +0.000 NA
ATOM     15  H   UNL     1      -0.815  14.875  19.894  0.00  0.00    +0.000 HD
ATOM     16  H   UNL     1      -2.189  14.251  19.061  0.00  0.00    +0.000 HD
ENDBRANCH   1  12
BRANCH   4  17
ATOM     17  C   UNL     1       3.813   5.913  18.467  0.00  0.00    +0.000 A 
ATOM     18  C   UNL     1       5.176   6.263  18.370  0.00  0.00    +0.000 A 
ATOM     19  C   UNL     1       6.161   5.311  18.110  0.00  0.00    +0.000 A 
ATOM     20  C   UNL     1       5.779   3.992  17.970  0.00  0.00    +0.000 A 
ATOM     21  N   UNL     1       4.502   3.574  18.070  0.00  0.00    +0.000 NA
ATOM     22  C   UNL     1       3.554   4.536  18.306  0.00  0.00    +0.000 A 
BRANCH  22  23
ATOM     23  S   UNL     1       1.899   3.847  18.278  0.00  0.00    +0.000 S 
ATOM     24  O   UNL     1       1.081   4.704  17.433  0.00  0.00    +0.000 OA
ATOM     25  O   UNL     1       2.012   2.421  18.039  0.00  0.00    +0.000 OA
BRANCH  23  26
ATOM     26  C   UNL     1       1.161   4.074  19.940  0.00  0.00    +0.000 C 
ATOM     27  C   UNL     1       1.278   2.795  20.754  0.00  0.00    +0.000 C 
ATOM     28  C   UNL     1       2.082   4.006  21.126  0.00  0.00    +0.000 C 
ENDBRANCH  23  26
ENDBRANCH  22  23
ENDBRANCH   4  17
TORSDOF 4
ENDMDL
MODEL 4
REMARK VINA RESULT:      -8.3      1.990      3.495
REMARK  Name = 
REMARK  4 active torsions:
REMARK  status: ('A' for Active; 'I' for Inactive)
REMARK    1  A    between atoms: C_5  and  C_6
REMARK    2  A    between atoms: C_9  and  C_10
REMARK    3  A    between atoms: C_15  and  S_16
REMARK    4  A    between atoms: S_16  and  C_19
REMARK                            x       y       z     vdW  Elec       q    Type
REMARK                         _______ _______ _______ _____ _____    ______ ____
ROOT
ATOM      1  C   UNL     1       1.425   8.616  19.783  0.00  0.00    +0.000 A 
ATOM      2  C   UNL     1       1.475   7.566  20.710  0.00  0.00    +0.000 A 
ATOM      3  C   UNL     1       1.950   6.292  20.353  0.00  0.00    +0.000 A 
ATOM      4  C   UNL     1       2.328   5.984  19.042  0.00  0.00    +0.000 A 
ATOM      5  C   UNL     1       2.394   7.069  18.152  0.00  0.00    +0.000 A 
ATOM      6  C   UNL     1       1.968   8.350  18.522  0.00  0.00    +0.000 A 
ATOM      7  F   UNL     1       2.049   9.318  17.596  0.00  0.00    +0.000 F 
ENDROOT
BRANCH   1  12
ATOM      8  N   UNL     1      -0.953  13.579  20.764  0.00  0.00    +0.000 N 
ATOM      9  C   UNL     1      -0.406  12.327  20.571  0.00  0.00    +0.000 A 
ATOM     10  N   UNL     1       0.583  11.948  21.380  0.00  0.00    +0.000 NA
ATOM     11  C   UNL     1       1.141  10.739  21.131  0.00  0.00    +0.000 A 
ATOM     12  C   UNL     1       0.766   9.893  20.102  0.00  0.00    +0.000 A 
ATOM     13  C   UNL     1      -0.263  10.415  19.335  0.00  0.00    +0.000 A 
ATOM     14  N   UNL     1      -0.859  11.612  19.541  0.00  0.00    +0.000 NA
ATOM     15  H   UNL     1      -0.274  14.167  21.226  0.00  0.00    +0.000 HD
ATOM     16  H   UNL     1      -1.328  13.913  19.887  0.00  0.00    +0.000 HD
ENDBRANCH   1  12
BRANCH   4  17
ATOM     17  C   UNL     1       2.653   4.608  18.583  0.00  0.00    +0.000 A 
ATOM     18  C   UNL     1       1.599   3.689  18.399  0.00  0.00    +0.000 A 
ATOM     19  C   UNL     1       1.838   2.355  18.070  0.00  0.00    +0.000 A 
ATOM     20  C   UNL     1       3.144   1.944  17.899  0.00  0.00    +0.000 A 
ATOM     21  N   UNL     1       4.204   2.765  18.036  0.00  0.00    +0.000 NA
ATOM     22  C   UNL     1       3.939   4.066  18.379  0.00  0.00    +0.000 A 
BRANCH  22  23
ATOM     23  S   UNL     1       5.448   4.993  18.654  0.00  0.00    +0.000 S 
ATOM     24  O   UNL     1       5.233   5.849  19.810  0.00  0.00    +0.000 OA
ATOM     25  O   UNL     1       6.562   4.066  18.587  0.00  0.00    +0.000 OA
BRANCH  23  26
ATOM     26  C   UNL     1       5.638   6.189  17.279  0.00  0.00    +0.000 C 
ATOM     27  C   UNL     1       7.052   6.748  17.251  0.00  0.00    +0.000 C 
ATOM     28  C   UNL     1       6.580   5.826  16.165  0.00  0.00    +0.000 C 
ENDBRANCH  23  26
ENDBRANCH  22  23
ENDBRANCH   4  17
TORSDOF 4
ENDMDL
MODEL 5
REMARK VINA RESULT:      -8.2      1.245      1.500
REMARK  Name = 
REMARK  4 active torsions:
REMARK  status: ('A' for Active; 'I' for Inactive)
REMARK    1  A    between atoms: C_5  and  C_6
REMARK    2  A    between atoms: C_9  and  C_10
REMARK    3  A    between atoms: C_15  and  S_16
REMARK    4  A    between atoms: S_16  and  C_19
REMARK                            x       y       z     vdW  Elec       q    Type
REMARK                         _______ _______ _______ _____ _____    ______ ____
ROOT
ATOM      1  C   UNL     1       1.116   9.288  19.859  0.00  0.00    +0.000 A 
ATOM      2  C   UNL     1       1.316   9.402  18.475  0.00  0.00    +0.000 A 
ATOM      3  C   UNL     1       2.056   8.446  17.758  0.00  0.00    +0.000 A 
ATOM      4  C   UNL     1       2.691   7.374  18.392  0.00  0.00    +0.000 A 
ATOM      5  C   UNL     1       2.384   7.197  19.752  0.00  0.00    +0.000 A 
ATOM      6  C   UNL     1       1.605   8.122  20.457  0.00  0.00    +0.000 A 
ATOM      7  F   UNL     1       1.384   7.879  21.757  0.00  0.00    +0.000 F 
ENDROOT
BRANCH   1  12
ATOM      8  N   UNL     1      -1.014  13.389  23.003  0.00  0.00    +0.000 N 
ATOM      9  C   UNL     1      -0.535  12.392  22.179  0.00  0.00    +0.000 A 
ATOM     10  N   UNL     1      -1.150  11.209  22.211  0.00  0.00    +0.000 NA
ATOM     11  C   UNL     1      -0.623  10.231  21.437  0.00  0.00    +0.000 A 
ATOM     12  C   UNL     1       0.498  10.372  20.638  0.00  0.00    +0.000 A 
ATOM     13  C   UNL     1       1.040  11.646  20.708  0.00  0.00    +0.000 A 
ATOM     14  N   UNL     1       0.554  12.659  21.460  0.00  0.00    +0.000 NA
ATOM     15  H   UNL     1      -1.501  12.968  23.781  0.00  0.00    +0.000 HD
ATOM     16  H   UNL     1      -0.258  14.024  23.223  0.00  0.00    +0.000 HD
ENDBRANCH   1  12
BRANCH   4  17
ATOM     17  C   UNL     1       3.635   6.454  17.704  0.00  0.00    +0.000 A 
ATOM     18  C   UNL     1       4.799   6.993  17.118  0.00  0.00    +0.000 A 
ATOM     19  C   UNL     1       5.675   6.206  16.370  0.00  0.00    +0.000 A 
ATOM     20  C   UNL     1       5.393   4.863  16.227  0.00  0.00    +0.000 A 
ATOM     21  N   UNL     1       4.314   4.269  16.773  0.00  0.00    +0.000 NA
ATOM     22  C   UNL     1       3.461   5.071  17.487  0.00  0.00    +0.000 A 
BRANCH  22  23
ATOM     23  S   UNL     1       2.012   4.168  18.033  0.00  0.00    +0.000 S 
ATOM     24  O   UNL     1       1.921   4.317  19.478  0.00  0.00    +0.000 OA
ATOM     25  O   UNL     1       0.910   4.518  17.158  0.00  0.00    +0.000 OA
BRANCH  23  26
ATOM     26  C   UNL     1       2.345   2.379  17.819  0.00  0.00    +0.000 C 
ATOM     27  C   UNL     1       3.300   1.883  18.894  0.00  0.00    +0.000 C 
ATOM     28  C   UNL     1       1.864   1.447  18.897  0.00  0.00    +0.000 C 
ENDBRANCH  23  26
ENDBRANCH  22  23
ENDBRANCH   4  17
TORSDOF 4
ENDMDL
MODEL 6
REMARK VINA RESULT:      -8.1      1.916      3.481
REMARK  Name = 
REMARK  4 active torsions:
REMARK  status: ('A' for Active; 'I' for Inactive)
REMARK    1  A    between atoms: C_5  and  C_6
REMARK    2  A    between atoms: C_9  and  C_10
REMARK    3  A    between atoms: C_15  and  S_16
REMARK    4  A    between atoms: S_16  and  C_19
REMARK                            x       y       z     vdW  Elec       q    Type
REMARK                         _______ _______ _______ _____ _____    ______ ____
ROOT
ATOM      1  C   UNL     1       1.381   8.790  19.709  0.00  0.00    +0.000 A 
ATOM      2  C   UNL     1       1.576   7.762  20.642  0.00  0.00    +0.000 A 
ATOM      3  C   UNL     1       2.012   6.484  20.250  0.00  0.00    +0.000 A 
ATOM      4  C   UNL     1       2.203   6.149  18.905  0.00  0.00    +0.000 A 
ATOM      5  C   UNL     1       2.127   7.214  17.991  0.00  0.00    +0.000 A 
ATOM      6  C   UNL     1       1.742   8.499  18.389  0.00  0.00    +0.000 A 
ATOM      7  F   UNL     1       1.678   9.445  17.441  0.00  0.00    +0.000 F 
ENDROOT
BRANCH   1  12
ATOM      8  N   UNL     1      -0.930  13.739  20.895  0.00  0.00    +0.000 N 
ATOM      9  C   UNL     1      -0.385  12.493  20.662  0.00  0.00    +0.000 A 
ATOM     10  N   UNL     1       0.798  12.218  21.213  0.00  0.00    +0.000 NA
ATOM     11  C   UNL     1       1.338  11.012  20.920  0.00  0.00    +0.000 A 
ATOM     12  C   UNL     1       0.758  10.067  20.090  0.00  0.00    +0.000 A 
ATOM     13  C   UNL     1      -0.460  10.487  19.580  0.00  0.00    +0.000 A 
ATOM     14  N   UNL     1      -1.046  11.677  19.842  0.00  0.00    +0.000 NA
ATOM     15  H   UNL     1      -0.188  14.387  21.119  0.00  0.00    +0.000 HD
ATOM     16  H   UNL     1      -1.535  13.982  20.122  0.00  0.00    +0.000 HD
ENDBRANCH   1  12
BRANCH   4  17
ATOM     17  C   UNL     1       2.477   4.766  18.435  0.00  0.00    +0.000 A 
ATOM     18  C   UNL     1       1.505   3.769  18.662  0.00  0.00    +0.000 A 
ATOM     19  C   UNL     1       1.737   2.432  18.340  0.00  0.00    +0.000 A 
ATOM     20  C   UNL     1       2.945   2.095  17.764  0.00  0.00    +0.000 A 
ATOM     21  N   UNL     1       3.915   2.990  17.496  0.00  0.00    +0.000 NA
ATOM     22  C   UNL     1       3.666   4.294  17.841  0.00  0.00    +0.000 A 
BRANCH  22  23
ATOM     23  S   UNL     1       5.095   5.335  17.547  0.00  0.00    +0.000 S 
ATOM     24  O   UNL     1       4.721   6.318  16.541  0.00  0.00    +0.000 OA
ATOM     25  O   UNL     1       5.636   5.727  18.834  0.00  0.00    +0.000 OA
BRANCH  23  26
ATOM     26  C   UNL     1       6.365   4.328  16.693  0.00  0.00    +0.000 C 
ATOM     27  C   UNL     1       5.982   4.111  15.237  0.00  0.00    +0.000 C 
ATOM     28  C   UNL     1       7.150   4.985  15.591  0.00  0.00    +0.000 C 
ENDBRANCH  23  26
ENDBRANCH  22  23
ENDBRANCH   4  17
TORSDOF 4
ENDMDL
MODEL 7
REMARK VINA RESULT:      -8.1      3.576      8.202
REMARK  Name = 
REMARK  4 active torsions:
REMARK  status: ('A' for Active; 'I' for Inactive)
REMARK    1  A    between atoms: C_5  and  C_6
REMARK    2  A    between atoms: C_9  and  C_10
REMARK    3  A    between atoms: C_15  and  S_16
REMARK    4  A    between atoms: S_16  and  C_19
REMARK                            x       y       z     vdW  Elec       q    Type
REMARK                         _______ _______ _______ _____ _____    ______ ____
ROOT
ATOM      1  C   UNL     1       2.573   6.993  19.139  0.00  0.00    +0.000 A 
ATOM      2  C   UNL     1       2.565   7.741  17.953  0.00  0.00    +0.000 A 
ATOM      3  C   UNL     1       1.766   8.890  17.813  0.00  0.00    +0.000 A 
ATOM      4  C   UNL     1       0.885   9.304  18.818  0.00  0.00    +0.000 A 
ATOM      5  C   UNL     1       0.990   8.625  20.044  0.00  0.00    +0.000 A 
ATOM      6  C   UNL     1       1.823   7.512  20.199  0.00  0.00    +0.000 A 
ATOM      7  F   UNL     1       1.840   6.917  21.401  0.00  0.00    +0.000 F 
ENDROOT
BRANCH   1  12
ATOM      8  N   UNL     1       5.137   2.063  19.746  0.00  0.00    +0.000 N 
ATOM      9  C   UNL     1       4.513   3.274  19.528  0.00  0.00    +0.000 A 
ATOM     10  N   UNL     1       5.282   4.356  19.396  0.00  0.00    +0.000 NA
ATOM     11  C   UNL     1       4.642   5.539  19.242  0.00  0.00    +0.000 A 
ATOM     12  C   UNL     1       3.268   5.698  19.226  0.00  0.00    +0.000 A 
ATOM     13  C   UNL     1       2.594   4.497  19.382  0.00  0.00    +0.000 A 
ATOM     14  N   UNL     1       3.181   3.289  19.535  0.00  0.00    +0.000 NA
ATOM     15  H   UNL     1       6.045   2.229  20.158  0.00  0.00    +0.000 HD
ATOM     16  H   UNL     1       4.507   1.455  20.251  0.00  0.00    +0.000 HD
ENDBRANCH   1  12
BRANCH   4  17
ATOM     17  C   UNL     1      -0.111  10.393  18.639  0.00  0.00    +0.000 A 
ATOM     18  C   UNL     1      -1.370  10.076  18.087  0.00  0.00    +0.000 A 
ATOM     19  C   UNL     1      -2.313  11.062  17.797  0.00  0.00    +0.000 A 
ATOM     20  C   UNL     1      -2.000  12.375  18.083  0.00  0.00    +0.000 A 
ATOM     21  N   UNL     1      -0.829  12.756  18.629  0.00  0.00    +0.000 NA
ATOM     22  C   UNL     1       0.086  11.767  18.886  0.00  0.00    +0.000 A 
BRANCH  22  23
ATOM     23  S   UNL     1       1.635  12.444  19.482  0.00  0.00    +0.000 S 
ATOM     24  O   UNL     1       1.818  11.983  20.850  0.00  0.00    +0.000 OA
ATOM     25  O   UNL     1       2.642  12.226  18.461  0.00  0.00    +0.000 OA
BRANCH  23  26
ATOM     26  C   UNL     1       1.426  14.254  19.677  0.00  0.00    +0.000 C 
ATOM     27  C   UNL     1       2.772  14.924  19.903  0.00  0.00    +0.000 C 
ATOM     28  C   UNL     1       2.023  15.142  18.621  0.00  0.00    +0.000 C 
ENDBRANCH  23  26
ENDBRANCH  22  23
ENDBRANCH   4  17
TORSDOF 4
ENDMDL
MODEL 8
REMARK VINA RESULT:      -8.0      1.161      1.483
REMARK  Name = 
REMARK  4 active torsions:
REMARK  status: ('A' for Active; 'I' for Inactive)
REMARK    1  A    between atoms: C_5  and  C_6
REMARK    2  A    between atoms: C_9  and  C_10
REMARK    3  A    between atoms: C_15  and  S_16
REMARK    4  A    between atoms: S_16  and  C_19
REMARK                            x       y       z     vdW  Elec       q    Type
REMARK                         _______ _______ _______ _____ _____    ______ ____
ROOT
ATOM      1  C   UNL     1       1.581   8.785  19.281  0.00  0.00    +0.000 A 
ATOM      2  C   UNL     1       1.947   7.641  20.005  0.00  0.00    +0.000 A 
ATOM      3  C   UNL     1       2.837   6.690  19.478  0.00  0.00    +0.000 A 
ATOM      4  C   UNL     1       3.347   6.794  18.179  0.00  0.00    +0.000 A 
ATOM      5  C   UNL     1       3.077   8.000  17.510  0.00  0.00    +0.000 A 
ATOM      6  C   UNL     1       2.231   8.971  18.057  0.00  0.00    +0.000 A 
ATOM      7  F   UNL     1       2.017  10.081  17.333  0.00  0.00    +0.000 F 
ENDROOT
BRANCH   1  12
ATOM      8  N   UNL     1      -2.342  12.418  20.909  0.00  0.00    +0.000 N 
ATOM      9  C   UNL     1      -1.409  11.472  20.539  0.00  0.00    +0.000 A 
ATOM     10  N   UNL     1      -0.463  11.150  21.422  0.00  0.00    +0.000 NA
ATOM     11  C   UNL     1       0.473  10.263  21.011  0.00  0.00    +0.000 A 
ATOM     12  C   UNL     1       0.519   9.688  19.754  0.00  0.00    +0.000 A 
ATOM     13  C   UNL     1      -0.514  10.117  18.936  0.00  0.00    +0.000 A 
ATOM     14  N   UNL     1      -1.477  10.997  19.296  0.00  0.00    +0.000 NA
ATOM     15  H   UNL     1      -1.948  13.004  21.632  0.00  0.00    +0.000 HD
ATOM     16  H   UNL     1      -2.687  12.882  20.080  0.00  0.00    +0.000 HD
ENDBRANCH   1  12
BRANCH   4  17
ATOM     17  C   UNL     1       4.134   5.721  17.518  0.00  0.00    +0.000 A 
ATOM     18  C   UNL     1       5.380   6.050  16.945  0.00  0.00    +0.000 A 
ATOM     19  C   UNL     1       6.123   5.118  16.221  0.00  0.00    +0.000 A 
ATOM     20  C   UNL     1       5.623   3.838  16.089  0.00  0.00    +0.000 A 
ATOM     21  N   UNL     1       4.452   3.440  16.623  0.00  0.00    +0.000 NA
ATOM     22  C   UNL     1       3.735   4.383  17.313  0.00  0.00    +0.000 A 
BRANCH  22  23
ATOM     23  S   UNL     1       2.148   3.742  17.845  0.00  0.00    +0.000 S 
ATOM     24  O   UNL     1       1.126   4.679  17.404  0.00  0.00    +0.000 OA
ATOM     25  O   UNL     1       2.095   2.334  17.498  0.00  0.00    +0.000 OA
BRANCH  23  26
ATOM     26  C   UNL     1       2.067   3.867  19.671  0.00  0.00    +0.000 C 
ATOM     27  C   UNL     1       0.757   3.292  20.187  0.00  0.00    +0.000 C 
ATOM     28  C   UNL     1       2.054   2.585  20.457  0.00  0.00    +0.000 C 
ENDBRANCH  23  26
ENDBRANCH  22  23
ENDBRANCH   4  17
TORSDOF 4
ENDMDL
MODEL 9
REMARK VINA RESULT:      -7.9      1.978      3.592
REMARK  Name = 
REMARK  4 active torsions:
REMARK  status: ('A' for Active; 'I' for Inactive)
REMARK    1  A    between atoms: C_5  and  C_6
REMARK    2  A    between atoms: C_9  and  C_10
REMARK    3  A    between atoms: C_15  and  S_16
REMARK    4  A    between atoms: S_16  and  C_19
REMARK                            x       y       z     vdW  Elec       q    Type
REMARK                         _______ _______ _______ _____ _____    ______ ____
ROOT
ATOM      1  C   UNL     1       1.274   8.510  20.584  0.00  0.00    +0.000 A 
ATOM      2  C   UNL     1       1.313   7.321  21.327  0.00  0.00    +0.000 A 
ATOM      3  C   UNL     1       1.733   6.108  20.752  0.00  0.00    +0.000 A 
ATOM      4  C   UNL     1       2.063   6.007  19.397  0.00  0.00    +0.000 A 
ATOM      5  C   UNL     1       2.142   7.221  18.693  0.00  0.00    +0.000 A 
ATOM      6  C   UNL     1       1.772   8.436  19.279  0.00  0.00    +0.000 A 
ATOM      7  F   UNL     1       1.861   9.539  18.521  0.00  0.00    +0.000 F 
ENDROOT
BRANCH   1  12
ATOM      8  N   UNL     1      -1.267  13.028  22.673  0.00  0.00    +0.000 N 
ATOM      9  C   UNL     1      -0.580  11.946  22.165  0.00  0.00    +0.000 A 
ATOM     10  N   UNL     1      -0.273  11.957  20.867  0.00  0.00    +0.000 NA
ATOM     11  C   UNL     1       0.350  10.857  20.382  0.00  0.00    +0.000 A 
ATOM     12  C   UNL     1       0.670   9.737  21.128  0.00  0.00    +0.000 A 
ATOM     13  C   UNL     1       0.285   9.855  22.454  0.00  0.00    +0.000 A 
ATOM     14  N   UNL     1      -0.334  10.931  22.992  0.00  0.00    +0.000 NA
ATOM     15  H   UNL     1      -1.771  13.481  21.924  0.00  0.00    +0.000 HD
ATOM     16  H   UNL     1      -1.807  12.728  23.474  0.00  0.00    +0.000 HD
ENDBRANCH   1  12
BRANCH   4  17
ATOM     17  C   UNL     1       2.326   4.715  18.710  0.00  0.00    +0.000 A 
ATOM     18  C   UNL     1       1.352   3.698  18.786  0.00  0.00    +0.000 A 
ATOM     19  C   UNL     1       1.575   2.428  18.254  0.00  0.00    +0.000 A 
ATOM     20  C   UNL     1       2.776   2.183  17.618  0.00  0.00    +0.000 A 
ATOM     21  N   UNL     1       3.747   3.108  17.486  0.00  0.00    +0.000 NA
ATOM     22  C   UNL     1       3.507   4.341  18.036  0.00  0.00    +0.000 A 
BRANCH  22  23
ATOM     23  S   UNL     1       4.937   5.412  17.896  0.00  0.00    +0.000 S 
ATOM     24  O   UNL     1       4.598   6.476  16.962  0.00  0.00    +0.000 OA
ATOM     25  O   UNL     1       5.418   5.695  19.234  0.00  0.00    +0.000 OA
BRANCH  23  26
ATOM     26  C   UNL     1       6.253   4.490  17.016  0.00  0.00    +0.000 C 
ATOM     27  C   UNL     1       7.268   5.451  16.417  0.00  0.00    +0.000 C 
ATOM     28  C   UNL     1       7.649   4.569  17.570  0.00  0.00    +0.000 C 
ENDBRANCH  23  26
ENDBRANCH  22  23
ENDBRANCH   4  17
TORSDOF 4
ENDMDL
