MODEL 1
REMARK VINA RESULT:      -7.5      0.000      0.000
REMARK  Name = 
REMARK  2 active torsions:
REMARK  status: ('A' for Active; 'I' for Inactive)
REMARK    1  A    between atoms: C_2  and  C_11
REMARK    2  A    between atoms: N_3  and  C_4
REMARK                            x       y       z     vdW  Elec       q    Type
REMARK                         _______ _______ _______ _____ _____    ______ ____
ROOT
ATOM      1  O   UNL     1       2.213   9.009  17.906  0.00  0.00    +0.000 OA
ATOM      2  C   UNL     1       2.271   7.994  18.595  0.00  0.00    +0.000 C 
ATOM      3  N   UNL     1       1.742   7.831  19.865  0.00  0.00    +0.000 N 
ATOM      4  H   UNL     1       2.033   7.017  20.388  0.00  0.00    +0.000 HD
ENDROOT
BRANCH   2   5
ATOM      5  C   UNL     1       3.028   6.839  18.046  0.00  0.00    +0.000 A 
ATOM      6  C   UNL     1       2.597   5.516  18.214  0.00  0.00    +0.000 A 
ATOM      7  C   UNL     1       3.320   4.473  17.628  0.00  0.00    +0.000 A 
ATOM      8  C   UNL     1       4.467   4.748  16.880  0.00  0.00    +0.000 A 
ATOM      9  C   UNL     1       4.881   6.070  16.693  0.00  0.00    +0.000 A 
ATOM     10  C   UNL     1       4.170   7.112  17.281  0.00  0.00    +0.000 A 
ATOM     11  O   UNL     1       5.976   6.419  15.947  0.00  0.00    +0.000 OA
ATOM     12  C   UNL     1       6.412   5.337  15.117  0.00  0.00    +0.000 C 
ATOM     13  C   UNL     1       6.443   4.037  15.904  0.00  0.00    +0.000 C 
ATOM     14  O   UNL     1       5.129   3.674  16.345  0.00  0.00    +0.000 OA
ENDBRANCH   2   5
BRANCH   3  15
ATOM     15  C   UNL     1       0.991   8.798  20.570  0.00  0.00    +0.000 A 
ATOM     16  C   UNL     1       0.220   9.780  19.940  0.00  0.00    +0.000 A 
ATOM     17  C   UNL     1      -0.464  10.743  20.687  0.00  0.00    +0.000 A 
ATOM     18  C   UNL     1      -0.386  10.724  22.074  0.00  0.00    +0.000 A 
ATOM     19 CL   UNL     1      -1.200  11.930  22.992  0.00  0.00    +0.000 Cl
ATOM     20  C   UNL     1       0.352   9.736  22.721  0.00  0.00    +0.000 A 
ATOM     21  C   UNL     1       1.030   8.767  21.971  0.00  0.00    +0.000 A 
ENDBRANCH   3  15
TORSDOF 2
ENDMDL
MODEL 2
REMARK VINA RESULT:      -7.5      3.593      8.015
REMARK  Name = 
REMARK  2 active torsions:
REMARK  status: ('A' for Active; 'I' for Inactive)
REMARK    1  A    between atoms: C_2  and  C_11
REMARK    2  A    between atoms: N_3  and  C_4
REMARK                            x       y       z     vdW  Elec       q    Type
REMARK                         _______ _______ _______ _____ _____    ______ ____
ROOT
ATOM      1  O   UNL     1       2.004   8.663  17.462  0.00  0.00    +0.000 OA
ATOM      2  C   UNL     1       2.163   8.149  18.565  0.00  0.00    +0.000 C 
ATOM      3  N   UNL     1       2.857   6.982  18.836  0.00  0.00    +0.000 N 
ATOM      4  H   UNL     1       2.741   6.573  19.753  0.00  0.00    +0.000 HD
ENDROOT
BRANCH   2   5
ATOM      5  C   UNL     1       1.502   8.803  19.725  0.00  0.00    +0.000 A 
ATOM      6  C   UNL     1       1.432   8.194  20.985  0.00  0.00    +0.000 A 
ATOM      7  C   UNL     1       0.847   8.881  22.053  0.00  0.00    +0.000 A 
ATOM      8  C   UNL     1       0.333  10.166  21.865  0.00  0.00    +0.000 A 
ATOM      9  C   UNL     1       0.427  10.781  20.613  0.00  0.00    +0.000 A 
ATOM     10  C   UNL     1       1.001  10.099  19.543  0.00  0.00    +0.000 A 
ATOM     11  O   UNL     1      -0.025  12.050  20.361  0.00  0.00    +0.000 OA
ATOM     12  C   UNL     1      -0.262  12.773  21.573  0.00  0.00    +0.000 C 
ATOM     13  C   UNL     1      -1.014  11.911  22.574  0.00  0.00    +0.000 C 
ATOM     14  O   UNL     1      -0.233  10.772  22.955  0.00  0.00    +0.000 OA
ENDBRANCH   2   5
BRANCH   3  15
ATOM     15  C   UNL     1       3.557   6.204  17.885  0.00  0.00    +0.000 A 
ATOM     16  C   UNL     1       3.323   4.839  17.689  0.00  0.00    +0.000 A 
ATOM     17  C   UNL     1       4.079   4.107  16.770  0.00  0.00    +0.000 A 
ATOM     18  C   UNL     1       5.072   4.740  16.033  0.00  0.00    +0.000 A 
ATOM     19 CL   UNL     1       6.025   3.832  14.926  0.00  0.00    +0.000 Cl
ATOM     20  C   UNL     1       5.299   6.105  16.192  0.00  0.00    +0.000 A 
ATOM     21  C   UNL     1       4.536   6.838  17.108  0.00  0.00    +0.000 A 
ENDBRANCH   3  15
TORSDOF 2
ENDMDL
MODEL 3
REMARK VINA RESULT:      -7.4      3.581      7.998
REMARK  Name = 
REMARK  2 active torsions:
REMARK  status: ('A' for Active; 'I' for Inactive)
REMARK    1  A    between atoms: C_2  and  C_11
REMARK    2  A    between atoms: N_3  and  C_4
REMARK                            x       y       z     vdW  Elec       q    Type
REMARK                         _______ _______ _______ _____ _____    ______ ____
ROOT
ATOM      1  O   UNL     1       1.849   8.586  17.585  0.00  0.00    +0.000 OA
ATOM      2  C   UNL     1       2.107   8.142  18.699  0.00  0.00    +0.000 C 
ATOM      3  N   UNL     1       2.930   7.065  18.985  0.00  0.00    +0.000 N 
ATOM      4  H   UNL     1       2.896   6.689  19.922  0.00  0.00    +0.000 HD
ENDROOT
BRANCH   2   5
ATOM      5  C   UNL     1       1.432   8.777  19.861  0.00  0.00    +0.000 A 
ATOM      6  C   UNL     1       1.341   8.146  21.109  0.00  0.00    +0.000 A 
ATOM      7  C   UNL     1       0.743   8.815  22.180  0.00  0.00    +0.000 A 
ATOM      8  C   UNL     1       0.238  10.105  22.008  0.00  0.00    +0.000 A 
ATOM      9  C   UNL     1       0.353  10.743  20.770  0.00  0.00    +0.000 A 
ATOM     10  C   UNL     1       0.939  10.079  19.696  0.00  0.00    +0.000 A 
ATOM     11  O   UNL     1      -0.091  12.018  20.534  0.00  0.00    +0.000 OA
ATOM     12  C   UNL     1      -0.342  12.720  21.756  0.00  0.00    +0.000 C 
ATOM     13  C   UNL     1      -1.112  11.843  22.729  0.00  0.00    +0.000 C 
ATOM     14  O   UNL     1      -0.342  10.694  23.101  0.00  0.00    +0.000 OA
ENDBRANCH   2   5
BRANCH   3  15
ATOM     15  C   UNL     1       3.665   6.320  18.035  0.00  0.00    +0.000 A 
ATOM     16  C   UNL     1       4.636   6.885  17.201  0.00  0.00    +0.000 A 
ATOM     17  C   UNL     1       5.297   6.111  16.243  0.00  0.00    +0.000 A 
ATOM     18  C   UNL     1       4.996   4.760  16.120  0.00  0.00    +0.000 A 
ATOM     19 CL   UNL     1       5.785   3.815  14.919  0.00  0.00    +0.000 Cl
ATOM     20  C   UNL     1       4.054   4.173  16.962  0.00  0.00    +0.000 A 
ATOM     21  C   UNL     1       3.398   4.948  17.925  0.00  0.00    +0.000 A 
ENDBRANCH   3  15
TORSDOF 2
ENDMDL
MODEL 4
REMARK VINA RESULT:      -7.4      0.159      1.088
REMARK  Name = 
REMARK  2 active torsions:
REMARK  status: ('A' for Active; 'I' for Inactive)
REMARK    1  A    between atoms: C_2  and  C_11
REMARK    2  A    between atoms: N_3  and  C_4
REMARK                            x       y       z     vdW  Elec       q    Type
REMARK                         _______ _______ _______ _____ _____    ______ ____
ROOT
ATOM      1  O   UNL     1       2.261   9.022  18.079  0.00  0.00    +0.000 OA
ATOM      2  C   UNL     1       2.295   7.984  18.733  0.00  0.00    +0.000 C 
ATOM      3  N   UNL     1       1.774   7.795  20.002  0.00  0.00    +0.000 N 
ATOM      4  H   UNL     1       2.045   6.956  20.496  0.00  0.00    +0.000 HD
ENDROOT
BRANCH   2   5
ATOM      5  C   UNL     1       3.013   6.825  18.139  0.00  0.00    +0.000 A 
ATOM      6  C   UNL     1       2.588   5.504  18.334  0.00  0.00    +0.000 A 
ATOM      7  C   UNL     1       3.271   4.459  17.705  0.00  0.00    +0.000 A 
ATOM      8  C   UNL     1       4.370   4.729  16.888  0.00  0.00    +0.000 A 
ATOM      9  C   UNL     1       4.776   6.050  16.674  0.00  0.00    +0.000 A 
ATOM     10  C   UNL     1       4.106   7.095  17.305  0.00  0.00    +0.000 A 
ATOM     11  O   UNL     1       5.825   6.394  15.862  0.00  0.00    +0.000 OA
ATOM     12  C   UNL     1       6.205   5.310  15.008  0.00  0.00    +0.000 C 
ATOM     13  C   UNL     1       6.279   4.010  15.792  0.00  0.00    +0.000 C 
ATOM     14  O   UNL     1       4.993   3.653  16.313  0.00  0.00    +0.000 OA
ENDBRANCH   2   5
BRANCH   3  15
ATOM     15  C   UNL     1       1.058   8.759  20.747  0.00  0.00    +0.000 A 
ATOM     16  C   UNL     1       1.093   8.831  22.143  0.00  0.00    +0.000 A 
ATOM     17  C   UNL     1       0.324   9.773  22.832  0.00  0.00    +0.000 A 
ATOM     18  C   UNL     1      -0.480  10.658  22.124  0.00  0.00    +0.000 A 
ATOM     19 CL   UNL     1      -1.451  11.796  22.973  0.00  0.00    +0.000 Cl
ATOM     20  C   UNL     1      -0.504  10.622  20.732  0.00  0.00    +0.000 A 
ATOM     21  C   UNL     1       0.272   9.682  20.044  0.00  0.00    +0.000 A 
ENDBRANCH   3  15
TORSDOF 2
ENDMDL
MODEL 5
REMARK VINA RESULT:      -7.3      2.090      2.279
REMARK  Name = 
REMARK  2 active torsions:
REMARK  status: ('A' for Active; 'I' for Inactive)
REMARK    1  A    between atoms: C_2  and  C_11
REMARK    2  A    between atoms: N_3  and  C_4
REMARK                            x       y       z     vdW  Elec       q    Type
REMARK                         _______ _______ _______ _____ _____    ______ ____
ROOT
ATOM      1  O   UNL     1       2.009   7.806  19.904  0.00  0.00    +0.000 OA
ATOM      2  C   UNL     1       2.306   7.882  18.715  0.00  0.00    +0.000 C 
ATOM      3  N   UNL     1       1.984   8.916  17.852  0.00  0.00    +0.000 N 
ATOM      4  H   UNL     1       2.119   8.756  16.864  0.00  0.00    +0.000 HD
ENDROOT
BRANCH   2   5
ATOM      5  C   UNL     1       3.031   6.730  18.118  0.00  0.00    +0.000 A 
ATOM      6  C   UNL     1       2.605   5.407  18.294  0.00  0.00    +0.000 A 
ATOM      7  C   UNL     1       3.295   4.368  17.661  0.00  0.00    +0.000 A 
ATOM      8  C   UNL     1       4.403   4.648  16.860  0.00  0.00    +0.000 A 
ATOM      9  C   UNL     1       4.811   5.971  16.665  0.00  0.00    +0.000 A 
ATOM     10  C   UNL     1       4.134   7.009  17.299  0.00  0.00    +0.000 A 
ATOM     11  O   UNL     1       5.869   6.324  15.869  0.00  0.00    +0.000 OA
ATOM     12  C   UNL     1       6.260   5.250  15.008  0.00  0.00    +0.000 C 
ATOM     13  C   UNL     1       6.326   3.942  15.779  0.00  0.00    +0.000 C 
ATOM     14  O   UNL     1       5.034   3.578  16.281  0.00  0.00    +0.000 OA
ENDBRANCH   2   5
BRANCH   3  15
ATOM     15  C   UNL     1       1.301  10.100  18.210  0.00  0.00    +0.000 A 
ATOM     16  C   UNL     1      -0.085  10.161  18.393  0.00  0.00    +0.000 A 
ATOM     17  C   UNL     1      -0.715  11.371  18.696  0.00  0.00    +0.000 A 
ATOM     18  C   UNL     1       0.041  12.529  18.828  0.00  0.00    +0.000 A 
ATOM     19 CL   UNL     1      -0.739  14.024  19.169  0.00  0.00    +0.000 Cl
ATOM     20  C   UNL     1       1.425  12.483  18.680  0.00  0.00    +0.000 A 
ATOM     21  C   UNL     1       2.055  11.269  18.382  0.00  0.00    +0.000 A 
ENDBRANCH   3  15
TORSDOF 2
ENDMDL
MODEL 6
REMARK VINA RESULT:      -7.3      2.044      2.204
REMARK  Name = 
REMARK  2 active torsions:
REMARK  status: ('A' for Active; 'I' for Inactive)
REMARK    1  A    between atoms: C_2  and  C_11
REMARK    2  A    between atoms: N_3  and  C_4
REMARK                            x       y       z     vdW  Elec       q    Type
REMARK                         _______ _______ _______ _____ _____    ______ ____
ROOT
ATOM      1  O   UNL     1       1.942   7.785  19.918  0.00  0.00    +0.000 OA
ATOM      2  C   UNL     1       2.249   7.866  18.732  0.00  0.00    +0.000 C 
ATOM      3  N   UNL     1       1.926   8.900  17.869  0.00  0.00    +0.000 N 
ATOM      4  H   UNL     1       2.072   8.744  16.881  0.00  0.00    +0.000 HD
ENDROOT
BRANCH   2   5
ATOM      5  C   UNL     1       2.989   6.722  18.138  0.00  0.00    +0.000 A 
ATOM      6  C   UNL     1       2.575   5.394  18.312  0.00  0.00    +0.000 A 
ATOM      7  C   UNL     1       3.279   4.363  17.683  0.00  0.00    +0.000 A 
ATOM      8  C   UNL     1       4.389   4.654  16.888  0.00  0.00    +0.000 A 
ATOM      9  C   UNL     1       4.784   5.981  16.695  0.00  0.00    +0.000 A 
ATOM     10  C   UNL     1       4.093   7.012  17.325  0.00  0.00    +0.000 A 
ATOM     11  O   UNL     1       5.842   6.345  15.904  0.00  0.00    +0.000 OA
ATOM     12  C   UNL     1       6.248   5.275  15.045  0.00  0.00    +0.000 C 
ATOM     13  C   UNL     1       6.324   3.968  15.816  0.00  0.00    +0.000 C 
ATOM     14  O   UNL     1       5.034   3.591  16.312  0.00  0.00    +0.000 OA
ENDBRANCH   2   5
BRANCH   3  15
ATOM     15  C   UNL     1       1.230  10.078  18.223  0.00  0.00    +0.000 A 
ATOM     16  C   UNL     1       1.868  11.290  18.507  0.00  0.00    +0.000 A 
ATOM     17  C   UNL     1       1.133  12.411  18.902  0.00  0.00    +0.000 A 
ATOM     18  C   UNL     1      -0.250  12.328  19.008  0.00  0.00    +0.000 A 
ATOM     19 CL   UNL     1      -1.152  13.698  19.526  0.00  0.00    +0.000 Cl
ATOM     20  C   UNL     1      -0.906  11.138  18.700  0.00  0.00    +0.000 A 
ATOM     21  C   UNL     1      -0.168  10.018  18.298  0.00  0.00    +0.000 A 
ENDBRANCH   3  15
TORSDOF 2
ENDMDL
MODEL 7
REMARK VINA RESULT:      -7.3      1.267      1.715
REMARK  Name = 
REMARK  2 active torsions:
REMARK  status: ('A' for Active; 'I' for Inactive)
REMARK    1  A    between atoms: C_2  and  C_11
REMARK    2  A    between atoms: N_3  and  C_4
REMARK                            x       y       z     vdW  Elec       q    Type
REMARK                         _______ _______ _______ _____ _____    ______ ____
ROOT
ATOM      1  O   UNL     1       1.391   5.688  20.680  0.00  0.00    +0.000 OA
ATOM      2  C   UNL     1       2.089   6.349  19.917  0.00  0.00    +0.000 C 
ATOM      3  N   UNL     1       2.088   7.728  19.790  0.00  0.00    +0.000 N 
ATOM      4  H   UNL     1       2.565   8.122  18.990  0.00  0.00    +0.000 HD
ENDROOT
BRANCH   2   5
ATOM      5  C   UNL     1       2.984   5.605  18.992  0.00  0.00    +0.000 A 
ATOM      6  C   UNL     1       3.100   4.209  19.028  0.00  0.00    +0.000 A 
ATOM      7  C   UNL     1       3.915   3.559  18.096  0.00  0.00    +0.000 A 
ATOM      8  C   UNL     1       4.611   4.297  17.137  0.00  0.00    +0.000 A 
ATOM      9  C   UNL     1       4.473   5.688  17.087  0.00  0.00    +0.000 A 
ATOM     10  C   UNL     1       3.670   6.341  18.017  0.00  0.00    +0.000 A 
ATOM     11  O   UNL     1       5.100   6.474  16.156  0.00  0.00    +0.000 OA
ATOM     12  C   UNL     1       5.597   5.697  15.062  0.00  0.00    +0.000 C 
ATOM     13  C   UNL     1       6.307   4.452  15.568  0.00  0.00    +0.000 C 
ATOM     14  O   UNL     1       5.398   3.592  16.264  0.00  0.00    +0.000 OA
ENDBRANCH   2   5
BRANCH   3  15
ATOM     15  C   UNL     1       1.317   8.623  20.565  0.00  0.00    +0.000 A 
ATOM     16  C   UNL     1       1.355   8.656  21.963  0.00  0.00    +0.000 A 
ATOM     17  C   UNL     1       0.533   9.528  22.682  0.00  0.00    +0.000 A 
ATOM     18  C   UNL     1      -0.329  10.380  22.004  0.00  0.00    +0.000 A 
ATOM     19 CL   UNL     1      -1.365  11.429  22.890  0.00  0.00    +0.000 Cl
ATOM     20  C   UNL     1      -0.360  10.384  20.612  0.00  0.00    +0.000 A 
ATOM     21  C   UNL     1       0.470   9.514  19.893  0.00  0.00    +0.000 A 
ENDBRANCH   3  15
TORSDOF 2
ENDMDL
MODEL 8
REMARK VINA RESULT:      -7.2      1.352      1.390
REMARK  Name = 
REMARK  2 active torsions:
REMARK  status: ('A' for Active; 'I' for Inactive)
REMARK    1  A    between atoms: C_2  and  C_11
REMARK    2  A    between atoms: N_3  and  C_4
REMARK                            x       y       z     vdW  Elec       q    Type
REMARK                         _______ _______ _______ _____ _____    ______ ____
ROOT
ATOM      1  O   UNL     1       1.441   5.802  20.781  0.00  0.00    +0.000 OA
ATOM      2  C   UNL     1       2.145   6.493  20.051  0.00  0.00    +0.000 C 
ATOM      3  N   UNL     1       2.063   7.866  19.891  0.00  0.00    +0.000 N 
ATOM      4  H   UNL     1       2.568   8.275  19.116  0.00  0.00    +0.000 HD
ENDROOT
BRANCH   2   5
ATOM      5  C   UNL     1       3.149   5.793  19.208  0.00  0.00    +0.000 A 
ATOM      6  C   UNL     1       3.568   4.483  19.478  0.00  0.00    +0.000 A 
ATOM      7  C   UNL     1       4.474   3.855  18.618  0.00  0.00    +0.000 A 
ATOM      8  C   UNL     1       4.960   4.530  17.497  0.00  0.00    +0.000 A 
ATOM      9  C   UNL     1       4.522   5.828  17.215  0.00  0.00    +0.000 A 
ATOM     10  C   UNL     1       3.626   6.461  18.072  0.00  0.00    +0.000 A 
ATOM     11  O   UNL     1       4.930   6.540  16.118  0.00  0.00    +0.000 OA
ATOM     12  C   UNL     1       5.549   5.694  15.143  0.00  0.00    +0.000 C 
ATOM     13  C   UNL     1       6.529   4.740  15.807  0.00  0.00    +0.000 C 
ATOM     14  O   UNL     1       5.852   3.854  16.706  0.00  0.00    +0.000 OA
ENDBRANCH   2   5
BRANCH   3  15
ATOM     15  C   UNL     1       1.182   8.723  20.589  0.00  0.00    +0.000 A 
ATOM     16  C   UNL     1       0.308   9.609  19.952  0.00  0.00    +0.000 A 
ATOM     17  C   UNL     1      -0.506  10.470  20.694  0.00  0.00    +0.000 A 
ATOM     18  C   UNL     1      -0.454  10.444  22.082  0.00  0.00    +0.000 A 
ATOM     19 CL   UNL     1      -1.431  11.527  22.994  0.00  0.00    +0.000 Cl
ATOM     20  C   UNL     1       0.388   9.546  22.735  0.00  0.00    +0.000 A 
ATOM     21  C   UNL     1       1.197   8.680  21.990  0.00  0.00    +0.000 A 
ENDBRANCH   3  15
TORSDOF 2
ENDMDL
MODEL 9
REMARK VINA RESULT:      -7.1      1.702      2.151
REMARK  Name = 
REMARK  2 active torsions:
REMARK  status: ('A' for Active; 'I' for Inactive)
REMARK    1  A    between atoms: C_2  and  C_11
REMARK    2  A    between atoms: N_3  and  C_4
REMARK                            x       y       z     vdW  Elec       q    Type
REMARK                         _______ _______ _______ _____ _____    ______ ____
ROOT
ATOM      1  O   UNL     1       1.790   7.008  20.266  0.00  0.00    +0.000 OA
ATOM      2  C   UNL     1       2.355   7.409  19.253  0.00  0.00    +0.000 C 
ATOM      3  N   UNL     1       2.028   8.539  18.522  0.00  0.00    +0.000 N 
ATOM      4  H   UNL     1       2.447   8.640  17.608  0.00  0.00    +0.000 HD
ENDROOT
BRANCH   2   5
ATOM      5  C   UNL     1       3.464   6.578  18.714  0.00  0.00    +0.000 A 
ATOM      6  C   UNL     1       4.028   5.523  19.443  0.00  0.00    +0.000 A 
ATOM      7  C   UNL     1       5.031   4.740  18.863  0.00  0.00    +0.000 A 
ATOM      8  C   UNL     1       5.469   5.009  17.566  0.00  0.00    +0.000 A 
ATOM      9  C   UNL     1       4.886   6.046  16.831  0.00  0.00    +0.000 A 
ATOM     10  C   UNL     1       3.894   6.835  17.405  0.00  0.00    +0.000 A 
ATOM     11  O   UNL     1       5.242   6.350  15.542  0.00  0.00    +0.000 OA
ATOM     12  C   UNL     1       5.990   5.288  14.941  0.00  0.00    +0.000 C 
ATOM     13  C   UNL     1       7.056   4.775  15.896  0.00  0.00    +0.000 C 
ATOM     14  O   UNL     1       6.461   4.206  17.068  0.00  0.00    +0.000 OA
ENDBRANCH   2   5
BRANCH   3  15
ATOM     15  C   UNL     1       1.012   9.465  18.854  0.00  0.00    +0.000 A 
ATOM     16  C   UNL     1       1.000  10.197  20.046  0.00  0.00    +0.000 A 
ATOM     17  C   UNL     1      -0.056  11.061  20.345  0.00  0.00    +0.000 A 
ATOM     18  C   UNL     1      -1.106  11.205  19.447  0.00  0.00    +0.000 A 
ATOM     19 CL   UNL     1      -2.423  12.244  19.832  0.00  0.00    +0.000 Cl
ATOM     20  C   UNL     1      -1.097  10.508  18.242  0.00  0.00    +0.000 A 
ATOM     21  C   UNL     1      -0.035   9.647  17.940  0.00  0.00    +0.000 A 
ENDBRANCH   3  15
TORSDOF 2
ENDMDL
