MODEL 1
REMARK VINA RESULT:      -7.6      0.000      0.000
REMARK  Name = 
REMARK  5 active torsions:
REMARK  status: ('A' for Active; 'I' for Inactive)
REMARK    1  A    between atoms: C_1  and  C_2
REMARK    2  A    between atoms: C_4  and  C_5
REMARK    3  A    between atoms: C_6  and  C_7
REMARK    4  A    between atoms: C_6  and  S_16
REMARK    5  A    between atoms: S_16  and  C_17
REMARK                            x       y       z     vdW  Elec       q    Type
REMARK                         _______ _______ _______ _____ _____    ______ ____
ROOT
ATOM      1  C   UNL     1       4.134   3.409  18.566  0.00  0.00    +0.000 C 
ATOM      2  C   UNL     1       3.190   4.077  19.263  0.00  0.00    +0.000 C 
ENDROOT
BRANCH   2   3
ATOM      3  C   UNL     1       2.935   5.466  19.075  0.00  0.00    +0.000 A 
ATOM      4  N   UNL     1       2.942   6.191  17.975  0.00  0.00    +0.000 NA
ATOM      5  C   UNL     1       2.434   7.418  18.322  0.00  0.00    +0.000 A 
ATOM      6  C   UNL     1       2.150   8.529  17.516  0.00  0.00    +0.000 A 
ATOM      7  C   UNL     1       1.550   9.648  18.107  0.00  0.00    +0.000 A 
ATOM      8  C   UNL     1       1.265   9.668  19.475  0.00  0.00    +0.000 A 
ATOM      9  C   UNL     1       1.581   8.583  20.302  0.00  0.00    +0.000 A 
ATOM     10  C   UNL     1       2.156   7.471  19.680  0.00  0.00    +0.000 A 
ATOM     11  N   UNL     1       2.551   6.244  20.151  0.00  0.00    +0.000 N 
ATOM     12  H   UNL     1       2.518   5.939  21.117  0.00  0.00    +0.000 HD
ENDBRANCH   2   3
BRANCH   1  16
ATOM     13  C   UNL     1       5.611   3.730  13.799  0.00  0.00    +0.000 C 
ATOM     14  C   UNL     1       5.713   4.212  15.220  0.00  0.00    +0.000 A 
ATOM     15  C   UNL     1       4.870   3.668  16.209  0.00  0.00    +0.000 A 
ATOM     16  C   UNL     1       5.046   3.988  17.565  0.00  0.00    +0.000 A 
ATOM     17  C   UNL     1       6.099   4.842  17.926  0.00  0.00    +0.000 A 
ATOM     18 CL   UNL     1       6.509   5.121  19.586  0.00  0.00    +0.000 Cl
ATOM     19  C   UNL     1       6.882   5.458  16.949  0.00  0.00    +0.000 A 
ATOM     20  C   UNL     1       6.673   5.161  15.602  0.00  0.00    +0.000 A 
ATOM     21 CL   UNL     1       7.651   5.977  14.435  0.00  0.00    +0.000 Cl
ENDBRANCH   1  16
BRANCH   2  22
ATOM     22  S   UNL     1       2.302   3.180  20.480  0.00  0.00    +0.000 S 
ATOM     23  C   UNL     1       1.651   1.821  19.535  0.00  0.00    +0.000 C 
ATOM     24  O   UNL     1       3.242   2.631  21.447  0.00  0.00    +0.000 OA
ATOM     25  O   UNL     1       1.168   3.958  20.951  0.00  0.00    +0.000 OA
ENDBRANCH   2  22
TORSDOF 3
ENDMDL
MODEL 2
REMARK VINA RESULT:      -7.2      3.987      6.673
REMARK  Name = 
REMARK  5 active torsions:
REMARK  status: ('A' for Active; 'I' for Inactive)
REMARK    1  A    between atoms: C_1  and  C_2
REMARK    2  A    between atoms: C_4  and  C_5
REMARK    3  A    between atoms: C_6  and  C_7
REMARK    4  A    between atoms: C_6  and  S_16
REMARK    5  A    between atoms: S_16  and  C_17
REMARK                            x       y       z     vdW  Elec       q    Type
REMARK                         _______ _______ _______ _____ _____    ______ ____
ROOT
ATOM      1  C   UNL     1       5.199   6.071  18.220  0.00  0.00    +0.000 C 
ATOM      2  C   UNL     1       6.123   6.193  17.244  0.00  0.00    +0.000 C 
ENDROOT
BRANCH   2   3
ATOM      3  C   UNL     1       6.102   5.399  16.062  0.00  0.00    +0.000 A 
ATOM      4  N   UNL     1       5.123   4.701  15.523  0.00  0.00    +0.000 NA
ATOM      5  C   UNL     1       5.575   4.294  14.293  0.00  0.00    +0.000 A 
ATOM      6  C   UNL     1       4.904   3.595  13.280  0.00  0.00    +0.000 A 
ATOM      7  C   UNL     1       5.570   3.370  12.069  0.00  0.00    +0.000 A 
ATOM      8  C   UNL     1       6.885   3.808  11.883  0.00  0.00    +0.000 A 
ATOM      9  C   UNL     1       7.583   4.470  12.900  0.00  0.00    +0.000 A 
ATOM     10  C   UNL     1       6.885   4.702  14.089  0.00  0.00    +0.000 A 
ATOM     11  N   UNL     1       7.223   5.339  15.256  0.00  0.00    +0.000 N 
ATOM     12  H   UNL     1       8.127   5.745  15.472  0.00  0.00    +0.000 HD
ENDBRANCH   2   3
BRANCH   1  16
ATOM     13  C   UNL     1       3.638   1.325  18.452  0.00  0.00    +0.000 C 
ATOM     14  C   UNL     1       3.316   2.795  18.445  0.00  0.00    +0.000 A 
ATOM     15  C   UNL     1       4.357   3.742  18.403  0.00  0.00    +0.000 A 
ATOM     16  C   UNL     1       4.083   5.110  18.244  0.00  0.00    +0.000 A 
ATOM     17  C   UNL     1       2.749   5.519  18.097  0.00  0.00    +0.000 A 
ATOM     18 CL   UNL     1       2.343   7.154  17.691  0.00  0.00    +0.000 Cl
ATOM     19  C   UNL     1       1.706   4.602  18.227  0.00  0.00    +0.000 A 
ATOM     20  C   UNL     1       1.990   3.250  18.423  0.00  0.00    +0.000 A 
ATOM     21 CL   UNL     1       0.657   2.165  18.610  0.00  0.00    +0.000 Cl
ENDBRANCH   1  16
BRANCH   2  22
ATOM     22  S   UNL     1       7.419   7.346  17.501  0.00  0.00    +0.000 S 
ATOM     23  C   UNL     1       8.198   6.706  18.966  0.00  0.00    +0.000 C 
ATOM     24  O   UNL     1       8.379   7.234  16.410  0.00  0.00    +0.000 OA
ATOM     25  O   UNL     1       6.874   8.651  17.839  0.00  0.00    +0.000 OA
ENDBRANCH   2  22
TORSDOF 3
ENDMDL
MODEL 3
REMARK VINA RESULT:      -6.9      1.432      2.022
REMARK  Name = 
REMARK  5 active torsions:
REMARK  status: ('A' for Active; 'I' for Inactive)
REMARK    1  A    between atoms: C_1  and  C_2
REMARK    2  A    between atoms: C_4  and  C_5
REMARK    3  A    between atoms: C_6  and  C_7
REMARK    4  A    between atoms: C_6  and  S_16
REMARK    5  A    between atoms: S_16  and  C_17
REMARK                            x       y       z     vdW  Elec       q    Type
REMARK                         _______ _______ _______ _____ _____    ______ ____
ROOT
ATOM      1  C   UNL     1       3.856   3.539  19.307  0.00  0.00    +0.000 C 
ATOM      2  C   UNL     1       2.950   4.260  20.000  0.00  0.00    +0.000 C 
ENDROOT
BRANCH   2   3
ATOM      3  C   UNL     1       2.672   5.627  19.711  0.00  0.00    +0.000 A 
ATOM      4  N   UNL     1       2.734   6.285  18.571  0.00  0.00    +0.000 NA
ATOM      5  C   UNL     1       2.172   7.515  18.807  0.00  0.00    +0.000 A 
ATOM      6  C   UNL     1       1.914   8.567  17.918  0.00  0.00    +0.000 A 
ATOM      7  C   UNL     1       1.247   9.700  18.399  0.00  0.00    +0.000 A 
ATOM      8  C   UNL     1       0.872   9.794  19.742  0.00  0.00    +0.000 A 
ATOM      9  C   UNL     1       1.160   8.770  20.653  0.00  0.00    +0.000 A 
ATOM     10  C   UNL     1       1.803   7.641  20.139  0.00  0.00    +0.000 A 
ATOM     11  N   UNL     1       2.198   6.457  20.710  0.00  0.00    +0.000 N 
ATOM     12  H   UNL     1       2.109   6.209  21.689  0.00  0.00    +0.000 HD
ENDBRANCH   2   3
BRANCH   1  16
ATOM     13  C   UNL     1       7.763   6.276  17.803  0.00  0.00    +0.000 C 
ATOM     14  C   UNL     1       6.664   5.302  17.478  0.00  0.00    +0.000 A 
ATOM     15  C   UNL     1       5.824   4.823  18.502  0.00  0.00    +0.000 A 
ATOM     16  C   UNL     1       4.701   4.034  18.206  0.00  0.00    +0.000 A 
ATOM     17  C   UNL     1       4.408   3.752  16.863  0.00  0.00    +0.000 A 
ATOM     18 CL   UNL     1       2.935   2.965  16.403  0.00  0.00    +0.000 Cl
ATOM     19  C   UNL     1       5.282   4.144  15.848  0.00  0.00    +0.000 A 
ATOM     20  C   UNL     1       6.415   4.896  16.159  0.00  0.00    +0.000 A 
ATOM     21 CL   UNL     1       7.477   5.326  14.865  0.00  0.00    +0.000 Cl
ENDBRANCH   1  16
BRANCH   2  22
ATOM     22  S   UNL     1       2.145   3.468  21.340  0.00  0.00    +0.000 S 
ATOM     23  C   UNL     1       3.067   1.953  21.483  0.00  0.00    +0.000 C 
ATOM     24  O   UNL     1       2.375   4.237  22.557  0.00  0.00    +0.000 OA
ATOM     25  O   UNL     1       0.785   3.110  20.971  0.00  0.00    +0.000 OA
ENDBRANCH   2  22
TORSDOF 3
ENDMDL
MODEL 4
REMARK VINA RESULT:      -6.7      6.183      8.705
REMARK  Name = 
REMARK  5 active torsions:
REMARK  status: ('A' for Active; 'I' for Inactive)
REMARK    1  A    between atoms: C_1  and  C_2
REMARK    2  A    between atoms: C_4  and  C_5
REMARK    3  A    between atoms: C_6  and  C_7
REMARK    4  A    between atoms: C_6  and  S_16
REMARK    5  A    between atoms: S_16  and  C_17
REMARK                            x       y       z     vdW  Elec       q    Type
REMARK                         _______ _______ _______ _____ _____    ______ ____
ROOT
ATOM      1  C   UNL     1       0.963  12.125  20.407  0.00  0.00    +0.000 C 
ATOM      2  C   UNL     1      -0.006  12.850  19.809  0.00  0.00    +0.000 C 
ENDROOT
BRANCH   2   3
ATOM      3  C   UNL     1      -1.110  12.252  19.136  0.00  0.00    +0.000 A 
ATOM      4  N   UNL     1      -2.342  12.035  19.549  0.00  0.00    +0.000 NA
ATOM      5  C   UNL     1      -3.048  11.621  18.447  0.00  0.00    +0.000 A 
ATOM      6  C   UNL     1      -4.414  11.337  18.315  0.00  0.00    +0.000 A 
ATOM      7  C   UNL     1      -4.909  11.010  17.046  0.00  0.00    +0.000 A 
ATOM      8  C   UNL     1      -4.056  10.940  15.942  0.00  0.00    +0.000 A 
ATOM      9  C   UNL     1      -2.682  11.179  16.065  0.00  0.00    +0.000 A 
ATOM     10  C   UNL     1      -2.221  11.528  17.337  0.00  0.00    +0.000 A 
ATOM     11  N   UNL     1      -0.979  11.862  17.816  0.00  0.00    +0.000 N 
ATOM     12  H   UNL     1      -0.118  11.874  17.281  0.00  0.00    +0.000 HD
ENDBRANCH   2   3
BRANCH   1  16
ATOM     13  C   UNL     1       2.256   7.880  18.101  0.00  0.00    +0.000 C 
ATOM     14  C   UNL     1       1.770   8.584  19.338  0.00  0.00    +0.000 A 
ATOM     15  C   UNL     1       1.648   9.987  19.346  0.00  0.00    +0.000 A 
ATOM     16  C   UNL     1       1.057  10.655  20.430  0.00  0.00    +0.000 A 
ATOM     17  C   UNL     1       0.559   9.897  21.500  0.00  0.00    +0.000 A 
ATOM     18 CL   UNL     1      -0.365  10.624  22.772  0.00  0.00    +0.000 Cl
ATOM     19  C   UNL     1       0.754   8.516  21.545  0.00  0.00    +0.000 A 
ATOM     20  C   UNL     1       1.378   7.868  20.478  0.00  0.00    +0.000 A 
ATOM     21 CL   UNL     1       1.622   6.161  20.603  0.00  0.00    +0.000 Cl
ENDBRANCH   1  16
BRANCH   2  22
ATOM     22  S   UNL     1       0.164  14.595  19.832  0.00  0.00    +0.000 S 
ATOM     23  C   UNL     1      -1.036  15.067  21.057  0.00  0.00    +0.000 C 
ATOM     24  O   UNL     1       1.481  14.938  20.354  0.00  0.00    +0.000 OA
ATOM     25  O   UNL     1      -0.269  15.160  18.565  0.00  0.00    +0.000 OA
ENDBRANCH   2  22
TORSDOF 3
ENDMDL
MODEL 5
REMARK VINA RESULT:      -6.6      6.398      8.721
REMARK  Name = 
REMARK  5 active torsions:
REMARK  status: ('A' for Active; 'I' for Inactive)
REMARK    1  A    between atoms: C_1  and  C_2
REMARK    2  A    between atoms: C_4  and  C_5
REMARK    3  A    between atoms: C_6  and  C_7
REMARK    4  A    between atoms: C_6  and  S_16
REMARK    5  A    between atoms: S_16  and  C_17
REMARK                            x       y       z     vdW  Elec       q    Type
REMARK                         _______ _______ _______ _____ _____    ______ ____
ROOT
ATOM      1  C   UNL     1       1.314  11.702  20.931  0.00  0.00    +0.000 C 
ATOM      2  C   UNL     1       0.525  10.670  20.567  0.00  0.00    +0.000 C 
ENDROOT
BRANCH   2   3
ATOM      3  C   UNL     1      -0.414  10.758  19.500  0.00  0.00    +0.000 A 
ATOM      4  N   UNL     1      -0.391  10.215  18.300  0.00  0.00    +0.000 NA
ATOM      5  C   UNL     1      -1.626  10.452  17.748  0.00  0.00    +0.000 A 
ATOM      6  C   UNL     1      -2.157  10.022  16.525  0.00  0.00    +0.000 A 
ATOM      7  C   UNL     1      -3.489  10.334  16.227  0.00  0.00    +0.000 A 
ATOM      8  C   UNL     1      -4.265  11.081  17.117  0.00  0.00    +0.000 A 
ATOM      9  C   UNL     1      -3.737  11.555  18.325  0.00  0.00    +0.000 A 
ATOM     10  C   UNL     1      -2.412  11.207  18.606  0.00  0.00    +0.000 A 
ATOM     11  N   UNL     1      -1.596  11.452  19.681  0.00  0.00    +0.000 N 
ATOM     12  H   UNL     1      -1.836  12.004  20.497  0.00  0.00    +0.000 HD
ENDBRANCH   2   3
BRANCH   1  16
ATOM     13  C   UNL     1       3.304  14.959  17.699  0.00  0.00    +0.000 C 
ATOM     14  C   UNL     1       2.228  14.615  18.692  0.00  0.00    +0.000 A 
ATOM     15  C   UNL     1       2.210  13.343  19.297  0.00  0.00    +0.000 A 
ATOM     16  C   UNL     1       1.311  13.049  20.335  0.00  0.00    +0.000 A 
ATOM     17  C   UNL     1       0.445  14.057  20.784  0.00  0.00    +0.000 A 
ATOM     18 CL   UNL     1      -0.545  13.840  22.189  0.00  0.00    +0.000 Cl
ATOM     19  C   UNL     1       0.390  15.290  20.133  0.00  0.00    +0.000 A 
ATOM     20  C   UNL     1       1.263  15.557  19.077  0.00  0.00    +0.000 A 
ATOM     21 CL   UNL     1       1.129  17.089  18.289  0.00  0.00    +0.000 Cl
ENDBRANCH   1  16
BRANCH   2  22
ATOM     22  S   UNL     1       0.645   9.194  21.506  0.00  0.00    +0.000 S 
ATOM     23  C   UNL     1       1.628   8.159  20.445  0.00  0.00    +0.000 C 
ATOM     24  O   UNL     1       1.427   9.456  22.708  0.00  0.00    +0.000 OA
ATOM     25  O   UNL     1      -0.661   8.567  21.630  0.00  0.00    +0.000 OA
ENDBRANCH   2  22
TORSDOF 3
ENDMDL
MODEL 6
REMARK VINA RESULT:      -6.6      5.496      8.650
REMARK  Name = 
REMARK  5 active torsions:
REMARK  status: ('A' for Active; 'I' for Inactive)
REMARK    1  A    between atoms: C_1  and  C_2
REMARK    2  A    between atoms: C_4  and  C_5
REMARK    3  A    between atoms: C_6  and  C_7
REMARK    4  A    between atoms: C_6  and  S_16
REMARK    5  A    between atoms: S_16  and  C_17
REMARK                            x       y       z     vdW  Elec       q    Type
REMARK                         _______ _______ _______ _____ _____    ______ ____
ROOT
ATOM      1  C   UNL     1      -0.515  12.752  18.787  0.00  0.00    +0.000 C 
ATOM      2  C   UNL     1      -0.748  11.449  18.527  0.00  0.00    +0.000 C 
ENDROOT
BRANCH   2   3
ATOM      3  C   UNL     1       0.212  10.429  18.788  0.00  0.00    +0.000 A 
ATOM      4  N   UNL     1       0.401   9.695  19.866  0.00  0.00    +0.000 NA
ATOM      5  C   UNL     1       1.317   8.733  19.519  0.00  0.00    +0.000 A 
ATOM      6  C   UNL     1       1.807   7.653  20.264  0.00  0.00    +0.000 A 
ATOM      7  C   UNL     1       2.685   6.756  19.645  0.00  0.00    +0.000 A 
ATOM      8  C   UNL     1       3.089   6.949  18.321  0.00  0.00    +0.000 A 
ATOM      9  C   UNL     1       2.642   8.047  17.575  0.00  0.00    +0.000 A 
ATOM     10  C   UNL     1       1.746   8.911  18.211  0.00  0.00    +0.000 A 
ATOM     11  N   UNL     1       1.086  10.038  17.791  0.00  0.00    +0.000 N 
ATOM     12  H   UNL     1       1.181  10.480  16.884  0.00  0.00    +0.000 HD
ENDBRANCH   2   3
BRANCH   1  16
ATOM     13  C   UNL     1       4.092  14.519  17.969  0.00  0.00    +0.000 C 
ATOM     14  C   UNL     1       2.953  14.266  18.918  0.00  0.00    +0.000 A 
ATOM     15  C   UNL     1       1.752  13.706  18.442  0.00  0.00    +0.000 A 
ATOM     16  C   UNL     1       0.732  13.321  19.327  0.00  0.00    +0.000 A 
ATOM     17  C   UNL     1       0.940  13.476  20.705  0.00  0.00    +0.000 A 
ATOM     18 CL   UNL     1      -0.176  12.838  21.867  0.00  0.00    +0.000 Cl
ATOM     19  C   UNL     1       2.086  14.112  21.184  0.00  0.00    +0.000 A 
ATOM     20  C   UNL     1       3.076  14.525  20.292  0.00  0.00    +0.000 A 
ATOM     21 CL   UNL     1       4.458  15.336  20.939  0.00  0.00    +0.000 Cl
ENDBRANCH   1  16
BRANCH   2  22
ATOM     22  S   UNL     1      -2.282  11.037  17.784  0.00  0.00    +0.000 S 
ATOM     23  C   UNL     1      -3.437  11.922  18.806  0.00  0.00    +0.000 C 
ATOM     24  O   UNL     1      -2.338  11.623  16.451  0.00  0.00    +0.000 OA
ATOM     25  O   UNL     1      -2.558   9.619  17.951  0.00  0.00    +0.000 OA
ENDBRANCH   2  22
TORSDOF 3
ENDMDL
MODEL 7
REMARK VINA RESULT:      -6.6      7.485      9.127
REMARK  Name = 
REMARK  5 active torsions:
REMARK  status: ('A' for Active; 'I' for Inactive)
REMARK    1  A    between atoms: C_1  and  C_2
REMARK    2  A    between atoms: C_4  and  C_5
REMARK    3  A    between atoms: C_6  and  C_7
REMARK    4  A    between atoms: C_6  and  S_16
REMARK    5  A    between atoms: S_16  and  C_17
REMARK                            x       y       z     vdW  Elec       q    Type
REMARK                         _______ _______ _______ _____ _____    ______ ____
ROOT
ATOM      1  C   UNL     1       1.080  12.151  20.884  0.00  0.00    +0.000 C 
ATOM      2  C   UNL     1       0.227  11.132  20.648  0.00  0.00    +0.000 C 
ENDROOT
BRANCH   2   3
ATOM      3  C   UNL     1      -0.672  11.122  19.543  0.00  0.00    +0.000 A 
ATOM      4  N   UNL     1      -0.572  10.529  18.371  0.00  0.00    +0.000 NA
ATOM      5  C   UNL     1      -1.794  10.673  17.762  0.00  0.00    +0.000 A 
ATOM      6  C   UNL     1      -2.252  10.162  16.541  0.00  0.00    +0.000 A 
ATOM      7  C   UNL     1      -3.586  10.387  16.179  0.00  0.00    +0.000 A 
ATOM      8  C   UNL     1      -4.435  11.130  17.004  0.00  0.00    +0.000 A 
ATOM      9  C   UNL     1      -3.981  11.684  18.207  0.00  0.00    +0.000 A 
ATOM     10  C   UNL     1      -2.653  11.422  18.554  0.00  0.00    +0.000 A 
ATOM     11  N   UNL     1      -1.894  11.758  19.647  0.00  0.00    +0.000 N 
ATOM     12  H   UNL     1      -2.196  12.332  20.426  0.00  0.00    +0.000 HD
ENDBRANCH   2   3
BRANCH   1  16
ATOM     13  C   UNL     1      -0.201  16.939  20.215  0.00  0.00    +0.000 C 
ATOM     14  C   UNL     1       0.637  15.755  19.814  0.00  0.00    +0.000 A 
ATOM     15  C   UNL     1       0.540  14.550  20.535  0.00  0.00    +0.000 A 
ATOM     16  C   UNL     1       1.194  13.389  20.093  0.00  0.00    +0.000 A 
ATOM     17  C   UNL     1       1.928  13.440  18.899  0.00  0.00    +0.000 A 
ATOM     18 CL   UNL     1       2.590  12.009  18.180  0.00  0.00    +0.000 Cl
ATOM     19  C   UNL     1       2.106  14.649  18.225  0.00  0.00    +0.000 A 
ATOM     20  C   UNL     1       1.481  15.805  18.695  0.00  0.00    +0.000 A 
ATOM     21 CL   UNL     1       1.763  17.279  17.839  0.00  0.00    +0.000 Cl
ENDBRANCH   1  16
BRANCH   2  22
ATOM     22  S   UNL     1       0.211   9.812  21.801  0.00  0.00    +0.000 S 
ATOM     23  C   UNL     1      -0.877  10.436  23.063  0.00  0.00    +0.000 C 
ATOM     24  O   UNL     1      -0.440   8.657  21.194  0.00  0.00    +0.000 OA
ATOM     25  O   UNL     1       1.524   9.653  22.404  0.00  0.00    +0.000 OA
ENDBRANCH   2  22
TORSDOF 3
ENDMDL
MODEL 8
REMARK VINA RESULT:      -6.6      7.969      9.058
REMARK  Name = 
REMARK  5 active torsions:
REMARK  status: ('A' for Active; 'I' for Inactive)
REMARK    1  A    between atoms: C_1  and  C_2
REMARK    2  A    between atoms: C_4  and  C_5
REMARK    3  A    between atoms: C_6  and  C_7
REMARK    4  A    between atoms: C_6  and  S_16
REMARK    5  A    between atoms: S_16  and  C_17
REMARK                            x       y       z     vdW  Elec       q    Type
REMARK                         _______ _______ _______ _____ _____    ______ ____
ROOT
ATOM      1  C   UNL     1       1.113  12.125  21.087  0.00  0.00    +0.000 C 
ATOM      2  C   UNL     1       0.279  11.104  20.799  0.00  0.00    +0.000 C 
ENDROOT
BRANCH   2   3
ATOM      3  C   UNL     1      -0.611  11.128  19.687  0.00  0.00    +0.000 A 
ATOM      4  N   UNL     1      -0.490  10.595  18.489  0.00  0.00    +0.000 NA
ATOM      5  C   UNL     1      -1.710  10.742  17.878  0.00  0.00    +0.000 A 
ATOM      6  C   UNL     1      -2.148  10.280  16.630  0.00  0.00    +0.000 A 
ATOM      7  C   UNL     1      -3.484  10.493  16.268  0.00  0.00    +0.000 A 
ATOM      8  C   UNL     1      -4.355  11.177  17.121  0.00  0.00    +0.000 A 
ATOM      9  C   UNL     1      -3.923  11.682  18.353  0.00  0.00    +0.000 A 
ATOM     10  C   UNL     1      -2.592  11.432  18.698  0.00  0.00    +0.000 A 
ATOM     11  N   UNL     1      -1.848  11.731  19.812  0.00  0.00    +0.000 N 
ATOM     12  H   UNL     1      -2.168  12.260  20.616  0.00  0.00    +0.000 HD
ENDBRANCH   2   3
BRANCH   1  16
ATOM     13  C   UNL     1       3.506  14.960  17.732  0.00  0.00    +0.000 C 
ATOM     14  C   UNL     1       2.331  14.753  18.649  0.00  0.00    +0.000 A 
ATOM     15  C   UNL     1       2.213  13.556  19.381  0.00  0.00    +0.000 A 
ATOM     16  C   UNL     1       1.212  13.399  20.353  0.00  0.00    +0.000 A 
ATOM     17  C   UNL     1       0.343  14.470  20.607  0.00  0.00    +0.000 A 
ATOM     18 CL   UNL     1      -0.780  14.433  21.925  0.00  0.00    +0.000 Cl
ATOM     19  C   UNL     1       0.392  15.626  19.826  0.00  0.00    +0.000 A 
ATOM     20  C   UNL     1       1.367  15.755  18.837  0.00  0.00    +0.000 A 
ATOM     21 CL   UNL     1       1.360  17.194  17.880  0.00  0.00    +0.000 Cl
ENDBRANCH   1  16
BRANCH   2  22
ATOM     22  S   UNL     1       0.277   9.734  21.892  0.00  0.00    +0.000 S 
ATOM     23  C   UNL     1      -0.854  10.271  23.157  0.00  0.00    +0.000 C 
ATOM     24  O   UNL     1      -0.328   8.590  21.221  0.00  0.00    +0.000 OA
ATOM     25  O   UNL     1       1.581   9.584  22.517  0.00  0.00    +0.000 OA
ENDBRANCH   2  22
TORSDOF 3
ENDMDL
MODEL 9
REMARK VINA RESULT:      -6.6      5.726      8.932
REMARK  Name = 
REMARK  5 active torsions:
REMARK  status: ('A' for Active; 'I' for Inactive)
REMARK    1  A    between atoms: C_1  and  C_2
REMARK    2  A    between atoms: C_4  and  C_5
REMARK    3  A    between atoms: C_6  and  C_7
REMARK    4  A    between atoms: C_6  and  S_16
REMARK    5  A    between atoms: S_16  and  C_17
REMARK                            x       y       z     vdW  Elec       q    Type
REMARK                         _______ _______ _______ _____ _____    ______ ____
ROOT
ATOM      1  C   UNL     1      -1.197  12.765  18.941  0.00  0.00    +0.000 C 
ATOM      2  C   UNL     1      -1.315  11.450  18.664  0.00  0.00    +0.000 C 
ENDROOT
BRANCH   2   3
ATOM      3  C   UNL     1      -0.262  10.518  18.895  0.00  0.00    +0.000 A 
ATOM      4  N   UNL     1       0.039   9.825  19.974  0.00  0.00    +0.000 NA
ATOM      5  C   UNL     1       1.014   8.935  19.599  0.00  0.00    +0.000 A 
ATOM      6  C   UNL     1       1.626   7.914  20.338  0.00  0.00    +0.000 A 
ATOM      7  C   UNL     1       2.546   7.079  19.692  0.00  0.00    +0.000 A 
ATOM      8  C   UNL     1       2.868   7.276  18.346  0.00  0.00    +0.000 A 
ATOM      9  C   UNL     1       2.296   8.318  17.605  0.00  0.00    +0.000 A 
ATOM     10  C   UNL     1       1.364   9.119  18.269  0.00  0.00    +0.000 A 
ATOM     11  N   UNL     1       0.593  10.179  17.863  0.00  0.00    +0.000 N 
ATOM     12  H   UNL     1       0.607  10.608  16.945  0.00  0.00    +0.000 HD
ENDBRANCH   2   3
BRANCH   1  16
ATOM     13  C   UNL     1       3.152  15.077  18.076  0.00  0.00    +0.000 C 
ATOM     14  C   UNL     1       2.087  14.645  19.046  0.00  0.00    +0.000 A 
ATOM     15  C   UNL     1       0.936  13.983  18.577  0.00  0.00    +0.000 A 
ATOM     16  C   UNL     1       0.002  13.437  19.471  0.00  0.00    +0.000 A 
ATOM     17  C   UNL     1       0.248  13.535  20.849  0.00  0.00    +0.000 A 
ATOM     18 CL   UNL     1      -0.744  12.712  22.007  0.00  0.00    +0.000 Cl
ATOM     19  C   UNL     1       1.336  14.266  21.327  0.00  0.00    +0.000 A 
ATOM     20  C   UNL     1       2.237  14.837  20.427  0.00  0.00    +0.000 A 
ATOM     21 CL   UNL     1       3.549  15.758  21.075  0.00  0.00    +0.000 Cl
ENDBRANCH   1  16
BRANCH   2  22
ATOM     22  S   UNL     1      -2.816  10.911  17.937  0.00  0.00    +0.000 S 
ATOM     23  C   UNL     1      -2.546  11.273  16.217  0.00  0.00    +0.000 C 
ATOM     24  O   UNL     1      -2.917   9.463  18.069  0.00  0.00    +0.000 OA
ATOM     25  O   UNL     1      -3.920  11.745  18.383  0.00  0.00    +0.000 OA
ENDBRANCH   2  22
TORSDOF 3
ENDMDL
