MODEL 1
REMARK VINA RESULT:      -6.6      0.000      0.000
REMARK  Name = 
REMARK  2 active torsions:
REMARK  status: ('A' for Active; 'I' for Inactive)
REMARK    1  A    between atoms: C_4  and  O_5
REMARK    2  A    between atoms: C_8  and  C_9
REMARK                            x       y       z     vdW  Elec       q    Type
REMARK                         _______ _______ _______ _____ _____    ______ ____
ROOT
ATOM      1  N   UNL     1       7.802   5.510  19.817  0.00  0.00    +0.000 N 
ATOM      2  C   UNL     1       7.156   5.163  18.653  0.00  0.00    +0.000 A 
ATOM      3  N   UNL     1       7.800   5.383  17.512  0.00  0.00    +0.000 NA
ATOM      4  C   UNL     1       7.103   5.114  16.404  0.00  0.00    +0.000 A 
ATOM      5  C   UNL     1       5.812   4.627  16.356  0.00  0.00    +0.000 A 
ATOM      6 BR   UNL     1       4.929   4.485  14.687  0.00  0.00    +0.000 Br
ATOM      7  C   UNL     1       5.251   4.355  17.599  0.00  0.00    +0.000 A 
ATOM      8  N   UNL     1       5.934   4.630  18.748  0.00  0.00    +0.000 NA
ATOM      9  H   UNL     1       8.802   5.538  19.687  0.00  0.00    +0.000 HD
ATOM     10  H   UNL     1       7.442   4.990  20.605  0.00  0.00    +0.000 HD
ENDROOT
BRANCH   7  11
ATOM     11  C   UNL     1       3.899   3.791  17.836  0.00  0.00    +0.000 A 
ATOM     12  C   UNL     1       3.668   2.435  18.106  0.00  0.00    +0.000 A 
ATOM     13  C   UNL     1       2.367   1.969  18.234  0.00  0.00    +0.000 A 
ATOM     14  N   UNL     1       1.279   2.760  18.175  0.00  0.00    +0.000 NA
ATOM     15  C   UNL     1       1.505   4.075  17.991  0.00  0.00    +0.000 A 
ATOM     16  C   UNL     1       2.768   4.624  17.818  0.00  0.00    +0.000 A 
ENDBRANCH   7  11
BRANCH   4  17
ATOM     17  O   UNL     1       7.805   5.385  15.269  0.00  0.00    +0.000 OA
ATOM     18  H   UNL     1       7.829   6.357  15.295  0.00  0.00    +0.000 HD
ENDBRANCH   4  17
TORSDOF 2
ENDMDL
MODEL 2
REMARK VINA RESULT:      -6.6      1.446      1.465
REMARK  Name = 
REMARK  2 active torsions:
REMARK  status: ('A' for Active; 'I' for Inactive)
REMARK    1  A    between atoms: C_4  and  O_5
REMARK    2  A    between atoms: C_8  and  C_9
REMARK                            x       y       z     vdW  Elec       q    Type
REMARK                         _______ _______ _______ _____ _____    ______ ____
ROOT
ATOM      1  N   UNL     1       8.154   5.279  20.613  0.00  0.00    +0.000 N 
ATOM      2  C   UNL     1       7.430   5.551  19.476  0.00  0.00    +0.000 A 
ATOM      3  N   UNL     1       7.943   6.432  18.625  0.00  0.00    +0.000 NA
ATOM      4  C   UNL     1       7.166   6.733  17.579  0.00  0.00    +0.000 A 
ATOM      5  C   UNL     1       5.919   6.203  17.317  0.00  0.00    +0.000 A 
ATOM      6 BR   UNL     1       4.894   6.892  15.881  0.00  0.00    +0.000 Br
ATOM      7  C   UNL     1       5.503   5.231  18.221  0.00  0.00    +0.000 A 
ATOM      8  N   UNL     1       6.268   4.913  19.305  0.00  0.00    +0.000 NA
ATOM      9  H   UNL     1       9.133   5.491  20.484  0.00  0.00    +0.000 HD
ATOM     10  H   UNL     1       7.914   4.375  20.994  0.00  0.00    +0.000 HD
ENDROOT
BRANCH   7  11
ATOM     11  C   UNL     1       4.228   4.475  18.156  0.00  0.00    +0.000 A 
ATOM     12  C   UNL     1       4.138   3.159  17.678  0.00  0.00    +0.000 A 
ATOM     13  C   UNL     1       2.896   2.548  17.571  0.00  0.00    +0.000 A 
ATOM     14  N   UNL     1       1.742   3.123  17.958  0.00  0.00    +0.000 NA
ATOM     15  C   UNL     1       1.837   4.358  18.485  0.00  0.00    +0.000 A 
ATOM     16  C   UNL     1       3.030   5.059  18.601  0.00  0.00    +0.000 A 
ENDBRANCH   7  11
BRANCH   4  17
ATOM     17  O   UNL     1       7.733   7.660  16.759  0.00  0.00    +0.000 OA
ATOM     18  H   UNL     1       7.908   8.381  17.389  0.00  0.00    +0.000 HD
ENDBRANCH   4  17
TORSDOF 2
ENDMDL
MODEL 3
REMARK VINA RESULT:      -6.6      1.598      1.870
REMARK  Name = 
REMARK  2 active torsions:
REMARK  status: ('A' for Active; 'I' for Inactive)
REMARK    1  A    between atoms: C_4  and  O_5
REMARK    2  A    between atoms: C_8  and  C_9
REMARK                            x       y       z     vdW  Elec       q    Type
REMARK                         _______ _______ _______ _____ _____    ______ ____
ROOT
ATOM      1  N   UNL     1       8.403   5.239  20.651  0.00  0.00    +0.000 N 
ATOM      2  C   UNL     1       7.588   5.514  19.578  0.00  0.00    +0.000 A 
ATOM      3  N   UNL     1       8.030   6.397  18.690  0.00  0.00    +0.000 NA
ATOM      4  C   UNL     1       7.171   6.700  17.712  0.00  0.00    +0.000 A 
ATOM      5  C   UNL     1       5.907   6.171  17.551  0.00  0.00    +0.000 A 
ATOM      6 BR   UNL     1       4.768   6.864  16.206  0.00  0.00    +0.000 Br
ATOM      7  C   UNL     1       5.565   5.198  18.484  0.00  0.00    +0.000 A 
ATOM      8  N   UNL     1       6.416   4.877  19.501  0.00  0.00    +0.000 NA
ATOM      9  H   UNL     1       9.368   5.451  20.444  0.00  0.00    +0.000 HD
ATOM     10  H   UNL     1       8.195   4.334  21.049  0.00  0.00    +0.000 HD
ENDROOT
BRANCH   7  11
ATOM     11  C   UNL     1       4.289   4.441  18.521  0.00  0.00    +0.000 A 
ATOM     12  C   UNL     1       3.240   4.746  19.400  0.00  0.00    +0.000 A 
ATOM     13  C   UNL     1       2.111   3.940  19.432  0.00  0.00    +0.000 A 
ATOM     14  N   UNL     1       1.918   2.889  18.614  0.00  0.00    +0.000 NA
ATOM     15  C   UNL     1       2.892   2.640  17.719  0.00  0.00    +0.000 A 
ATOM     16  C   UNL     1       4.070   3.371  17.638  0.00  0.00    +0.000 A 
ENDBRANCH   7  11
BRANCH   4  17
ATOM     17  O   UNL     1       7.669   7.630  16.850  0.00  0.00    +0.000 OA
ATOM     18  H   UNL     1       7.973   8.314  17.472  0.00  0.00    +0.000 HD
ENDBRANCH   4  17
TORSDOF 2
ENDMDL
MODEL 4
REMARK VINA RESULT:      -6.6      0.096      1.208
REMARK  Name = 
REMARK  2 active torsions:
REMARK  status: ('A' for Active; 'I' for Inactive)
REMARK    1  A    between atoms: C_4  and  O_5
REMARK    2  A    between atoms: C_8  and  C_9
REMARK                            x       y       z     vdW  Elec       q    Type
REMARK                         _______ _______ _______ _____ _____    ______ ____
ROOT
ATOM      1  N   UNL     1       7.747   5.499  19.782  0.00  0.00    +0.000 N 
ATOM      2  C   UNL     1       7.120   5.152  18.608  0.00  0.00    +0.000 A 
ATOM      3  N   UNL     1       7.790   5.354  17.479  0.00  0.00    +0.000 NA
ATOM      4  C   UNL     1       7.112   5.086  16.359  0.00  0.00    +0.000 A 
ATOM      5  C   UNL     1       5.816   4.618  16.288  0.00  0.00    +0.000 A 
ATOM      6 BR   UNL     1       4.964   4.476  14.602  0.00  0.00    +0.000 Br
ATOM      7  C   UNL     1       5.225   4.364  17.521  0.00  0.00    +0.000 A 
ATOM      8  N   UNL     1       5.888   4.639  18.682  0.00  0.00    +0.000 NA
ATOM      9  H   UNL     1       8.750   5.511  19.673  0.00  0.00    +0.000 HD
ATOM     10  H   UNL     1       7.364   4.990  20.567  0.00  0.00    +0.000 HD
ENDROOT
BRANCH   7  11
ATOM     11  C   UNL     1       3.860   3.823  17.735  0.00  0.00    +0.000 A 
ATOM     12  C   UNL     1       2.713   4.628  17.787  0.00  0.00    +0.000 A 
ATOM     13  C   UNL     1       1.482   4.055  18.074  0.00  0.00    +0.000 A 
ATOM     14  N   UNL     1       1.293   2.735  18.253  0.00  0.00    +0.000 NA
ATOM     15  C   UNL     1       2.382   1.953  18.130  0.00  0.00    +0.000 A 
ATOM     16  C   UNL     1       3.657   2.440  17.879  0.00  0.00    +0.000 A 
ENDBRANCH   7  11
BRANCH   4  17
ATOM     17  O   UNL     1       7.841   5.338  15.236  0.00  0.00    +0.000 OA
ATOM     18  H   UNL     1       8.649   4.829  15.424  0.00  0.00    +0.000 HD
ENDBRANCH   4  17
TORSDOF 2
ENDMDL
MODEL 5
REMARK VINA RESULT:      -6.5      3.342      5.237
REMARK  Name = 
REMARK  2 active torsions:
REMARK  status: ('A' for Active; 'I' for Inactive)
REMARK    1  A    between atoms: C_4  and  O_5
REMARK    2  A    between atoms: C_8  and  C_9
REMARK                            x       y       z     vdW  Elec       q    Type
REMARK                         _______ _______ _______ _____ _____    ______ ____
ROOT
ATOM      1  N   UNL     1       2.055   7.266  20.659  0.00  0.00    +0.000 N 
ATOM      2  C   UNL     1       2.291   6.045  20.070  0.00  0.00    +0.000 A 
ATOM      3  N   UNL     1       1.408   5.080  20.298  0.00  0.00    +0.000 NA
ATOM      4  C   UNL     1       1.722   3.888  19.781  0.00  0.00    +0.000 A 
ATOM      5  C   UNL     1       2.848   3.597  19.039  0.00  0.00    +0.000 A 
ATOM      6 BR   UNL     1       3.208   1.803  18.549  0.00  0.00    +0.000 Br
ATOM      7  C   UNL     1       3.671   4.689  18.787  0.00  0.00    +0.000 A 
ATOM      8  N   UNL     1       3.384   5.915  19.312  0.00  0.00    +0.000 NA
ATOM      9  H   UNL     1       1.076   7.385  20.877  0.00  0.00    +0.000 HD
ATOM     10  H   UNL     1       2.521   8.011  20.160  0.00  0.00    +0.000 HD
ENDROOT
BRANCH   7  11
ATOM     11  C   UNL     1       4.921   4.668  17.987  0.00  0.00    +0.000 A 
ATOM     12  C   UNL     1       4.943   4.472  16.599  0.00  0.00    +0.000 A 
ATOM     13  C   UNL     1       6.157   4.382  15.934  0.00  0.00    +0.000 A 
ATOM     14  N   UNL     1       7.353   4.532  16.534  0.00  0.00    +0.000 NA
ATOM     15  C   UNL     1       7.330   4.795  17.854  0.00  0.00    +0.000 A 
ATOM     16  C   UNL     1       6.166   4.869  18.606  0.00  0.00    +0.000 A 
ENDBRANCH   7  11
BRANCH   4  17
ATOM     17  O   UNL     1       0.794   2.934  20.071  0.00  0.00    +0.000 OA
ATOM     18  H   UNL     1       0.025   3.486  20.295  0.00  0.00    +0.000 HD
ENDBRANCH   4  17
TORSDOF 2
ENDMDL
MODEL 6
REMARK VINA RESULT:      -6.5      3.327      5.197
REMARK  Name = 
REMARK  2 active torsions:
REMARK  status: ('A' for Active; 'I' for Inactive)
REMARK    1  A    between atoms: C_4  and  O_5
REMARK    2  A    between atoms: C_8  and  C_9
REMARK                            x       y       z     vdW  Elec       q    Type
REMARK                         _______ _______ _______ _____ _____    ______ ____
ROOT
ATOM      1  N   UNL     1       2.105   7.239  20.608  0.00  0.00    +0.000 N 
ATOM      2  C   UNL     1       2.325   6.013  20.024  0.00  0.00    +0.000 A 
ATOM      3  N   UNL     1       1.425   5.064  20.248  0.00  0.00    +0.000 NA
ATOM      4  C   UNL     1       1.722   3.865  19.735  0.00  0.00    +0.000 A 
ATOM      5  C   UNL     1       2.850   3.554  19.003  0.00  0.00    +0.000 A 
ATOM      6 BR   UNL     1       3.183   1.753  18.521  0.00  0.00    +0.000 Br
ATOM      7  C   UNL     1       3.693   4.631  18.756  0.00  0.00    +0.000 A 
ATOM      8  N   UNL     1       3.422   5.863  19.276  0.00  0.00    +0.000 NA
ATOM      9  H   UNL     1       1.127   7.376  20.817  0.00  0.00    +0.000 HD
ATOM     10  H   UNL     1       2.588   7.975  20.111  0.00  0.00    +0.000 HD
ENDROOT
BRANCH   7  11
ATOM     11  C   UNL     1       4.949   4.587  17.966  0.00  0.00    +0.000 A 
ATOM     12  C   UNL     1       6.223   4.702  18.540  0.00  0.00    +0.000 A 
ATOM     13  C   UNL     1       7.346   4.735  17.726  0.00  0.00    +0.000 A 
ATOM     14  N   UNL     1       7.305   4.601  16.387  0.00  0.00    +0.000 NA
ATOM     15  C   UNL     1       6.088   4.416  15.842  0.00  0.00    +0.000 A 
ATOM     16  C   UNL     1       4.908   4.403  16.574  0.00  0.00    +0.000 A 
ENDBRANCH   7  11
BRANCH   4  17
ATOM     17  O   UNL     1       0.776   2.928  20.021  0.00  0.00    +0.000 OA
ATOM     18  H   UNL     1      -0.012   3.488  20.129  0.00  0.00    +0.000 HD
ENDBRANCH   4  17
TORSDOF 2
ENDMDL
MODEL 7
REMARK VINA RESULT:      -6.5      2.216      2.718
REMARK  Name = 
REMARK  2 active torsions:
REMARK  status: ('A' for Active; 'I' for Inactive)
REMARK    1  A    between atoms: C_4  and  O_5
REMARK    2  A    between atoms: C_8  and  C_9
REMARK                            x       y       z     vdW  Elec       q    Type
REMARK                         _______ _______ _______ _____ _____    ______ ____
ROOT
ATOM      1  N   UNL     1       6.378   3.705  13.417  0.00  0.00    +0.000 N 
ATOM      2  C   UNL     1       6.177   4.228  14.673  0.00  0.00    +0.000 A 
ATOM      3  N   UNL     1       7.038   5.148  15.093  0.00  0.00    +0.000 NA
ATOM      4  C   UNL     1       6.858   5.566  16.350  0.00  0.00    +0.000 A 
ATOM      5  C   UNL     1       5.868   5.138  17.212  0.00  0.00    +0.000 A 
ATOM      6 BR   UNL     1       5.889   5.712  19.017  0.00  0.00    +0.000 Br
ATOM      7  C   UNL     1       4.969   4.234  16.656  0.00  0.00    +0.000 A 
ATOM      8  N   UNL     1       5.135   3.781  15.380  0.00  0.00    +0.000 NA
ATOM      9  H   UNL     1       6.915   4.334  12.839  0.00  0.00    +0.000 HD
ATOM     10  H   UNL     1       5.523   3.327  13.035  0.00  0.00    +0.000 HD
ENDROOT
BRANCH   7  11
ATOM     11  C   UNL     1       3.793   3.646  17.344  0.00  0.00    +0.000 A 
ATOM     12  C   UNL     1       3.785   2.349  17.879  0.00  0.00    +0.000 A 
ATOM     13  C   UNL     1       2.619   1.840  18.434  0.00  0.00    +0.000 A 
ATOM     14  N   UNL     1       1.477   2.543  18.552  0.00  0.00    +0.000 NA
ATOM     15  C   UNL     1       1.507   3.812  18.105  0.00  0.00    +0.000 A 
ATOM     16  C   UNL     1       2.615   4.394  17.506  0.00  0.00    +0.000 A 
ENDBRANCH   7  11
BRANCH   4  17
ATOM     17  O   UNL     1       7.786   6.486  16.731  0.00  0.00    +0.000 OA
ATOM     18  H   UNL     1       7.625   7.191  16.080  0.00  0.00    +0.000 HD
ENDBRANCH   4  17
TORSDOF 2
ENDMDL
MODEL 8
REMARK VINA RESULT:      -6.4      2.182      2.940
REMARK  Name = 
REMARK  2 active torsions:
REMARK  status: ('A' for Active; 'I' for Inactive)
REMARK    1  A    between atoms: C_4  and  O_5
REMARK    2  A    between atoms: C_8  and  C_9
REMARK                            x       y       z     vdW  Elec       q    Type
REMARK                         _______ _______ _______ _____ _____    ______ ____
ROOT
ATOM      1  N   UNL     1       6.433   3.739  13.547  0.00  0.00    +0.000 N 
ATOM      2  C   UNL     1       6.213   4.220  14.817  0.00  0.00    +0.000 A 
ATOM      3  N   UNL     1       7.103   5.077  15.304  0.00  0.00    +0.000 NA
ATOM      4  C   UNL     1       6.898   5.451  16.572  0.00  0.00    +0.000 A 
ATOM      5  C   UNL     1       5.859   5.039  17.380  0.00  0.00    +0.000 A 
ATOM      6 BR   UNL     1       5.844   5.535  19.208  0.00  0.00    +0.000 Br
ATOM      7  C   UNL     1       4.937   4.205  16.757  0.00  0.00    +0.000 A 
ATOM      8  N   UNL     1       5.126   3.797  15.468  0.00  0.00    +0.000 NA
ATOM      9  H   UNL     1       7.020   4.364  13.014  0.00  0.00    +0.000 HD
ATOM     10  H   UNL     1       5.574   3.421  13.121  0.00  0.00    +0.000 HD
ENDROOT
BRANCH   7  11
ATOM     11  C   UNL     1       3.710   3.648  17.379  0.00  0.00    +0.000 A 
ATOM     12  C   UNL     1       2.520   4.376  17.517  0.00  0.00    +0.000 A 
ATOM     13  C   UNL     1       1.441   3.814  18.185  0.00  0.00    +0.000 A 
ATOM     14  N   UNL     1       1.434   2.560  18.673  0.00  0.00    +0.000 NA
ATOM     15  C   UNL     1       2.551   1.834  18.475  0.00  0.00    +0.000 A 
ATOM     16  C   UNL     1       3.688   2.324  17.849  0.00  0.00    +0.000 A 
ENDBRANCH   7  11
BRANCH   4  17
ATOM     17  O   UNL     1       7.856   6.307  17.023  0.00  0.00    +0.000 OA
ATOM     18  H   UNL     1       7.329   6.886  17.600  0.00  0.00    +0.000 HD
ENDBRANCH   4  17
TORSDOF 2
ENDMDL
MODEL 9
REMARK VINA RESULT:      -6.3      1.588      1.988
REMARK  Name = 
REMARK  2 active torsions:
REMARK  status: ('A' for Active; 'I' for Inactive)
REMARK    1  A    between atoms: C_4  and  O_5
REMARK    2  A    between atoms: C_8  and  C_9
REMARK                            x       y       z     vdW  Elec       q    Type
REMARK                         _______ _______ _______ _____ _____    ______ ____
ROOT
ATOM      1  N   UNL     1       8.506   5.421  20.393  0.00  0.00    +0.000 N 
ATOM      2  C   UNL     1       7.613   5.082  19.403  0.00  0.00    +0.000 A 
ATOM      3  N   UNL     1       8.105   4.874  18.187  0.00  0.00    +0.000 NA
ATOM      4  C   UNL     1       7.195   4.634  17.238  0.00  0.00    +0.000 A 
ATOM      5  C   UNL     1       5.828   4.574  17.422  0.00  0.00    +0.000 A 
ATOM      6 BR   UNL     1       4.690   4.406  15.919  0.00  0.00    +0.000 Br
ATOM      7  C   UNL     1       5.416   4.727  18.742  0.00  0.00    +0.000 A 
ATOM      8  N   UNL     1       6.321   4.985  19.730  0.00  0.00    +0.000 NA
ATOM      9  H   UNL     1       9.440   5.111  20.168  0.00  0.00    +0.000 HD
ATOM     10  H   UNL     1       8.142   5.196  21.309  0.00  0.00    +0.000 HD
ENDROOT
BRANCH   7  11
ATOM     11  C   UNL     1       4.014   4.668  19.225  0.00  0.00    +0.000 A 
ATOM     12  C   UNL     1       3.278   5.805  19.589  0.00  0.00    +0.000 A 
ATOM     13  C   UNL     1       2.000   5.660  20.111  0.00  0.00    +0.000 A 
ATOM     14  N   UNL     1       1.374   4.476  20.243  0.00  0.00    +0.000 NA
ATOM     15  C   UNL     1       2.053   3.391  19.825  0.00  0.00    +0.000 A 
ATOM     16  C   UNL     1       3.346   3.436  19.322  0.00  0.00    +0.000 A 
ENDBRANCH   7  11
BRANCH   4  17
ATOM     17  O   UNL     1       7.757   4.456  16.011  0.00  0.00    +0.000 OA
ATOM     18  H   UNL     1       8.636   4.121  16.258  0.00  0.00    +0.000 HD
ENDBRANCH   4  17
TORSDOF 2
ENDMDL
