MODEL 1
REMARK VINA RESULT:      -6.6      0.000      0.000
REMARK  Name = 
REMARK  4 active torsions:
REMARK  status: ('A' for Active; 'I' for Inactive)
REMARK    1  A    between atoms: C_2  and  C_3
REMARK    2  A    between atoms: C_3  and  N_16
REMARK    3  A    between atoms: N_9  and  C_10
REMARK    4  A    between atoms: C_17  and  C_18
REMARK                            x       y       z     vdW  Elec       q    Type
REMARK                         _______ _______ _______ _____ _____    ______ ____
ROOT
ATOM      1  C   UNL     1      -2.465  12.386  19.908  0.00  0.00    +0.000 C 
ATOM      2  C   UNL     1      -3.359  11.937  18.955  0.00  0.00    +0.000 C 
ATOM      3  S   UNL     1      -2.973  10.701  17.787  0.00  0.00    +0.000 S 
ATOM      4  C   UNL     1      -4.335  11.098  16.699  0.00  0.00    +0.000 C 
ATOM      5  C   UNL     1      -5.263  11.989  17.480  0.00  0.00    +0.000 C 
ATOM      6  O   UNL     1      -6.362  12.271  17.029  0.00  0.00    +0.000 OA
ATOM      7  N   UNL     1      -4.702  12.356  18.723  0.00  0.00    +0.000 N 
ENDROOT
BRANCH   1   8
ATOM      8  N   UNL     1      -1.161  11.804  20.141  0.00  0.00    +0.000 N 
ATOM      9  C   UNL     1       0.079  12.157  19.568  0.00  0.00    +0.000 A 
ATOM     10  N   UNL     1       0.425  11.010  18.956  0.00  0.00    +0.000 NA
ATOM     11  C   UNL     1       0.230  10.099  19.988  0.00  0.00    +0.000 A 
ATOM     12  C   UNL     1       1.005   8.979  20.319  0.00  0.00    +0.000 A 
ATOM     13  C   UNL     1       1.248   8.763  21.679  0.00  0.00    +0.000 A 
ATOM     14  C   UNL     1       0.599   9.538  22.648  0.00  0.00    +0.000 A 
ATOM     15  C   UNL     1      -0.409  10.460  22.302  0.00  0.00    +0.000 A 
ATOM     16  C   UNL     1      -0.643  10.700  20.924  0.00  0.00    +0.000 A 
BRANCH   9  17
ATOM     17  C   UNL     1       1.015  12.859  20.472  0.00  0.00    +0.000 A 
ATOM     18  C   UNL     1       0.732  13.885  21.376  0.00  0.00    +0.000 A 
ATOM     19  C   UNL     1       1.951  14.555  21.656  0.00  0.00    +0.000 A 
ATOM     20  C   UNL     1       2.914  13.900  20.929  0.00  0.00    +0.000 A 
ATOM     21  O   UNL     1       2.372  12.867  20.237  0.00  0.00    +0.000 OA
ENDBRANCH   9  17
ENDBRANCH   1   8
BRANCH   7  22
ATOM     22  C   UNL     1      -5.699  12.755  19.683  0.00  0.00    +0.000 A 
ATOM     23  C   UNL     1      -6.276  11.798  20.529  0.00  0.00    +0.000 A 
ATOM     24  C   UNL     1      -7.388  12.121  21.324  0.00  0.00    +0.000 A 
ATOM     25  C   UNL     1      -7.915  13.409  21.299  0.00  0.00    +0.000 A 
ATOM     26  C   UNL     1      -7.345  14.371  20.468  0.00  0.00    +0.000 A 
ATOM     27  C   UNL     1      -6.254  14.044  19.648  0.00  0.00    +0.000 A 
ENDBRANCH   7  22
BRANCH   1  29
ATOM     28  N   UNL     1      -3.764  14.006  21.758  0.00  0.00    +0.000 NA
ATOM     29  C   UNL     1      -3.175  13.271  20.919  0.00  0.00    +0.000 C 
ENDBRANCH   1  29
TORSDOF 4
ENDMDL
MODEL 2
REMARK VINA RESULT:      -6.1      7.076     12.232
REMARK  Name = 
REMARK  4 active torsions:
REMARK  status: ('A' for Active; 'I' for Inactive)
REMARK    1  A    between atoms: C_2  and  C_3
REMARK    2  A    between atoms: C_3  and  N_16
REMARK    3  A    between atoms: N_9  and  C_10
REMARK    4  A    between atoms: C_17  and  C_18
REMARK                            x       y       z     vdW  Elec       q    Type
REMARK                         _______ _______ _______ _____ _____    ______ ____
ROOT
ATOM      1  C   UNL     1       7.148  15.282  18.481  0.00  0.00    +0.000 C 
ATOM      2  C   UNL     1       8.326  15.916  18.824  0.00  0.00    +0.000 C 
ATOM      3  S   UNL     1       8.390  17.342  19.825  0.00  0.00    +0.000 S 
ATOM      4  C   UNL     1      10.053  17.786  19.342  0.00  0.00    +0.000 C 
ATOM      5  C   UNL     1      10.635  16.583  18.650  0.00  0.00    +0.000 C 
ATOM      6  O   UNL     1      11.822  16.556  18.367  0.00  0.00    +0.000 OA
ATOM      7  N   UNL     1       9.661  15.578  18.456  0.00  0.00    +0.000 N 
ENDROOT
BRANCH   1   8
ATOM      8  N   UNL     1       5.848  15.635  19.011  0.00  0.00    +0.000 N 
ATOM      9  C   UNL     1       4.721  16.135  18.326  0.00  0.00    +0.000 A 
ATOM     10  N   UNL     1       4.541  17.319  18.939  0.00  0.00    +0.000 NA
ATOM     11  C   UNL     1       4.581  16.926  20.273  0.00  0.00    +0.000 A 
ATOM     12  C   UNL     1       3.805  17.395  21.341  0.00  0.00    +0.000 A 
ATOM     13  C   UNL     1       3.325  16.434  22.238  0.00  0.00    +0.000 A 
ATOM     14  C   UNL     1       3.752  15.104  22.149  0.00  0.00    +0.000 A 
ATOM     15  C   UNL     1       4.767  14.714  21.253  0.00  0.00    +0.000 A 
ATOM     16  C   UNL     1       5.241  15.677  20.326  0.00  0.00    +0.000 A 
BRANCH   9  17
ATOM     17  C   UNL     1       3.607  15.178  18.160  0.00  0.00    +0.000 A 
ATOM     18  C   UNL     1       2.256  15.372  18.453  0.00  0.00    +0.000 A 
ATOM     19  C   UNL     1       1.662  14.091  18.595  0.00  0.00    +0.000 A 
ATOM     20  C   UNL     1       2.667  13.184  18.366  0.00  0.00    +0.000 A 
ATOM     21  O   UNL     1       3.830  13.821  18.079  0.00  0.00    +0.000 OA
ENDBRANCH   9  17
ENDBRANCH   1   8
BRANCH   7  22
ATOM     22  C   UNL     1      10.243  14.272  18.283  0.00  0.00    +0.000 A 
ATOM     23  C   UNL     1      10.391  13.421  19.387  0.00  0.00    +0.000 A 
ATOM     24  C   UNL     1      11.136  12.235  19.284  0.00  0.00    +0.000 A 
ATOM     25  C   UNL     1      11.718  11.878  18.071  0.00  0.00    +0.000 A 
ATOM     26  C   UNL     1      11.572  12.712  16.964  0.00  0.00    +0.000 A 
ATOM     27  C   UNL     1      10.855  13.913  17.072  0.00  0.00    +0.000 A 
ENDBRANCH   7  22
BRANCH   1  29
ATOM     28  N   UNL     1       7.688  12.837  17.271  0.00  0.00    +0.000 NA
ATOM     29  C   UNL     1       7.443  13.946  17.820  0.00  0.00    +0.000 C 
ENDBRANCH   1  29
TORSDOF 4
ENDMDL
MODEL 3
REMARK VINA RESULT:      -6.0      1.518      1.695
REMARK  Name = 
REMARK  4 active torsions:
REMARK  status: ('A' for Active; 'I' for Inactive)
REMARK    1  A    between atoms: C_2  and  C_3
REMARK    2  A    between atoms: C_3  and  N_16
REMARK    3  A    between atoms: N_9  and  C_10
REMARK    4  A    between atoms: C_17  and  C_18
REMARK                            x       y       z     vdW  Elec       q    Type
REMARK                         _______ _______ _______ _____ _____    ______ ____
ROOT
ATOM      1  C   UNL     1      -2.007  11.802  19.204  0.00  0.00    +0.000 C 
ATOM      2  C   UNL     1      -2.460  11.137  18.082  0.00  0.00    +0.000 C 
ATOM      3  S   UNL     1      -1.565   9.864  17.295  0.00  0.00    +0.000 S 
ATOM      4  C   UNL     1      -2.494   9.951  15.771  0.00  0.00    +0.000 C 
ATOM      5  C   UNL     1      -3.723  10.769  16.063  0.00  0.00    +0.000 C 
ATOM      6  O   UNL     1      -4.618  10.843  15.237  0.00  0.00    +0.000 OA
ATOM      7  N   UNL     1      -3.673  11.332  17.358  0.00  0.00    +0.000 N 
ENDROOT
BRANCH   1   8
ATOM      8  N   UNL     1      -0.813  11.441  19.939  0.00  0.00    +0.000 N 
ATOM      9  C   UNL     1       0.510  11.893  19.751  0.00  0.00    +0.000 A 
ATOM     10  N   UNL     1       1.148  10.740  19.478  0.00  0.00    +0.000 NA
ATOM     11  C   UNL     1       0.696   9.942  20.523  0.00  0.00    +0.000 A 
ATOM     12  C   UNL     1       1.411   8.991  21.264  0.00  0.00    +0.000 A 
ATOM     13  C   UNL     1       1.192   8.977  22.645  0.00  0.00    +0.000 A 
ATOM     14  C   UNL     1       0.183   9.764  23.212  0.00  0.00    +0.000 A 
ATOM     15  C   UNL     1      -0.725  10.487  22.414  0.00  0.00    +0.000 A 
ATOM     16  C   UNL     1      -0.495  10.524  21.015  0.00  0.00    +0.000 A 
BRANCH   9  17
ATOM     17  C   UNL     1       1.012  12.823  20.785  0.00  0.00    +0.000 A 
ATOM     18  C   UNL     1       0.322  13.858  21.419  0.00  0.00    +0.000 A 
ATOM     19  C   UNL     1       1.288  14.753  21.948  0.00  0.00    +0.000 A 
ATOM     20  C   UNL     1       2.511  14.216  21.630  0.00  0.00    +0.000 A 
ATOM     21  O   UNL     1       2.360  13.047  20.957  0.00  0.00    +0.000 OA
ENDBRANCH   9  17
ENDBRANCH   1   8
BRANCH   7  22
ATOM     22  C   UNL     1      -4.977  11.672  17.863  0.00  0.00    +0.000 A 
ATOM     23  C   UNL     1      -5.663  10.773  18.692  0.00  0.00    +0.000 A 
ATOM     24  C   UNL     1      -7.009  10.988  19.028  0.00  0.00    +0.000 A 
ATOM     25  C   UNL     1      -7.674  12.118  18.559  0.00  0.00    +0.000 A 
ATOM     26  C   UNL     1      -7.002  13.024  17.740  0.00  0.00    +0.000 A 
ATOM     27  C   UNL     1      -5.666  12.795  17.377  0.00  0.00    +0.000 A 
ENDBRANCH   7  22
BRANCH   1  29
ATOM     28  N   UNL     1      -4.030  13.386  20.268  0.00  0.00    +0.000 NA
ATOM     29  C   UNL     1      -3.113  12.667  19.785  0.00  0.00    +0.000 C 
ENDBRANCH   1  29
TORSDOF 4
ENDMDL
MODEL 4
REMARK VINA RESULT:      -5.9      2.230      7.524
REMARK  Name = 
REMARK  4 active torsions:
REMARK  status: ('A' for Active; 'I' for Inactive)
REMARK    1  A    between atoms: C_2  and  C_3
REMARK    2  A    between atoms: C_3  and  N_16
REMARK    3  A    between atoms: N_9  and  C_10
REMARK    4  A    between atoms: C_17  and  C_18
REMARK                            x       y       z     vdW  Elec       q    Type
REMARK                         _______ _______ _______ _____ _____    ______ ____
ROOT
ATOM      1  C   UNL     1      -3.309  12.872  20.049  0.00  0.00    +0.000 C 
ATOM      2  C   UNL     1      -2.274  13.148  20.921  0.00  0.00    +0.000 C 
ATOM      3  S   UNL     1      -2.483  14.045  22.402  0.00  0.00    +0.000 S 
ATOM      4  C   UNL     1      -0.743  14.402  22.604  0.00  0.00    +0.000 C 
ATOM      5  C   UNL     1      -0.006  13.495  21.655  0.00  0.00    +0.000 C 
ATOM      6  O   UNL     1       1.211  13.413  21.711  0.00  0.00    +0.000 OA
ATOM      7  N   UNL     1      -0.897  12.794  20.813  0.00  0.00    +0.000 N 
ENDROOT
BRANCH   1   8
ATOM      8  N   UNL     1      -4.700  13.170  20.314  0.00  0.00    +0.000 N 
ATOM      9  C   UNL     1      -5.757  12.279  20.591  0.00  0.00    +0.000 A 
ATOM     10  N   UNL     1      -6.597  12.538  19.573  0.00  0.00    +0.000 NA
ATOM     11  C   UNL     1      -6.659  13.926  19.637  0.00  0.00    +0.000 A 
ATOM     12  C   UNL     1      -7.769  14.759  19.438  0.00  0.00    +0.000 A 
ATOM     13  C   UNL     1      -7.915  15.831  20.325  0.00  0.00    +0.000 A 
ATOM     14  C   UNL     1      -6.905  16.136  21.244  0.00  0.00    +0.000 A 
ATOM     15  C   UNL     1      -5.663  15.470  21.223  0.00  0.00    +0.000 A 
ATOM     16  C   UNL     1      -5.516  14.367  20.343  0.00  0.00    +0.000 A 
BRANCH   9  17
ATOM     17  C   UNL     1      -6.227  12.274  21.993  0.00  0.00    +0.000 A 
ATOM     18  C   UNL     1      -7.523  12.487  22.467  0.00  0.00    +0.000 A 
ATOM     19  C   UNL     1      -7.422  12.861  23.832  0.00  0.00    +0.000 A 
ATOM     20  C   UNL     1      -6.082  12.840  24.128  0.00  0.00    +0.000 A 
ATOM     21  O   UNL     1      -5.357  12.465  23.044  0.00  0.00    +0.000 OA
ENDBRANCH   9  17
ENDBRANCH   1   8
BRANCH   7  22
ATOM     22  C   UNL     1      -0.317  11.592  20.274  0.00  0.00    +0.000 A 
ATOM     23  C   UNL     1      -0.388  10.395  21.000  0.00  0.00    +0.000 A 
ATOM     24  C   UNL     1       0.342   9.265  20.595  0.00  0.00    +0.000 A 
ATOM     25  C   UNL     1       1.129   9.316  19.448  0.00  0.00    +0.000 A 
ATOM     26  C   UNL     1       1.202  10.498  18.714  0.00  0.00    +0.000 A 
ATOM     27  C   UNL     1       0.499  11.638  19.132  0.00  0.00    +0.000 A 
ENDBRANCH   7  22
BRANCH   1  29
ATOM     28  N   UNL     1      -2.482  11.044  18.123  0.00  0.00    +0.000 NA
ATOM     29  C   UNL     1      -2.857  11.873  18.996  0.00  0.00    +0.000 C 
ENDBRANCH   1  29
TORSDOF 4
ENDMDL
MODEL 5
REMARK VINA RESULT:      -5.8      7.581     12.614
REMARK  Name = 
REMARK  4 active torsions:
REMARK  status: ('A' for Active; 'I' for Inactive)
REMARK    1  A    between atoms: C_2  and  C_3
REMARK    2  A    between atoms: C_3  and  N_16
REMARK    3  A    between atoms: N_9  and  C_10
REMARK    4  A    between atoms: C_17  and  C_18
REMARK                            x       y       z     vdW  Elec       q    Type
REMARK                         _______ _______ _______ _____ _____    ______ ____
ROOT
ATOM      1  C   UNL     1       7.696  15.333  18.432  0.00  0.00    +0.000 C 
ATOM      2  C   UNL     1       8.814  16.133  18.306  0.00  0.00    +0.000 C 
ATOM      3  S   UNL     1       8.823  17.835  18.684  0.00  0.00    +0.000 S 
ATOM      4  C   UNL     1      10.332  18.177  17.789  0.00  0.00    +0.000 C 
ATOM      5  C   UNL     1      10.970  16.845  17.499  0.00  0.00    +0.000 C 
ATOM      6  O   UNL     1      12.101  16.797  17.043  0.00  0.00    +0.000 OA
ATOM      7  N   UNL     1      10.122  15.776  17.862  0.00  0.00    +0.000 N 
ENDROOT
BRANCH   1   8
ATOM      8  N   UNL     1       6.444  15.768  19.012  0.00  0.00    +0.000 N 
ATOM      9  C   UNL     1       5.350  16.398  18.383  0.00  0.00    +0.000 A 
ATOM     10  N   UNL     1       5.287  17.559  19.059  0.00  0.00    +0.000 NA
ATOM     11  C   UNL     1       5.322  17.096  20.370  0.00  0.00    +0.000 A 
ATOM     12  C   UNL     1       4.613  17.574  21.481  0.00  0.00    +0.000 A 
ATOM     13  C   UNL     1       4.072  16.612  22.341  0.00  0.00    +0.000 A 
ATOM     14  C   UNL     1       4.380  15.257  22.175  0.00  0.00    +0.000 A 
ATOM     15  C   UNL     1       5.337  14.828  21.234  0.00  0.00    +0.000 A 
ATOM     16  C   UNL     1       5.872  15.794  20.344  0.00  0.00    +0.000 A 
BRANCH   9  17
ATOM     17  C   UNL     1       4.153  15.549  18.200  0.00  0.00    +0.000 A 
ATOM     18  C   UNL     1       2.826  15.856  18.505  0.00  0.00    +0.000 A 
ATOM     19  C   UNL     1       2.120  14.631  18.618  0.00  0.00    +0.000 A 
ATOM     20  C   UNL     1       3.038  13.643  18.360  0.00  0.00    +0.000 A 
ATOM     21  O   UNL     1       4.253  14.180  18.082  0.00  0.00    +0.000 OA
ENDBRANCH   9  17
ENDBRANCH   1   8
BRANCH   7  22
ATOM     22  C   UNL     1      10.843  14.550  18.083  0.00  0.00    +0.000 A 
ATOM     23  C   UNL     1      11.079  13.674  17.013  0.00  0.00    +0.000 A 
ATOM     24  C   UNL     1      11.594  12.388  17.237  0.00  0.00    +0.000 A 
ATOM     25  C   UNL     1      11.902  11.974  18.531  0.00  0.00    +0.000 A 
ATOM     26  C   UNL     1      11.679  12.837  19.602  0.00  0.00    +0.000 A 
ATOM     27  C   UNL     1      11.135  14.112  19.384  0.00  0.00    +0.000 A 
ENDBRANCH   7  22
BRANCH   1  29
ATOM     28  N   UNL     1       8.388  12.656  18.132  0.00  0.00    +0.000 NA
ATOM     29  C   UNL     1       8.074  13.870  18.268  0.00  0.00    +0.000 C 
ENDBRANCH   1  29
TORSDOF 4
ENDMDL
MODEL 6
REMARK VINA RESULT:      -5.8      1.096      1.239
REMARK  Name = 
REMARK  4 active torsions:
REMARK  status: ('A' for Active; 'I' for Inactive)
REMARK    1  A    between atoms: C_2  and  C_3
REMARK    2  A    between atoms: C_3  and  N_16
REMARK    3  A    between atoms: N_9  and  C_10
REMARK    4  A    between atoms: C_17  and  C_18
REMARK                            x       y       z     vdW  Elec       q    Type
REMARK                         _______ _______ _______ _____ _____    ______ ____
ROOT
ATOM      1  C   UNL     1      -2.875  12.878  20.716  0.00  0.00    +0.000 C 
ATOM      2  C   UNL     1      -3.950  12.596  19.896  0.00  0.00    +0.000 C 
ATOM      3  S   UNL     1      -3.856  11.513  18.532  0.00  0.00    +0.000 S 
ATOM      4  C   UNL     1      -5.361  12.105  17.771  0.00  0.00    +0.000 C 
ATOM      5  C   UNL     1      -6.078  12.921  18.813  0.00  0.00    +0.000 C 
ATOM      6  O   UNL     1      -7.219  13.304  18.611  0.00  0.00    +0.000 OA
ATOM      7  N   UNL     1      -5.283  13.096  19.968  0.00  0.00    +0.000 N 
ENDROOT
BRANCH   1   8
ATOM      8  N   UNL     1      -1.590  12.219  20.631  0.00  0.00    +0.000 N 
ATOM      9  C   UNL     1      -0.461  12.579  19.867  0.00  0.00    +0.000 A 
ATOM     10  N   UNL     1      -0.310  11.494  19.087  0.00  0.00    +0.000 NA
ATOM     11  C   UNL     1      -0.364  10.483  20.041  0.00  0.00    +0.000 A 
ATOM     12  C   UNL     1       0.388   9.301  20.100  0.00  0.00    +0.000 A 
ATOM     13  C   UNL     1       0.868   8.926  21.359  0.00  0.00    +0.000 A 
ATOM     14  C   UNL     1       0.464   9.615  22.508  0.00  0.00    +0.000 A 
ATOM     15  C   UNL     1      -0.530  10.612  22.459  0.00  0.00    +0.000 A 
ATOM     16  C   UNL     1      -1.004  11.014  21.184  0.00  0.00    +0.000 A 
BRANCH   9  17
ATOM     17  C   UNL     1       0.672  13.136  20.638  0.00  0.00    +0.000 A 
ATOM     18  C   UNL     1       0.687  14.277  21.442  0.00  0.00    +0.000 A 
ATOM     19  C   UNL     1       2.040  14.684  21.580  0.00  0.00    +0.000 A 
ATOM     20  C   UNL     1       2.781  13.768  20.874  0.00  0.00    +0.000 A 
ATOM     21  O   UNL     1       1.977  12.821  20.327  0.00  0.00    +0.000 OA
ENDBRANCH   9  17
ENDBRANCH   1   8
BRANCH   7  22
ATOM     22  C   UNL     1      -6.067  13.403  21.136  0.00  0.00    +0.000 A 
ATOM     23  C   UNL     1      -6.540  12.366  21.953  0.00  0.00    +0.000 A 
ATOM     24  C   UNL     1      -7.471  12.622  22.972  0.00  0.00    +0.000 A 
ATOM     25  C   UNL     1      -7.917  13.921  23.202  0.00  0.00    +0.000 A 
ATOM     26  C   UNL     1      -7.448  14.962  22.402  0.00  0.00    +0.000 A 
ATOM     27  C   UNL     1      -6.542  14.705  21.361  0.00  0.00    +0.000 A 
ENDBRANCH   7  22
BRANCH   1  29
ATOM     28  N   UNL     1      -3.720  14.287  22.960  0.00  0.00    +0.000 NA
ATOM     29  C   UNL     1      -3.337  13.648  21.942  0.00  0.00    +0.000 C 
ENDBRANCH   1  29
TORSDOF 4
ENDMDL
MODEL 7
REMARK VINA RESULT:      -5.8      2.488      7.334
REMARK  Name = 
REMARK  4 active torsions:
REMARK  status: ('A' for Active; 'I' for Inactive)
REMARK    1  A    between atoms: C_2  and  C_3
REMARK    2  A    between atoms: C_3  and  N_16
REMARK    3  A    between atoms: N_9  and  C_10
REMARK    4  A    between atoms: C_17  and  C_18
REMARK                            x       y       z     vdW  Elec       q    Type
REMARK                         _______ _______ _______ _____ _____    ______ ____
ROOT
ATOM      1  C   UNL     1      -2.239  12.853  20.036  0.00  0.00    +0.000 C 
ATOM      2  C   UNL     1      -1.017  13.122  20.620  0.00  0.00    +0.000 C 
ATOM      3  S   UNL     1      -0.820  14.203  21.974  0.00  0.00    +0.000 S 
ATOM      4  C   UNL     1       0.942  14.401  21.748  0.00  0.00    +0.000 C 
ATOM      5  C   UNL     1       1.377  13.318  20.797  0.00  0.00    +0.000 C 
ATOM      6  O   UNL     1       2.566  13.119  20.602  0.00  0.00    +0.000 OA
ATOM      7  N   UNL     1       0.270  12.619  20.269  0.00  0.00    +0.000 N 
ENDROOT
BRANCH   1   8
ATOM      8  N   UNL     1      -3.509  13.321  20.548  0.00  0.00    +0.000 N 
ATOM      9  C   UNL     1      -4.553  12.577  21.137  0.00  0.00    +0.000 A 
ATOM     10  N   UNL     1      -5.569  12.830  20.293  0.00  0.00    +0.000 NA
ATOM     11  C   UNL     1      -5.497  14.217  20.212  0.00  0.00    +0.000 A 
ATOM     12  C   UNL     1      -6.549  15.141  20.157  0.00  0.00    +0.000 A 
ATOM     13  C   UNL     1      -6.407  16.300  20.929  0.00  0.00    +0.000 A 
ATOM     14  C   UNL     1      -5.199  16.577  21.578  0.00  0.00    +0.000 A 
ATOM     15  C   UNL     1      -4.053  15.784  21.375  0.00  0.00    +0.000 A 
ATOM     16  C   UNL     1      -4.195  14.596  20.612  0.00  0.00    +0.000 A 
BRANCH   9  17
ATOM     17  C   UNL     1      -4.705  12.749  22.598  0.00  0.00    +0.000 A 
ATOM     18  C   UNL     1      -3.726  12.627  23.585  0.00  0.00    +0.000 A 
ATOM     19  C   UNL     1      -4.390  12.403  24.819  0.00  0.00    +0.000 A 
ATOM     20  C   UNL     1      -5.733  12.416  24.530  0.00  0.00    +0.000 A 
ATOM     21  O   UNL     1      -5.936  12.649  23.209  0.00  0.00    +0.000 OA
ENDBRANCH   9  17
ENDBRANCH   1   8
BRANCH   7  22
ATOM     22  C   UNL     1       0.623  11.308  19.788  0.00  0.00    +0.000 A 
ATOM     23  C   UNL     1       0.543  10.203  20.647  0.00  0.00    +0.000 A 
ATOM     24  C   UNL     1       1.073   8.959  20.267  0.00  0.00    +0.000 A 
ATOM     25  C   UNL     1       1.664   8.803  19.017  0.00  0.00    +0.000 A 
ATOM     26  C   UNL     1       1.743   9.892  18.150  0.00  0.00    +0.000 A 
ATOM     27  C   UNL     1       1.243  11.145  18.539  0.00  0.00    +0.000 A 
ENDBRANCH   7  22
BRANCH   1  29
ATOM     28  N   UNL     1      -2.006  10.737  18.246  0.00  0.00    +0.000 NA
ATOM     29  C   UNL     1      -2.112  11.696  19.057  0.00  0.00    +0.000 C 
ENDBRANCH   1  29
TORSDOF 4
ENDMDL
MODEL 8
REMARK VINA RESULT:      -5.8      1.197      2.944
REMARK  Name = 
REMARK  4 active torsions:
REMARK  status: ('A' for Active; 'I' for Inactive)
REMARK    1  A    between atoms: C_2  and  C_3
REMARK    2  A    between atoms: C_3  and  N_16
REMARK    3  A    between atoms: N_9  and  C_10
REMARK    4  A    between atoms: C_17  and  C_18
REMARK                            x       y       z     vdW  Elec       q    Type
REMARK                         _______ _______ _______ _____ _____    ______ ____
ROOT
ATOM      1  C   UNL     1      -2.343  12.988  20.059  0.00  0.00    +0.000 C 
ATOM      2  C   UNL     1      -3.091  12.211  19.197  0.00  0.00    +0.000 C 
ATOM      3  S   UNL     1      -2.411  10.937  18.219  0.00  0.00    +0.000 S 
ATOM      4  C   UNL     1      -3.806  10.847  17.105  0.00  0.00    +0.000 C 
ATOM      5  C   UNL     1      -4.928  11.608  17.759  0.00  0.00    +0.000 C 
ATOM      6  O   UNL     1      -6.052  11.562  17.288  0.00  0.00    +0.000 OA
ATOM      7  N   UNL     1      -4.490  12.273  18.925  0.00  0.00    +0.000 N 
ENDROOT
BRANCH   1   8
ATOM      8  N   UNL     1      -0.945  12.761  20.356  0.00  0.00    +0.000 N 
ATOM      9  C   UNL     1      -0.367  12.204  21.517  0.00  0.00    +0.000 A 
ATOM     10  N   UNL     1       0.406  13.220  21.943  0.00  0.00    +0.000 NA
ATOM     11  C   UNL     1       1.077  13.542  20.768  0.00  0.00    +0.000 A 
ATOM     12  C   UNL     1       2.417  13.919  20.607  0.00  0.00    +0.000 A 
ATOM     13  C   UNL     1       3.100  13.360  19.521  0.00  0.00    +0.000 A 
ATOM     14  C   UNL     1       2.414  12.604  18.564  0.00  0.00    +0.000 A 
ATOM     15  C   UNL     1       1.010  12.489  18.582  0.00  0.00    +0.000 A 
ATOM     16  C   UNL     1       0.314  13.033  19.692  0.00  0.00    +0.000 A 
BRANCH   9  17
ATOM     17  C   UNL     1       0.176  10.838  21.358  0.00  0.00    +0.000 A 
ATOM     18  C   UNL     1      -0.461   9.714  20.830  0.00  0.00    +0.000 A 
ATOM     19  C   UNL     1       0.230   8.569  21.304  0.00  0.00    +0.000 A 
ATOM     20  C   UNL     1       1.258   9.046  22.079  0.00  0.00    +0.000 A 
ATOM     21  O   UNL     1       1.254  10.403  22.098  0.00  0.00    +0.000 OA
ENDBRANCH   9  17
ENDBRANCH   1   8
BRANCH   7  22
ATOM     22  C   UNL     1      -5.569  12.571  19.830  0.00  0.00    +0.000 A 
ATOM     23  C   UNL     1      -5.999  11.603  20.749  0.00  0.00    +0.000 A 
ATOM     24  C   UNL     1      -7.173  11.792  21.495  0.00  0.00    +0.000 A 
ATOM     25  C   UNL     1      -7.915  12.961  21.347  0.00  0.00    +0.000 A 
ATOM     26  C   UNL     1      -7.495  13.934  20.442  0.00  0.00    +0.000 A 
ATOM     27  C   UNL     1      -6.339  13.735  19.672  0.00  0.00    +0.000 A 
ENDBRANCH   7  22
BRANCH   1  29
ATOM     28  N   UNL     1      -4.013  14.523  21.668  0.00  0.00    +0.000 NA
ATOM     29  C   UNL     1      -3.255  13.827  20.939  0.00  0.00    +0.000 C 
ENDBRANCH   1  29
TORSDOF 4
ENDMDL
MODEL 9
REMARK VINA RESULT:      -5.8      2.291      4.207
REMARK  Name = 
REMARK  4 active torsions:
REMARK  status: ('A' for Active; 'I' for Inactive)
REMARK    1  A    between atoms: C_2  and  C_3
REMARK    2  A    between atoms: C_3  and  N_16
REMARK    3  A    between atoms: N_9  and  C_10
REMARK    4  A    between atoms: C_17  and  C_18
REMARK                            x       y       z     vdW  Elec       q    Type
REMARK                         _______ _______ _______ _____ _____    ______ ____
ROOT
ATOM      1  C   UNL     1      -2.301  12.141  20.410  0.00  0.00    +0.000 C 
ATOM      2  C   UNL     1      -2.956  12.650  21.514  0.00  0.00    +0.000 C 
ATOM      3  S   UNL     1      -2.130  13.210  22.944  0.00  0.00    +0.000 S 
ATOM      4  C   UNL     1      -3.586  13.164  23.981  0.00  0.00    +0.000 C 
ATOM      5  C   UNL     1      -4.767  13.028  23.058  0.00  0.00    +0.000 C 
ATOM      6  O   UNL     1      -5.900  13.143  23.496  0.00  0.00    +0.000 OA
ATOM      7  N   UNL     1      -4.357  12.816  21.723  0.00  0.00    +0.000 N 
ENDROOT
BRANCH   1   8
ATOM      8  N   UNL     1      -0.863  12.131  20.248  0.00  0.00    +0.000 N 
ATOM      9  C   UNL     1       0.052  11.097  20.537  0.00  0.00    +0.000 A 
ATOM     10  N   UNL     1       0.838  11.686  21.456  0.00  0.00    +0.000 NA
ATOM     11  C   UNL     1       1.133  12.883  20.813  0.00  0.00    +0.000 A 
ATOM     12  C   UNL     1       2.346  13.586  20.794  0.00  0.00    +0.000 A 
ATOM     13  C   UNL     1       2.738  14.127  19.565  0.00  0.00    +0.000 A 
ATOM     14  C   UNL     1       1.870  14.103  18.468  0.00  0.00    +0.000 A 
ATOM     15  C   UNL     1       0.538  13.661  18.591  0.00  0.00    +0.000 A 
ATOM     16  C   UNL     1       0.140  13.090  19.828  0.00  0.00    +0.000 A 
BRANCH   9  17
ATOM     17  C   UNL     1       0.626  10.415  19.357  0.00  0.00    +0.000 A 
ATOM     18  C   UNL     1      -0.029  10.018  18.190  0.00  0.00    +0.000 A 
ATOM     19  C   UNL     1       0.766   9.015  17.575  0.00  0.00    +0.000 A 
ATOM     20  C   UNL     1       1.867   8.862  18.381  0.00  0.00    +0.000 A 
ATOM     21  O   UNL     1       1.809   9.713  19.437  0.00  0.00    +0.000 OA
ENDBRANCH   9  17
ENDBRANCH   1   8
BRANCH   7  22
ATOM     22  C   UNL     1      -5.372  13.180  20.769  0.00  0.00    +0.000 A 
ATOM     23  C   UNL     1      -5.428  14.491  20.274  0.00  0.00    +0.000 A 
ATOM     24  C   UNL     1      -6.522  14.923  19.508  0.00  0.00    +0.000 A 
ATOM     25  C   UNL     1      -7.557  14.042  19.208  0.00  0.00    +0.000 A 
ATOM     26  C   UNL     1      -7.510  12.734  19.688  0.00  0.00    +0.000 A 
ATOM     27  C   UNL     1      -6.433  12.308  20.481  0.00  0.00    +0.000 A 
ENDBRANCH   7  22
BRANCH   1  29
ATOM     28  N   UNL     1      -4.075  11.845  18.289  0.00  0.00    +0.000 NA
ATOM     29  C   UNL     1      -3.270  11.979  19.251  0.00  0.00    +0.000 C 
ENDBRANCH   1  29
TORSDOF 4
ENDMDL
