MODEL 1
REMARK VINA RESULT:      -9.1      0.000      0.000
REMARK  Name = 
REMARK  5 active torsions:
REMARK  status: ('A' for Active; 'I' for Inactive)
REMARK    1  A    between atoms: N_5  and  C_6
REMARK    2  A    between atoms: C_6  and  C_7
REMARK    3  A    between atoms: N_11  and  C_12
REMARK    4  A    between atoms: C_12  and  C_13
REMARK    5  A    between atoms: C_22  and  C_23
REMARK                            x       y       z     vdW  Elec       q    Type
REMARK                         _______ _______ _______ _____ _____    ______ ____
ROOT
ATOM      1  N   UNL     1       0.860  10.584  17.968  0.00  0.00    +0.000 N 
ATOM      2  C   UNL     1       1.038   9.785  19.068  0.00  0.00    +0.000 A 
ATOM      3  N   UNL     1       1.678   8.655  19.013  0.00  0.00    +0.000 NA
ATOM      4  C   UNL     1       1.792   7.899  20.165  0.00  0.00    +0.000 A 
ATOM      5  N   UNL     1       2.367   6.675  19.979  0.00  0.00    +0.000 N 
ATOM      6  N   UNL     1       1.365   8.270  21.342  0.00  0.00    +0.000 NA
ATOM      7  C   UNL     1       0.742   9.465  21.421  0.00  0.00    +0.000 A 
ATOM      8  N   UNL     1       0.241  10.129  22.439  0.00  0.00    +0.000 NA
ATOM      9  C   UNL     1      -0.291  11.262  21.854  0.00  0.00    +0.000 A 
ATOM     10  N   UNL     1      -0.113  11.353  20.525  0.00  0.00    +0.000 NA
ATOM     11  N   UNL     1       0.540  10.201  20.298  0.00  0.00    +0.000 N 
ATOM     12  H   UNL     1       1.529  10.441  17.218  0.00  0.00    +0.000 HD
ATOM     13  H   UNL     1       0.635  11.556  18.166  0.00  0.00    +0.000 HD
ATOM     14  H   UNL     1       2.535   6.478  19.000  0.00  0.00    +0.000 HD
ENDROOT
BRANCH   9  15
ATOM     15  C   UNL     1      -1.003  12.305  22.650  0.00  0.00    +0.000 A 
ATOM     16  C   UNL     1      -2.360  12.320  22.920  0.00  0.00    +0.000 A 
ATOM     17  C   UNL     1      -2.611  13.478  23.695  0.00  0.00    +0.000 A 
ATOM     18  C   UNL     1      -1.397  14.107  23.841  0.00  0.00    +0.000 A 
ATOM     19  O   UNL     1      -0.415  13.399  23.227  0.00  0.00    +0.000 OA
ENDBRANCH   9  15
BRANCH   5  20
ATOM     20  C   UNL     1       1.980   5.520  20.780  0.00  0.00    +0.000 C 
BRANCH  20  21
ATOM     21  C   UNL     1       2.717   4.218  20.342  0.00  0.00    +0.000 C 
ATOM     22  C   UNL     1       1.871   2.962  20.526  0.00  0.00    +0.000 C 
ATOM     23  C   UNL     1       0.989   2.944  19.294  0.00  0.00    +0.000 C 
ATOM     24  C   UNL     1       1.786   3.694  18.230  0.00  0.00    +0.000 C 
ATOM     25  N   UNL     1       2.995   4.243  18.881  0.00  0.00    +0.000 NA
BRANCH  25  26
ATOM     26  C   UNL     1       4.178   3.436  18.508  0.00  0.00    +0.000 C 
BRANCH  26  27
ATOM     27  C   UNL     1       5.113   4.066  17.504  0.00  0.00    +0.000 A 
ATOM     28  C   UNL     1       4.822   4.150  16.139  0.00  0.00    +0.000 A 
ATOM     29  C   UNL     1       5.756   4.700  15.265  0.00  0.00    +0.000 A 
ATOM     30  C   UNL     1       6.967   5.130  15.781  0.00  0.00    +0.000 A 
ATOM     31  N   UNL     1       7.297   5.050  17.087  0.00  0.00    +0.000 NA
ATOM     32  C   UNL     1       6.364   4.523  17.913  0.00  0.00    +0.000 A 
ENDBRANCH  26  27
ENDBRANCH  25  26
ENDBRANCH  20  21
ENDBRANCH   5  20
TORSDOF 5
ENDMDL
MODEL 2
REMARK VINA RESULT:      -8.8      0.940      1.281
REMARK  Name = 
REMARK  5 active torsions:
REMARK  status: ('A' for Active; 'I' for Inactive)
REMARK    1  A    between atoms: N_5  and  C_6
REMARK    2  A    between atoms: C_6  and  C_7
REMARK    3  A    between atoms: N_11  and  C_12
REMARK    4  A    between atoms: C_12  and  C_13
REMARK    5  A    between atoms: C_22  and  C_23
REMARK                            x       y       z     vdW  Elec       q    Type
REMARK                         _______ _______ _______ _____ _____    ______ ____
ROOT
ATOM      1  N   UNL     1       0.595  11.088  18.296  0.00  0.00    +0.000 N 
ATOM      2  C   UNL     1       0.755  10.226  19.350  0.00  0.00    +0.000 A 
ATOM      3  N   UNL     1       1.452   9.133  19.258  0.00  0.00    +0.000 NA
ATOM      4  C   UNL     1       1.543   8.307  20.364  0.00  0.00    +0.000 A 
ATOM      5  N   UNL     1       2.186   7.126  20.132  0.00  0.00    +0.000 N 
ATOM      6  N   UNL     1       1.038   8.578  21.537  0.00  0.00    +0.000 NA
ATOM      7  C   UNL     1       0.354   9.736  21.659  0.00  0.00    +0.000 A 
ATOM      8  N   UNL     1      -0.232  10.307  22.688  0.00  0.00    +0.000 NA
ATOM      9  C   UNL     1      -0.788  11.451  22.149  0.00  0.00    +0.000 A 
ATOM     10  N   UNL     1      -0.545  11.639  20.840  0.00  0.00    +0.000 NA
ATOM     11  N   UNL     1       0.174  10.535  20.576  0.00  0.00    +0.000 N 
ATOM     12  H   UNL     1       1.308  11.026  17.577  0.00  0.00    +0.000 HD
ATOM     13  H   UNL     1       0.312  12.033  18.543  0.00  0.00    +0.000 HD
ATOM     14  H   UNL     1       2.414   7.003  19.152  0.00  0.00    +0.000 HD
ENDROOT
BRANCH   9  15
ATOM     15  C   UNL     1      -1.590  12.405  22.970  0.00  0.00    +0.000 A 
ATOM     16  C   UNL     1      -2.897  12.207  23.379  0.00  0.00    +0.000 A 
ATOM     17  C   UNL     1      -3.270  13.350  24.126  0.00  0.00    +0.000 A 
ATOM     18  C   UNL     1      -2.176  14.183  24.118  0.00  0.00    +0.000 A 
ATOM     19  O   UNL     1      -1.149  13.615  23.435  0.00  0.00    +0.000 OA
ENDBRANCH   9  15
BRANCH   5  20
ATOM     20  C   UNL     1       1.816   5.904  20.834  0.00  0.00    +0.000 C 
BRANCH  20  21
ATOM     21  C   UNL     1       2.684   4.682  20.403  0.00  0.00    +0.000 C 
ATOM     22  C   UNL     1       1.999   3.343  20.655  0.00  0.00    +0.000 C 
ATOM     23  C   UNL     1       1.081   3.183  19.460  0.00  0.00    +0.000 C 
ATOM     24  C   UNL     1       1.746   3.986  18.345  0.00  0.00    +0.000 C 
ATOM     25  N   UNL     1       2.904   4.693  18.932  0.00  0.00    +0.000 NA
BRANCH  25  26
ATOM     26  C   UNL     1       4.160   4.018  18.535  0.00  0.00    +0.000 C 
BRANCH  26  27
ATOM     27  C   UNL     1       5.294   4.927  18.128  0.00  0.00    +0.000 A 
ATOM     28  C   UNL     1       6.406   5.169  18.938  0.00  0.00    +0.000 A 
ATOM     29  C   UNL     1       7.390   6.060  18.516  0.00  0.00    +0.000 A 
ATOM     30  C   UNL     1       7.219   6.702  17.301  0.00  0.00    +0.000 A 
ATOM     31  N   UNL     1       6.152   6.513  16.496  0.00  0.00    +0.000 NA
ATOM     32  C   UNL     1       5.220   5.632  16.928  0.00  0.00    +0.000 A 
ENDBRANCH  26  27
ENDBRANCH  25  26
ENDBRANCH  20  21
ENDBRANCH   5  20
TORSDOF 5
ENDMDL
MODEL 3
REMARK VINA RESULT:      -8.6      1.359      1.563
REMARK  Name = 
REMARK  5 active torsions:
REMARK  status: ('A' for Active; 'I' for Inactive)
REMARK    1  A    between atoms: N_5  and  C_6
REMARK    2  A    between atoms: C_6  and  C_7
REMARK    3  A    between atoms: N_11  and  C_12
REMARK    4  A    between atoms: C_12  and  C_13
REMARK    5  A    between atoms: C_22  and  C_23
REMARK                            x       y       z     vdW  Elec       q    Type
REMARK                         _______ _______ _______ _____ _____    ______ ____
ROOT
ATOM      1  N   UNL     1       0.741  11.792  19.126  0.00  0.00    +0.000 N 
ATOM      2  C   UNL     1       0.673  10.759  20.026  0.00  0.00    +0.000 A 
ATOM      3  N   UNL     1       1.377   9.675  19.897  0.00  0.00    +0.000 NA
ATOM      4  C   UNL     1       1.231   8.670  20.837  0.00  0.00    +0.000 A 
ATOM      5  N   UNL     1       1.913   7.525  20.547  0.00  0.00    +0.000 N 
ATOM      6  N   UNL     1       0.484   8.756  21.904  0.00  0.00    +0.000 NA
ATOM      7  C   UNL     1      -0.215   9.899  22.076  0.00  0.00    +0.000 A 
ATOM      8  N   UNL     1      -1.011  10.307  23.039  0.00  0.00    +0.000 NA
ATOM      9  C   UNL     1      -1.441  11.544  22.600  0.00  0.00    +0.000 A 
ATOM     10  N   UNL     1      -0.923  11.942  21.425  0.00  0.00    +0.000 NA
ATOM     11  N   UNL     1      -0.160  10.876  21.134  0.00  0.00    +0.000 N 
ATOM     12  H   UNL     1       1.593  11.829  18.576  0.00  0.00    +0.000 HD
ATOM     13  H   UNL     1       0.409  12.691  19.468  0.00  0.00    +0.000 HD
ATOM     14  H   UNL     1       2.347   7.562  19.632  0.00  0.00    +0.000 HD
ENDROOT
BRANCH   9  15
ATOM     15  C   UNL     1      -2.405  12.371  23.383  0.00  0.00    +0.000 A 
ATOM     16  C   UNL     1      -2.270  13.722  23.650  0.00  0.00    +0.000 A 
ATOM     17  C   UNL     1      -3.395  14.103  24.420  0.00  0.00    +0.000 A 
ATOM     18  C   UNL     1      -4.143  12.962  24.589  0.00  0.00    +0.000 A 
ATOM     19  O   UNL     1      -3.562  11.912  23.953  0.00  0.00    +0.000 OA
ENDBRANCH   9  15
BRANCH   5  20
ATOM     20  C   UNL     1       1.405   6.215  20.932  0.00  0.00    +0.000 C 
BRANCH  20  21
ATOM     21  C   UNL     1       2.410   5.067  20.611  0.00  0.00    +0.000 C 
ATOM     22  C   UNL     1       1.878   3.685  20.980  0.00  0.00    +0.000 C 
ATOM     23  C   UNL     1       0.997   3.318  19.803  0.00  0.00    +0.000 C 
ATOM     24  C   UNL     1       1.578   4.091  18.622  0.00  0.00    +0.000 C 
ATOM     25  N   UNL     1       2.643   4.974  19.145  0.00  0.00    +0.000 NA
BRANCH  25  26
ATOM     26  C   UNL     1       3.971   4.413  18.810  0.00  0.00    +0.000 C 
BRANCH  26  27
ATOM     27  C   UNL     1       4.517   4.785  17.452  0.00  0.00    +0.000 A 
ATOM     28  C   UNL     1       4.919   3.839  16.506  0.00  0.00    +0.000 A 
ATOM     29  C   UNL     1       5.460   4.259  15.293  0.00  0.00    +0.000 A 
ATOM     30  C   UNL     1       5.605   5.618  15.073  0.00  0.00    +0.000 A 
ATOM     31  N   UNL     1       5.249   6.565  15.965  0.00  0.00    +0.000 NA
ATOM     32  C   UNL     1       4.714   6.127  17.128  0.00  0.00    +0.000 A 
ENDBRANCH  26  27
ENDBRANCH  25  26
ENDBRANCH  20  21
ENDBRANCH   5  20
TORSDOF 5
ENDMDL
MODEL 4
REMARK VINA RESULT:      -8.1      1.395      1.680
REMARK  Name = 
REMARK  5 active torsions:
REMARK  status: ('A' for Active; 'I' for Inactive)
REMARK    1  A    between atoms: N_5  and  C_6
REMARK    2  A    between atoms: C_6  and  C_7
REMARK    3  A    between atoms: N_11  and  C_12
REMARK    4  A    between atoms: C_12  and  C_13
REMARK    5  A    between atoms: C_22  and  C_23
REMARK                            x       y       z     vdW  Elec       q    Type
REMARK                         _______ _______ _______ _____ _____    ______ ____
ROOT
ATOM      1  N   UNL     1      -0.903  11.252  17.746  0.00  0.00    +0.000 N 
ATOM      2  C   UNL     1      -0.192  10.617  18.733  0.00  0.00    +0.000 A 
ATOM      3  N   UNL     1       0.621   9.634  18.485  0.00  0.00    +0.000 NA
ATOM      4  C   UNL     1       1.282   9.034  19.541  0.00  0.00    +0.000 A 
ATOM      5  N   UNL     1       2.010   7.934  19.196  0.00  0.00    +0.000 N 
ATOM      6  N   UNL     1       1.211   9.432  20.783  0.00  0.00    +0.000 NA
ATOM      7  C   UNL     1       0.407  10.485  21.047  0.00  0.00    +0.000 A 
ATOM      8  N   UNL     1       0.150  11.138  22.158  0.00  0.00    +0.000 NA
ATOM      9  C   UNL     1      -0.782  12.081  21.770  0.00  0.00    +0.000 A 
ATOM     10  N   UNL     1      -1.090  12.070  20.461  0.00  0.00    +0.000 NA
ATOM     11  N   UNL     1      -0.320  11.050  20.049  0.00  0.00    +0.000 N 
ATOM     12  H   UNL     1      -0.515  11.166  16.813  0.00  0.00    +0.000 HD
ATOM     13  H   UNL     1      -1.253  12.176  17.986  0.00  0.00    +0.000 HD
ATOM     14  H   UNL     1       1.874   7.675  18.227  0.00  0.00    +0.000 HD
ENDROOT
BRANCH   9  15
ATOM     15  C   UNL     1      -1.389  13.040  22.739  0.00  0.00    +0.000 A 
ATOM     16  C   UNL     1      -2.739  13.320  22.850  0.00  0.00    +0.000 A 
ATOM     17  C   UNL     1      -2.875  14.280  23.881  0.00  0.00    +0.000 A 
ATOM     18  C   UNL     1      -1.602  14.539  24.329  0.00  0.00    +0.000 A 
ATOM     19  O   UNL     1      -0.696  13.784  23.656  0.00  0.00    +0.000 OA
ENDBRANCH   9  15
BRANCH   5  20
ATOM     20  C   UNL     1       2.180   6.812  20.112  0.00  0.00    +0.000 C 
BRANCH  20  21
ATOM     21  C   UNL     1       3.076   5.685  19.514  0.00  0.00    +0.000 C 
ATOM     22  C   UNL     1       2.706   4.294  20.021  0.00  0.00    +0.000 C 
ATOM     23  C   UNL     1       1.531   3.900  19.150  0.00  0.00    +0.000 C 
ATOM     24  C   UNL     1       1.726   4.677  17.851  0.00  0.00    +0.000 C 
ATOM     25  N   UNL     1       2.876   5.586  18.043  0.00  0.00    +0.000 NA
BRANCH  25  26
ATOM     26  C   UNL     1       4.063   5.053  17.338  0.00  0.00    +0.000 C 
BRANCH  26  27
ATOM     27  C   UNL     1       5.392   5.632  17.757  0.00  0.00    +0.000 A 
ATOM     28  C   UNL     1       5.933   6.790  17.192  0.00  0.00    +0.000 A 
ATOM     29  C   UNL     1       7.189   7.237  17.595  0.00  0.00    +0.000 A 
ATOM     30  C   UNL     1       7.879   6.496  18.539  0.00  0.00    +0.000 A 
ATOM     31  N   UNL     1       7.404   5.363  19.097  0.00  0.00    +0.000 NA
ATOM     32  C   UNL     1       6.176   4.962  18.695  0.00  0.00    +0.000 A 
ENDBRANCH  26  27
ENDBRANCH  25  26
ENDBRANCH  20  21
ENDBRANCH   5  20
TORSDOF 5
ENDMDL
MODEL 5
REMARK VINA RESULT:      -8.0      3.272     10.198
REMARK  Name = 
REMARK  5 active torsions:
REMARK  status: ('A' for Active; 'I' for Inactive)
REMARK    1  A    between atoms: N_5  and  C_6
REMARK    2  A    between atoms: C_6  and  C_7
REMARK    3  A    between atoms: N_11  and  C_12
REMARK    4  A    between atoms: C_12  and  C_13
REMARK    5  A    between atoms: C_22  and  C_23
REMARK                            x       y       z     vdW  Elec       q    Type
REMARK                         _______ _______ _______ _____ _____    ______ ____
ROOT
ATOM      1  N   UNL     1       5.299   3.124  19.268  0.00  0.00    +0.000 N 
ATOM      2  C   UNL     1       4.750   4.308  18.847  0.00  0.00    +0.000 A 
ATOM      3  N   UNL     1       3.999   5.039  19.615  0.00  0.00    +0.000 NA
ATOM      4  C   UNL     1       3.465   6.209  19.105  0.00  0.00    +0.000 A 
ATOM      5  N   UNL     1       2.590   6.839  19.940  0.00  0.00    +0.000 N 
ATOM      6  N   UNL     1       3.721   6.684  17.916  0.00  0.00    +0.000 NA
ATOM      7  C   UNL     1       4.541   5.958  17.126  0.00  0.00    +0.000 A 
ATOM      8  N   UNL     1       5.016   6.171  15.919  0.00  0.00    +0.000 NA
ATOM      9  C   UNL     1       5.760   5.037  15.660  0.00  0.00    +0.000 A 
ATOM     10  N   UNL     1       5.802   4.143  16.663  0.00  0.00    +0.000 NA
ATOM     11  N   UNL     1       5.020   4.765  17.562  0.00  0.00    +0.000 N 
ATOM     12  H   UNL     1       5.389   3.023  20.273  0.00  0.00    +0.000 HD
ATOM     13  H   UNL     1       6.097   2.796  18.728  0.00  0.00    +0.000 HD
ATOM     14  H   UNL     1       2.398   6.294  20.772  0.00  0.00    +0.000 HD
ENDROOT
BRANCH   9  15
ATOM     15  C   UNL     1       6.468   4.833  14.362  0.00  0.00    +0.000 A 
ATOM     16  C   UNL     1       6.137   3.886  13.409  0.00  0.00    +0.000 A 
ATOM     17  C   UNL     1       7.060   4.034  12.346  0.00  0.00    +0.000 A 
ATOM     18  C   UNL     1       7.906   5.052  12.717  0.00  0.00    +0.000 A 
ATOM     19  O   UNL     1       7.548   5.553  13.927  0.00  0.00    +0.000 OA
ENDBRANCH   9  15
BRANCH   5  20
ATOM     20  C   UNL     1       1.454   7.596  19.427  0.00  0.00    +0.000 C 
BRANCH  20  21
ATOM     21  C   UNL     1       1.594   9.127  19.684  0.00  0.00    +0.000 C 
ATOM     22  C   UNL     1       1.567   9.954  18.402  0.00  0.00    +0.000 C 
ATOM     23  C   UNL     1       0.089  10.083  18.094  0.00  0.00    +0.000 C 
ATOM     24  C   UNL     1      -0.605   9.969  19.448  0.00  0.00    +0.000 C 
ATOM     25  N   UNL     1       0.426   9.634  20.453  0.00  0.00    +0.000 NA
BRANCH  25  26
ATOM     26  C   UNL     1       0.748  10.832  21.261  0.00  0.00    +0.000 C 
BRANCH  26  27
ATOM     27  C   UNL     1      -0.436  11.585  21.819  0.00  0.00    +0.000 A 
ATOM     28  C   UNL     1      -0.784  12.873  21.404  0.00  0.00    +0.000 A 
ATOM     29  C   UNL     1      -1.861  13.526  22.001  0.00  0.00    +0.000 A 
ATOM     30  C   UNL     1      -2.544  12.876  23.014  0.00  0.00    +0.000 A 
ATOM     31  N   UNL     1      -2.230  11.641  23.459  0.00  0.00    +0.000 NA
ATOM     32  C   UNL     1      -1.188  11.028  22.851  0.00  0.00    +0.000 A 
ENDBRANCH  26  27
ENDBRANCH  25  26
ENDBRANCH  20  21
ENDBRANCH   5  20
TORSDOF 5
ENDMDL
MODEL 6
REMARK VINA RESULT:      -8.0      3.767      9.746
REMARK  Name = 
REMARK  5 active torsions:
REMARK  status: ('A' for Active; 'I' for Inactive)
REMARK    1  A    between atoms: N_5  and  C_6
REMARK    2  A    between atoms: C_6  and  C_7
REMARK    3  A    between atoms: N_11  and  C_12
REMARK    4  A    between atoms: C_12  and  C_13
REMARK    5  A    between atoms: C_22  and  C_23
REMARK                            x       y       z     vdW  Elec       q    Type
REMARK                         _______ _______ _______ _____ _____    ______ ____
ROOT
ATOM      1  N   UNL     1       2.790   3.859  19.275  0.00  0.00    +0.000 N 
ATOM      2  C   UNL     1       2.888   5.178  18.911  0.00  0.00    +0.000 A 
ATOM      3  N   UNL     1       2.300   6.129  19.572  0.00  0.00    +0.000 NA
ATOM      4  C   UNL     1       2.431   7.431  19.123  0.00  0.00    +0.000 A 
ATOM      5  N   UNL     1       1.676   8.340  19.805  0.00  0.00    +0.000 N 
ATOM      6  N   UNL     1       3.174   7.796  18.113  0.00  0.00    +0.000 NA
ATOM      7  C   UNL     1       3.830   6.821  17.448  0.00  0.00    +0.000 A 
ATOM      8  N   UNL     1       4.668   6.858  16.435  0.00  0.00    +0.000 NA
ATOM      9  C   UNL     1       4.950   5.526  16.202  0.00  0.00    +0.000 A 
ATOM     10  N   UNL     1       4.357   4.663  17.045  0.00  0.00    +0.000 NA
ATOM     11  N   UNL     1       3.663   5.523  17.809  0.00  0.00    +0.000 N 
ATOM     12  H   UNL     1       2.548   3.697  20.247  0.00  0.00    +0.000 HD
ATOM     13  H   UNL     1       3.513   3.248  18.903  0.00  0.00    +0.000 HD
ATOM     14  H   UNL     1       1.063   7.896  20.478  0.00  0.00    +0.000 HD
ENDROOT
BRANCH   9  15
ATOM     15  C   UNL     1       5.854   5.089  15.097  0.00  0.00    +0.000 A 
ATOM     16  C   UNL     1       5.539   4.157  14.125  0.00  0.00    +0.000 A 
ATOM     17  C   UNL     1       6.673   4.040  13.286  0.00  0.00    +0.000 A 
ATOM     18  C   UNL     1       7.617   4.896  13.803  0.00  0.00    +0.000 A 
ATOM     19  O   UNL     1       7.127   5.547  14.889  0.00  0.00    +0.000 OA
ENDBRANCH   9  15
BRANCH   5  20
ATOM     20  C   UNL     1       1.119   9.516  19.148  0.00  0.00    +0.000 C 
BRANCH  20  21
ATOM     21  C   UNL     1      -0.257   9.938  19.748  0.00  0.00    +0.000 C 
ATOM     22  C   UNL     1      -0.304   9.833  21.269  0.00  0.00    +0.000 C 
ATOM     23  C   UNL     1       0.355  11.116  21.734  0.00  0.00    +0.000 C 
ATOM     24  C   UNL     1       0.112  12.113  20.604  0.00  0.00    +0.000 C 
ATOM     25  N   UNL     1      -0.520  11.378  19.487  0.00  0.00    +0.000 NA
BRANCH  25  26
ATOM     26  C   UNL     1      -1.963  11.697  19.428  0.00  0.00    +0.000 C 
BRANCH  26  27
ATOM     27  C   UNL     1      -2.661  11.347  18.136  0.00  0.00    +0.000 A 
ATOM     28  C   UNL     1      -1.982  10.909  16.996  0.00  0.00    +0.000 A 
ATOM     29  C   UNL     1      -2.688  10.653  15.823  0.00  0.00    +0.000 A 
ATOM     30  C   UNL     1      -4.056  10.867  15.820  0.00  0.00    +0.000 A 
ATOM     31  N   UNL     1      -4.750  11.308  16.891  0.00  0.00    +0.000 NA
ATOM     32  C   UNL     1      -4.037  11.535  18.018  0.00  0.00    +0.000 A 
ENDBRANCH  26  27
ENDBRANCH  25  26
ENDBRANCH  20  21
ENDBRANCH   5  20
TORSDOF 5
ENDMDL
MODEL 7
REMARK VINA RESULT:      -7.8      3.831      7.317
REMARK  Name = 
REMARK  5 active torsions:
REMARK  status: ('A' for Active; 'I' for Inactive)
REMARK    1  A    between atoms: N_5  and  C_6
REMARK    2  A    between atoms: C_6  and  C_7
REMARK    3  A    between atoms: N_11  and  C_12
REMARK    4  A    between atoms: C_12  and  C_13
REMARK    5  A    between atoms: C_22  and  C_23
REMARK                            x       y       z     vdW  Elec       q    Type
REMARK                         _______ _______ _______ _____ _____    ______ ____
ROOT
ATOM      1  N   UNL     1       5.557   5.937  14.775  0.00  0.00    +0.000 N 
ATOM      2  C   UNL     1       5.684   5.505  16.070  0.00  0.00    +0.000 A 
ATOM      3  N   UNL     1       5.209   4.364  16.474  0.00  0.00    +0.000 NA
ATOM      4  C   UNL     1       5.359   4.014  17.803  0.00  0.00    +0.000 A 
ATOM      5  N   UNL     1       4.718   2.863  18.158  0.00  0.00    +0.000 N 
ATOM      6  N   UNL     1       6.017   4.717  18.686  0.00  0.00    +0.000 NA
ATOM      7  C   UNL     1       6.559   5.881  18.266  0.00  0.00    +0.000 A 
ATOM      8  N   UNL     1       7.295   6.780  18.880  0.00  0.00    +0.000 NA
ATOM      9  C   UNL     1       7.489   7.751  17.916  0.00  0.00    +0.000 A 
ATOM     10  N   UNL     1       6.939   7.481  16.719  0.00  0.00    +0.000 NA
ATOM     11  N   UNL     1       6.364   6.297  16.988  0.00  0.00    +0.000 N 
ATOM     12  H   UNL     1       5.403   5.206  14.089  0.00  0.00    +0.000 HD
ATOM     13  H   UNL     1       6.210   6.664  14.491  0.00  0.00    +0.000 HD
ATOM     14  H   UNL     1       4.152   2.495  17.403  0.00  0.00    +0.000 HD
ENDROOT
BRANCH   9  15
ATOM     15  C   UNL     1       8.260   8.999  18.193  0.00  0.00    +0.000 A 
ATOM     16  C   UNL     1       9.121   9.189  19.259  0.00  0.00    +0.000 A 
ATOM     17  C   UNL     1       9.632  10.504  19.143  0.00  0.00    +0.000 A 
ATOM     18  C   UNL     1       9.044  11.042  18.023  0.00  0.00    +0.000 A 
ATOM     19  O   UNL     1       8.225  10.136  17.431  0.00  0.00    +0.000 OA
ENDBRANCH   9  15
BRANCH   5  20
ATOM     20  C   UNL     1       4.158   2.680  19.491  0.00  0.00    +0.000 C 
BRANCH  20  21
ATOM     21  C   UNL     1       2.705   3.235  19.608  0.00  0.00    +0.000 C 
ATOM     22  C   UNL     1       1.731   2.234  20.224  0.00  0.00    +0.000 C 
ATOM     23  C   UNL     1       1.967   2.380  21.713  0.00  0.00    +0.000 C 
ATOM     24  C   UNL     1       2.474   3.808  21.892  0.00  0.00    +0.000 C 
ATOM     25  N   UNL     1       2.662   4.388  20.545  0.00  0.00    +0.000 NA
BRANCH  25  26
ATOM     26  C   UNL     1       1.561   5.331  20.245  0.00  0.00    +0.000 C 
BRANCH  26  27
ATOM     27  C   UNL     1       1.936   6.536  19.417  0.00  0.00    +0.000 A 
ATOM     28  C   UNL     1       2.767   6.464  18.296  0.00  0.00    +0.000 A 
ATOM     29  C   UNL     1       3.110   7.626  17.610  0.00  0.00    +0.000 A 
ATOM     30  C   UNL     1       2.628   8.835  18.084  0.00  0.00    +0.000 A 
ATOM     31  N   UNL     1       1.839   8.954  19.173  0.00  0.00    +0.000 NA
ATOM     32  C   UNL     1       1.513   7.805  19.809  0.00  0.00    +0.000 A 
ENDBRANCH  26  27
ENDBRANCH  25  26
ENDBRANCH  20  21
ENDBRANCH   5  20
TORSDOF 5
ENDMDL
MODEL 8
REMARK VINA RESULT:      -7.8      4.134      7.330
REMARK  Name = 
REMARK  5 active torsions:
REMARK  status: ('A' for Active; 'I' for Inactive)
REMARK    1  A    between atoms: N_5  and  C_6
REMARK    2  A    between atoms: C_6  and  C_7
REMARK    3  A    between atoms: N_11  and  C_12
REMARK    4  A    between atoms: C_12  and  C_13
REMARK    5  A    between atoms: C_22  and  C_23
REMARK                            x       y       z     vdW  Elec       q    Type
REMARK                         _______ _______ _______ _____ _____    ______ ____
ROOT
ATOM      1  N   UNL     1       5.433   6.182  14.808  0.00  0.00    +0.000 N 
ATOM      2  C   UNL     1       5.596   5.666  16.069  0.00  0.00    +0.000 A 
ATOM      3  N   UNL     1       5.106   4.515  16.419  0.00  0.00    +0.000 NA
ATOM      4  C   UNL     1       5.296   4.078  17.717  0.00  0.00    +0.000 A 
ATOM      5  N   UNL     1       4.638   2.923  18.024  0.00  0.00    +0.000 N 
ATOM      6  N   UNL     1       6.005   4.707  18.616  0.00  0.00    +0.000 NA
ATOM      7  C   UNL     1       6.562   5.881  18.248  0.00  0.00    +0.000 A 
ATOM      8  N   UNL     1       7.344   6.722  18.888  0.00  0.00    +0.000 NA
ATOM      9  C   UNL     1       7.528   7.746  17.979  0.00  0.00    +0.000 A 
ATOM     10  N   UNL     1       6.927   7.566  16.790  0.00  0.00    +0.000 NA
ATOM     11  N   UNL     1       6.331   6.382  17.007  0.00  0.00    +0.000 N 
ATOM     12  H   UNL     1       5.234   5.499  14.085  0.00  0.00    +0.000 HD
ATOM     13  H   UNL     1       6.095   6.909  14.545  0.00  0.00    +0.000 HD
ATOM     14  H   UNL     1       4.034   2.617  17.271  0.00  0.00    +0.000 HD
ENDROOT
BRANCH   9  15
ATOM     15  C   UNL     1       8.342   8.955  18.303  0.00  0.00    +0.000 A 
ATOM     16  C   UNL     1       8.378  10.120  17.558  0.00  0.00    +0.000 A 
ATOM     17  C   UNL     1       9.273  10.999  18.213  0.00  0.00    +0.000 A 
ATOM     18  C   UNL     1       9.741  10.315  19.310  0.00  0.00    +0.000 A 
ATOM     19  O   UNL     1       9.173   9.084  19.383  0.00  0.00    +0.000 OA
ENDBRANCH   9  15
BRANCH   5  20
ATOM     20  C   UNL     1       4.123   2.670  19.364  0.00  0.00    +0.000 C 
BRANCH  20  21
ATOM     21  C   UNL     1       2.681   3.230  19.564  0.00  0.00    +0.000 C 
ATOM     22  C   UNL     1       1.741   2.236  20.239  0.00  0.00    +0.000 C 
ATOM     23  C   UNL     1       2.064   2.386  21.712  0.00  0.00    +0.000 C 
ATOM     24  C   UNL     1       2.586   3.813  21.856  0.00  0.00    +0.000 C 
ATOM     25  N   UNL     1       2.698   4.388  20.498  0.00  0.00    +0.000 NA
BRANCH  25  26
ATOM     26  C   UNL     1       1.585   5.333  20.259  0.00  0.00    +0.000 C 
BRANCH  26  27
ATOM     27  C   UNL     1       1.948   6.604  19.529  0.00  0.00    +0.000 A 
ATOM     28  C   UNL     1       1.489   7.865  19.918  0.00  0.00    +0.000 A 
ATOM     29  C   UNL     1       1.825   8.988  19.166  0.00  0.00    +0.000 A 
ATOM     30  C   UNL     1       2.595   8.810  18.028  0.00  0.00    +0.000 A 
ATOM     31  N   UNL     1       3.043   7.610  17.605  0.00  0.00    +0.000 NA
ATOM     32  C   UNL     1       2.710   6.541  18.364  0.00  0.00    +0.000 A 
ENDBRANCH  26  27
ENDBRANCH  25  26
ENDBRANCH  20  21
ENDBRANCH   5  20
TORSDOF 5
ENDMDL
MODEL 9
REMARK VINA RESULT:      -7.7      3.395     10.231
REMARK  Name = 
REMARK  5 active torsions:
REMARK  status: ('A' for Active; 'I' for Inactive)
REMARK    1  A    between atoms: N_5  and  C_6
REMARK    2  A    between atoms: C_6  and  C_7
REMARK    3  A    between atoms: N_11  and  C_12
REMARK    4  A    between atoms: C_12  and  C_13
REMARK    5  A    between atoms: C_22  and  C_23
REMARK                            x       y       z     vdW  Elec       q    Type
REMARK                         _______ _______ _______ _____ _____    ______ ____
ROOT
ATOM      1  N   UNL     1       2.304   4.935  21.058  0.00  0.00    +0.000 N 
ATOM      2  C   UNL     1       2.202   6.108  20.355  0.00  0.00    +0.000 A 
ATOM      3  N   UNL     1       1.523   7.126  20.793  0.00  0.00    +0.000 NA
ATOM      4  C   UNL     1       1.452   8.265  20.010  0.00  0.00    +0.000 A 
ATOM      5  N   UNL     1       0.615   9.227  20.493  0.00  0.00    +0.000 N 
ATOM      6  N   UNL     1       2.084   8.429  18.879  0.00  0.00    +0.000 NA
ATOM      7  C   UNL     1       2.833   7.395  18.438  0.00  0.00    +0.000 A 
ATOM      8  N   UNL     1       3.605   7.256  17.382  0.00  0.00    +0.000 NA
ATOM      9  C   UNL     1       4.055   5.954  17.482  0.00  0.00    +0.000 A 
ATOM     10  N   UNL     1       3.630   5.287  18.569  0.00  0.00    +0.000 NA
ATOM     11  N   UNL     1       2.865   6.232  19.138  0.00  0.00    +0.000 N 
ATOM     12  H   UNL     1       2.137   5.014  22.055  0.00  0.00    +0.000 HD
ATOM     13  H   UNL     1       3.084   4.336  20.797  0.00  0.00    +0.000 HD
ATOM     14  H   UNL     1       0.103   8.913  21.309  0.00  0.00    +0.000 HD
ENDROOT
BRANCH   9  15
ATOM     15  C   UNL     1       4.953   5.346  16.456  0.00  0.00    +0.000 A 
ATOM     16  C   UNL     1       5.163   3.990  16.277  0.00  0.00    +0.000 A 
ATOM     17  C   UNL     1       6.082   3.855  15.209  0.00  0.00    +0.000 A 
ATOM     18  C   UNL     1       6.388   5.134  14.808  0.00  0.00    +0.000 A 
ATOM     19  O   UNL     1       5.699   6.043  15.544  0.00  0.00    +0.000 OA
ENDBRANCH   9  15
BRANCH   5  20
ATOM     20  C   UNL     1      -0.132  10.108  19.603  0.00  0.00    +0.000 C 
BRANCH  20  21
ATOM     21  C   UNL     1      -0.471  11.478  20.266  0.00  0.00    +0.000 C 
ATOM     22  C   UNL     1       0.703  12.452  20.259  0.00  0.00    +0.000 C 
ATOM     23  C   UNL     1       0.659  13.051  18.868  0.00  0.00    +0.000 C 
ATOM     24  C   UNL     1      -0.804  12.950  18.444  0.00  0.00    +0.000 C 
ATOM     25  N   UNL     1      -1.521  12.187  19.488  0.00  0.00    +0.000 NA
BRANCH  25  26
ATOM     26  C   UNL     1      -2.328  13.108  20.319  0.00  0.00    +0.000 C 
BRANCH  26  27
ATOM     27  C   UNL     1      -3.771  12.715  20.522  0.00  0.00    +0.000 A 
ATOM     28  C   UNL     1      -4.635  12.411  19.467  0.00  0.00    +0.000 A 
ATOM     29  C   UNL     1      -5.969  12.106  19.728  0.00  0.00    +0.000 A 
ATOM     30  C   UNL     1      -6.405  12.137  21.042  0.00  0.00    +0.000 A 
ATOM     31  N   UNL     1      -5.611  12.444  22.089  0.00  0.00    +0.000 NA
ATOM     32  C   UNL     1      -4.318  12.723  21.804  0.00  0.00    +0.000 A 
ENDBRANCH  26  27
ENDBRANCH  25  26
ENDBRANCH  20  21
ENDBRANCH   5  20
TORSDOF 5
ENDMDL
