MODEL 1
REMARK VINA RESULT:      -9.0      0.000      0.000
REMARK  Name = 
REMARK  6 active torsions:
REMARK  status: ('A' for Active; 'I' for Inactive)
REMARK    1  A    between atoms: C_8  and  C_9
REMARK    2  A    between atoms: N_19  and  C1*_20
REMARK    3  A    between atoms: C4*_22  and  C5*_23
REMARK    4  A    between atoms: C5*_23  and  O5*_24
REMARK    5  A    between atoms: C3*_25  and  O3*_26
REMARK    6  A    between atoms: C2*_27  and  O2*_28
REMARK                            x       y       z     vdW  Elec       q    Type
REMARK                         _______ _______ _______ _____ _____    ______ ____
ROOT
ATOM      1  O   UNL     1       0.291   4.412  20.496  0.00  0.00    +0.000 OA
ATOM      2  C   UNL     1       1.247   3.977  19.866  0.00  0.00    +0.000 A 
ATOM      3  N   UNL     1       1.408   2.615  19.674  0.00  0.00    +0.000 N 
ATOM      4  C   UNL     1       2.456   2.063  18.976  0.00  0.00    +0.000 A 
ATOM      5  N   UNL     1       3.413   2.735  18.415  0.00  0.00    +0.000 NA
ATOM      6  C   UNL     1       3.291   4.076  18.566  0.00  0.00    +0.000 A 
ATOM      7  C   UNL     1       2.293   4.758  19.246  0.00  0.00    +0.000 A 
ATOM      8  C   UNL     1       2.588   6.138  19.158  0.00  0.00    +0.000 A 
ATOM      9  C   UNL     1       3.736   6.260  18.399  0.00  0.00    +0.000 A 
ATOM     10  N   UNL     1       4.182   4.996  18.075  0.00  0.00    +0.000 N 
ATOM     11  H   UNL     1       0.694   2.035  20.087  0.00  0.00    +0.000 HD
ENDROOT
BRANCH   8  12
ATOM     12  C   UNL     1       1.870   7.286  19.768  0.00  0.00    +0.000 A 
ATOM     13  C   UNL     1       1.633   8.513  19.171  0.00  0.00    +0.000 A 
ATOM     14  C   UNL     1       0.964   9.321  20.125  0.00  0.00    +0.000 A 
ATOM     15  C   UNL     1       0.462  10.633  20.158  0.00  0.00    +0.000 A 
ATOM     16  C   UNL     1      -0.136  11.092  21.340  0.00  0.00    +0.000 A 
ATOM     17  C   UNL     1      -0.236  10.267  22.464  0.00  0.00    +0.000 A 
ATOM     18  C   UNL     1       0.247   8.955  22.445  0.00  0.00    +0.000 A 
ATOM     19  C   UNL     1       0.834   8.529  21.257  0.00  0.00    +0.000 A 
ATOM     20  O   UNL     1       1.366   7.299  21.036  0.00  0.00    +0.000 OA
ENDBRANCH   8  12
BRANCH  10  21
ATOM     21  C1* UNL     1       5.443   4.735  17.399  0.00  0.00    +0.000 C 
ATOM     22  O4* UNL     1       6.450   4.339  18.356  0.00  0.00    +0.000 OA
ATOM     23  C4* UNL     1       7.696   4.989  17.998  0.00  0.00    +0.000 C 
ATOM     24  C3* UNL     1       7.486   5.630  16.628  0.00  0.00    +0.000 C 
ATOM     25  C2* UNL     1       5.992   5.911  16.590  0.00  0.00    +0.000 C 
BRANCH  24  26
ATOM     26  O3* UNL     1       7.791   4.711  15.561  0.00  0.00    +0.000 OA
ATOM     27  H3* UNL     1       7.031   4.666  14.954  0.00  0.00    +0.000 HD
ENDBRANCH  24  26
BRANCH  25  28
ATOM     28  O2* UNL     1       5.507   5.931  15.244  0.00  0.00    +0.000 OA
ATOM     29  H2* UNL     1       5.747   6.812  14.883  0.00  0.00    +0.000 HD
ENDBRANCH  25  28
BRANCH  23  30
ATOM     30  C5* UNL     1       8.067   5.999  19.086  0.00  0.00    +0.000 C 
BRANCH  30  31
ATOM     31  O5* UNL     1       7.820   5.434  20.372  0.00  0.00    +0.000 OA
ATOM     32  H5* UNL     1       8.583   4.849  20.551  0.00  0.00    +0.000 HD
ENDBRANCH  30  31
ENDBRANCH  23  30
ENDBRANCH  10  21
TORSDOF 6
ENDMDL
MODEL 2
REMARK VINA RESULT:      -9.0      0.507      1.110
REMARK  Name = 
REMARK  6 active torsions:
REMARK  status: ('A' for Active; 'I' for Inactive)
REMARK    1  A    between atoms: C_8  and  C_9
REMARK    2  A    between atoms: N_19  and  C1*_20
REMARK    3  A    between atoms: C4*_22  and  C5*_23
REMARK    4  A    between atoms: C5*_23  and  O5*_24
REMARK    5  A    between atoms: C3*_25  and  O3*_26
REMARK    6  A    between atoms: C2*_27  and  O2*_28
REMARK                            x       y       z     vdW  Elec       q    Type
REMARK                         _______ _______ _______ _____ _____    ______ ____
ROOT
ATOM      1  O   UNL     1       0.249   4.465  20.505  0.00  0.00    +0.000 OA
ATOM      2  C   UNL     1       1.187   4.042  19.842  0.00  0.00    +0.000 A 
ATOM      3  N   UNL     1       1.312   2.689  19.575  0.00  0.00    +0.000 N 
ATOM      4  C   UNL     1       2.339   2.151  18.836  0.00  0.00    +0.000 A 
ATOM      5  N   UNL     1       3.307   2.830  18.301  0.00  0.00    +0.000 NA
ATOM      6  C   UNL     1       3.219   4.163  18.526  0.00  0.00    +0.000 A 
ATOM      7  C   UNL     1       2.246   4.830  19.253  0.00  0.00    +0.000 A 
ATOM      8  C   UNL     1       2.574   6.206  19.237  0.00  0.00    +0.000 A 
ATOM      9  C   UNL     1       3.716   6.342  18.472  0.00  0.00    +0.000 A 
ATOM     10  N   UNL     1       4.128   5.087  18.076  0.00  0.00    +0.000 N 
ATOM     11  H   UNL     1       0.588   2.105  19.964  0.00  0.00    +0.000 HD
ENDROOT
BRANCH   8  12
ATOM     12  C   UNL     1       1.890   7.336  19.916  0.00  0.00    +0.000 A 
ATOM     13  C   UNL     1       1.448   7.356  21.228  0.00  0.00    +0.000 A 
ATOM     14  C   UNL     1       0.813   8.606  21.438  0.00  0.00    +0.000 A 
ATOM     15  C   UNL     1       0.165   9.237  22.513  0.00  0.00    +0.000 A 
ATOM     16  C   UNL     1      -0.374  10.516  22.311  0.00  0.00    +0.000 A 
ATOM     17  C   UNL     1      -0.272  11.155  21.072  0.00  0.00    +0.000 A 
ATOM     18  C   UNL     1       0.380  10.546  19.995  0.00  0.00    +0.000 A 
ATOM     19  C   UNL     1       0.906   9.278  20.227  0.00  0.00    +0.000 A 
ATOM     20  O   UNL     1       1.567   8.518  19.316  0.00  0.00    +0.000 OA
ENDBRANCH   8  12
BRANCH  10  21
ATOM     21  C1* UNL     1       5.376   4.832  17.371  0.00  0.00    +0.000 C 
ATOM     22  O4* UNL     1       6.392   4.398  18.301  0.00  0.00    +0.000 OA
ATOM     23  C4* UNL     1       7.639   5.046  17.942  0.00  0.00    +0.000 C 
ATOM     24  C3* UNL     1       7.415   5.729  16.595  0.00  0.00    +0.000 C 
ATOM     25  C2* UNL     1       5.924   6.025  16.588  0.00  0.00    +0.000 C 
BRANCH  24  26
ATOM     26  O3* UNL     1       7.694   4.838  15.497  0.00  0.00    +0.000 OA
ATOM     27  H3* UNL     1       7.392   3.942  15.730  0.00  0.00    +0.000 HD
ENDBRANCH  24  26
BRANCH  25  28
ATOM     28  O2* UNL     1       5.418   6.091  15.252  0.00  0.00    +0.000 OA
ATOM     29  H2* UNL     1       5.268   7.042  15.064  0.00  0.00    +0.000 HD
ENDBRANCH  25  28
BRANCH  23  30
ATOM     30  C5* UNL     1       8.039   6.019  19.052  0.00  0.00    +0.000 C 
BRANCH  30  31
ATOM     31  O5* UNL     1       7.843   5.405  20.324  0.00  0.00    +0.000 OA
ATOM     32  H5* UNL     1       8.611   4.812  20.450  0.00  0.00    +0.000 HD
ENDBRANCH  30  31
ENDBRANCH  23  30
ENDBRANCH  10  21
TORSDOF 6
ENDMDL
MODEL 3
REMARK VINA RESULT:      -8.4      1.167      1.256
REMARK  Name = 
REMARK  6 active torsions:
REMARK  status: ('A' for Active; 'I' for Inactive)
REMARK    1  A    between atoms: C_8  and  C_9
REMARK    2  A    between atoms: N_19  and  C1*_20
REMARK    3  A    between atoms: C4*_22  and  C5*_23
REMARK    4  A    between atoms: C5*_23  and  O5*_24
REMARK    5  A    between atoms: C3*_25  and  O3*_26
REMARK    6  A    between atoms: C2*_27  and  O2*_28
REMARK                            x       y       z     vdW  Elec       q    Type
REMARK                         _______ _______ _______ _____ _____    ______ ____
ROOT
ATOM      1  O   UNL     1       0.095   4.523  20.449  0.00  0.00    +0.000 OA
ATOM      2  C   UNL     1       1.156   4.089  20.020  0.00  0.00    +0.000 A 
ATOM      3  N   UNL     1       1.337   2.731  19.822  0.00  0.00    +0.000 N 
ATOM      4  C   UNL     1       2.502   2.180  19.342  0.00  0.00    +0.000 A 
ATOM      5  N   UNL     1       3.564   2.850  19.016  0.00  0.00    +0.000 NA
ATOM      6  C   UNL     1       3.428   4.188  19.181  0.00  0.00    +0.000 A 
ATOM      7  C   UNL     1       2.319   4.868  19.658  0.00  0.00    +0.000 A 
ATOM      8  C   UNL     1       2.642   6.245  19.679  0.00  0.00    +0.000 A 
ATOM      9  C   UNL     1       3.925   6.368  19.181  0.00  0.00    +0.000 A 
ATOM     10  N   UNL     1       4.414   5.106  18.918  0.00  0.00    +0.000 N 
ATOM     11  H   UNL     1       0.545   2.152  20.058  0.00  0.00    +0.000 HD
ENDROOT
BRANCH   8  12
ATOM     12  C   UNL     1       1.825   7.388  20.161  0.00  0.00    +0.000 A 
ATOM     13  C   UNL     1       1.532   8.540  19.451  0.00  0.00    +0.000 A 
ATOM     14  C   UNL     1       0.773   9.378  20.307  0.00  0.00    +0.000 A 
ATOM     15  C   UNL     1       0.184  10.650  20.207  0.00  0.00    +0.000 A 
ATOM     16  C   UNL     1      -0.489  11.165  21.324  0.00  0.00    +0.000 A 
ATOM     17  C   UNL     1      -0.579  10.435  22.512  0.00  0.00    +0.000 A 
ATOM     18  C   UNL     1      -0.010   9.162  22.625  0.00  0.00    +0.000 A 
ATOM     19  C   UNL     1       0.651   8.678  21.499  0.00  0.00    +0.000 A 
ATOM     20  O   UNL     1       1.272   7.474  21.405  0.00  0.00    +0.000 OA
ENDBRANCH   8  12
BRANCH  10  21
ATOM     21  C1* UNL     1       5.786   4.840  18.513  0.00  0.00    +0.000 C 
ATOM     22  O4* UNL     1       6.659   5.885  18.996  0.00  0.00    +0.000 OA
ATOM     23  C4* UNL     1       7.609   6.202  17.947  0.00  0.00    +0.000 C 
ATOM     24  C3* UNL     1       7.443   5.143  16.861  0.00  0.00    +0.000 C 
ATOM     25  C2* UNL     1       5.993   4.707  17.004  0.00  0.00    +0.000 C 
BRANCH  24  26
ATOM     26  O3* UNL     1       8.277   3.994  17.109  0.00  0.00    +0.000 OA
ATOM     27  H3* UNL     1       8.230   3.767  18.055  0.00  0.00    +0.000 HD
ENDBRANCH  24  26
BRANCH  25  28
ATOM     28  O2* UNL     1       5.810   3.368  16.535  0.00  0.00    +0.000 OA
ATOM     29  H2* UNL     1       4.864   3.156  16.682  0.00  0.00    +0.000 HD
ENDBRANCH  25  28
BRANCH  23  30
ATOM     30  C5* UNL     1       7.348   7.625  17.447  0.00  0.00    +0.000 C 
BRANCH  30  31
ATOM     31  O5* UNL     1       8.264   8.527  18.063  0.00  0.00    +0.000 OA
ATOM     32  H5* UNL     1       8.270   8.289  19.011  0.00  0.00    +0.000 HD
ENDBRANCH  30  31
ENDBRANCH  23  30
ENDBRANCH  10  21
TORSDOF 6
ENDMDL
MODEL 4
REMARK VINA RESULT:      -8.2      1.310      1.708
REMARK  Name = 
REMARK  6 active torsions:
REMARK  status: ('A' for Active; 'I' for Inactive)
REMARK    1  A    between atoms: C_8  and  C_9
REMARK    2  A    between atoms: N_19  and  C1*_20
REMARK    3  A    between atoms: C4*_22  and  C5*_23
REMARK    4  A    between atoms: C5*_23  and  O5*_24
REMARK    5  A    between atoms: C3*_25  and  O3*_26
REMARK    6  A    between atoms: C2*_27  and  O2*_28
REMARK                            x       y       z     vdW  Elec       q    Type
REMARK                         _______ _______ _______ _____ _____    ______ ____
ROOT
ATOM      1  O   UNL     1       0.143   4.822  20.632  0.00  0.00    +0.000 OA
ATOM      2  C   UNL     1       1.190   4.335  20.225  0.00  0.00    +0.000 A 
ATOM      3  N   UNL     1       1.358   2.963  20.169  0.00  0.00    +0.000 N 
ATOM      4  C   UNL     1       2.507   2.354  19.721  0.00  0.00    +0.000 A 
ATOM      5  N   UNL     1       3.563   2.976  19.298  0.00  0.00    +0.000 NA
ATOM      6  C   UNL     1       3.440   4.325  19.322  0.00  0.00    +0.000 A 
ATOM      7  C   UNL     1       2.347   5.062  19.753  0.00  0.00    +0.000 A 
ATOM      8  C   UNL     1       2.679   6.430  19.618  0.00  0.00    +0.000 A 
ATOM      9  C   UNL     1       3.949   6.488  19.077  0.00  0.00    +0.000 A 
ATOM     10  N   UNL     1       4.424   5.201  18.938  0.00  0.00    +0.000 N 
ATOM     11  H   UNL     1       0.570   2.419  20.485  0.00  0.00    +0.000 HD
ENDROOT
BRANCH   8  12
ATOM     12  C   UNL     1       1.881   7.625  19.995  0.00  0.00    +0.000 A 
ATOM     13  C   UNL     1       1.360   7.897  21.248  0.00  0.00    +0.000 A 
ATOM     14  C   UNL     1       0.632   9.110  21.144  0.00  0.00    +0.000 A 
ATOM     15  C   UNL     1      -0.121   9.910  22.020  0.00  0.00    +0.000 A 
ATOM     16  C   UNL     1      -0.730  11.067  21.514  0.00  0.00    +0.000 A 
ATOM     17  C   UNL     1      -0.594  11.424  20.169  0.00  0.00    +0.000 A 
ATOM     18  C   UNL     1       0.162  10.646  19.287  0.00  0.00    +0.000 A 
ATOM     19  C   UNL     1       0.754   9.505  19.820  0.00  0.00    +0.000 A 
ATOM     20  O   UNL     1       1.519   8.618  19.132  0.00  0.00    +0.000 OA
ENDBRANCH   8  12
BRANCH  10  21
ATOM     21  C1* UNL     1       5.783   4.882  18.529  0.00  0.00    +0.000 C 
ATOM     22  O4* UNL     1       6.701   5.876  19.034  0.00  0.00    +0.000 OA
ATOM     23  C4* UNL     1       7.666   6.172  17.993  0.00  0.00    +0.000 C 
ATOM     24  C3* UNL     1       7.455   5.144  16.884  0.00  0.00    +0.000 C 
ATOM     25  C2* UNL     1       5.987   4.771  17.017  0.00  0.00    +0.000 C 
BRANCH  24  26
ATOM     26  O3* UNL     1       8.236   3.954  17.110  0.00  0.00    +0.000 OA
ATOM     27  H3* UNL     1       8.640   3.676  16.269  0.00  0.00    +0.000 HD
ENDBRANCH  24  26
BRANCH  25  28
ATOM     28  O2* UNL     1       5.744   3.452  16.521  0.00  0.00    +0.000 OA
ATOM     29  H2* UNL     1       6.458   2.888  16.889  0.00  0.00    +0.000 HD
ENDBRANCH  25  28
BRANCH  23  30
ATOM     30  C5* UNL     1       7.471   7.615  17.522  0.00  0.00    +0.000 C 
BRANCH  30  31
ATOM     31  O5* UNL     1       8.308   8.486  18.279  0.00  0.00    +0.000 OA
ATOM     32  H5* UNL     1       9.051   7.931  18.590  0.00  0.00    +0.000 HD
ENDBRANCH  30  31
ENDBRANCH  23  30
ENDBRANCH  10  21
TORSDOF 6
ENDMDL
MODEL 5
REMARK VINA RESULT:      -7.8      1.565      2.754
REMARK  Name = 
REMARK  6 active torsions:
REMARK  status: ('A' for Active; 'I' for Inactive)
REMARK    1  A    between atoms: C_8  and  C_9
REMARK    2  A    between atoms: N_19  and  C1*_20
REMARK    3  A    between atoms: C4*_22  and  C5*_23
REMARK    4  A    between atoms: C5*_23  and  O5*_24
REMARK    5  A    between atoms: C3*_25  and  O3*_26
REMARK    6  A    between atoms: C2*_27  and  O2*_28
REMARK                            x       y       z     vdW  Elec       q    Type
REMARK                         _______ _______ _______ _____ _____    ______ ____
ROOT
ATOM      1  O   UNL     1       1.127   4.464  19.959  0.00  0.00    +0.000 OA
ATOM      2  C   UNL     1       2.004   4.270  19.127  0.00  0.00    +0.000 A 
ATOM      3  N   UNL     1       2.321   2.986  18.718  0.00  0.00    +0.000 N 
ATOM      4  C   UNL     1       3.293   2.702  17.788  0.00  0.00    +0.000 A 
ATOM      5  N   UNL     1       4.025   3.585  17.182  0.00  0.00    +0.000 NA
ATOM      6  C   UNL     1       3.741   4.859  17.542  0.00  0.00    +0.000 A 
ATOM      7  C   UNL     1       2.797   5.282  18.465  0.00  0.00    +0.000 A 
ATOM      8  C   UNL     1       2.869   6.692  18.530  0.00  0.00    +0.000 A 
ATOM      9  C   UNL     1       3.830   7.092  17.620  0.00  0.00    +0.000 A 
ATOM     10  N   UNL     1       4.387   5.966  17.051  0.00  0.00    +0.000 N 
ATOM     11  H   UNL     1       1.785   2.251  19.154  0.00  0.00    +0.000 HD
ENDROOT
BRANCH   8  12
ATOM     12  C   UNL     1       2.116   7.626  19.406  0.00  0.00    +0.000 A 
ATOM     13  C   UNL     1       1.862   7.455  20.756  0.00  0.00    +0.000 A 
ATOM     14  C   UNL     1       1.073   8.556  21.177  0.00  0.00    +0.000 A 
ATOM     15  C   UNL     1       0.488   8.971  22.385  0.00  0.00    +0.000 A 
ATOM     16  C   UNL     1      -0.268  10.153  22.391  0.00  0.00    +0.000 A 
ATOM     17  C   UNL     1      -0.438  10.905  21.226  0.00  0.00    +0.000 A 
ATOM     18  C   UNL     1       0.147  10.513  20.018  0.00  0.00    +0.000 A 
ATOM     19  C   UNL     1       0.892   9.337  20.045  0.00  0.00    +0.000 A 
ATOM     20  O   UNL     1       1.533   8.784  18.983  0.00  0.00    +0.000 OA
ENDBRANCH   8  12
BRANCH  10  21
ATOM     21  C1* UNL     1       5.528   5.999  16.149  0.00  0.00    +0.000 C 
ATOM     22  O4* UNL     1       5.094   5.779  14.789  0.00  0.00    +0.000 OA
ATOM     23  C4* UNL     1       6.050   4.899  14.145  0.00  0.00    +0.000 C 
ATOM     24  C3* UNL     1       7.237   4.761  15.094  0.00  0.00    +0.000 C 
ATOM     25  C2* UNL     1       6.625   4.982  16.468  0.00  0.00    +0.000 C 
BRANCH  24  26
ATOM     26  O3* UNL     1       8.215   5.796  14.873  0.00  0.00    +0.000 OA
ATOM     27  H3* UNL     1       8.840   5.501  14.187  0.00  0.00    +0.000 HD
ENDBRANCH  24  26
BRANCH  25  28
ATOM     28  O2* UNL     1       7.596   5.486  17.389  0.00  0.00    +0.000 OA
ATOM     29  H2* UNL     1       8.473   5.267  17.006  0.00  0.00    +0.000 HD
ENDBRANCH  25  28
BRANCH  23  30
ATOM     30  C5* UNL     1       5.371   3.565  13.829  0.00  0.00    +0.000 C 
BRANCH  30  31
ATOM     31  O5* UNL     1       6.014   2.948  12.716  0.00  0.00    +0.000 OA
ATOM     32  H5* UNL     1       5.293   2.665  12.120  0.00  0.00    +0.000 HD
ENDBRANCH  30  31
ENDBRANCH  23  30
ENDBRANCH  10  21
TORSDOF 6
ENDMDL
MODEL 6
REMARK VINA RESULT:      -7.8      1.238      2.126
REMARK  Name = 
REMARK  6 active torsions:
REMARK  status: ('A' for Active; 'I' for Inactive)
REMARK    1  A    between atoms: C_8  and  C_9
REMARK    2  A    between atoms: N_19  and  C1*_20
REMARK    3  A    between atoms: C4*_22  and  C5*_23
REMARK    4  A    between atoms: C5*_23  and  O5*_24
REMARK    5  A    between atoms: C3*_25  and  O3*_26
REMARK    6  A    between atoms: C2*_27  and  O2*_28
REMARK                            x       y       z     vdW  Elec       q    Type
REMARK                         _______ _______ _______ _____ _____    ______ ____
ROOT
ATOM      1  O   UNL     1       0.852   4.892  20.680  0.00  0.00    +0.000 OA
ATOM      2  C   UNL     1       1.778   4.719  19.898  0.00  0.00    +0.000 A 
ATOM      3  N   UNL     1       2.223   3.443  19.599  0.00  0.00    +0.000 N 
ATOM      4  C   UNL     1       3.256   3.181  18.730  0.00  0.00    +0.000 A 
ATOM      5  N   UNL     1       3.933   4.080  18.085  0.00  0.00    +0.000 NA
ATOM      6  C   UNL     1       3.523   5.346  18.337  0.00  0.00    +0.000 A 
ATOM      7  C   UNL     1       2.507   5.747  19.190  0.00  0.00    +0.000 A 
ATOM      8  C   UNL     1       2.452   7.160  19.151  0.00  0.00    +0.000 A 
ATOM      9  C   UNL     1       3.413   7.577  18.249  0.00  0.00    +0.000 A 
ATOM     10  N   UNL     1       4.090   6.469  17.787  0.00  0.00    +0.000 N 
ATOM     11  H   UNL     1       1.736   2.695  20.070  0.00  0.00    +0.000 HD
ENDROOT
BRANCH   8  12
ATOM     12  C   UNL     1       1.583   8.082  19.925  0.00  0.00    +0.000 A 
ATOM     13  C   UNL     1       0.968   9.224  19.442  0.00  0.00    +0.000 A 
ATOM     14  C   UNL     1       0.282   9.822  20.530  0.00  0.00    +0.000 A 
ATOM     15  C   UNL     1      -0.510  10.969  20.712  0.00  0.00    +0.000 A 
ATOM     16  C   UNL     1      -1.007  11.242  21.995  0.00  0.00    +0.000 A 
ATOM     17  C   UNL     1      -0.727  10.396  23.072  0.00  0.00    +0.000 A 
ATOM     18  C   UNL     1       0.048   9.244  22.905  0.00  0.00    +0.000 A 
ATOM     19  C   UNL     1       0.526   9.000  21.621  0.00  0.00    +0.000 A 
ATOM     20  O   UNL     1       1.298   7.945  21.252  0.00  0.00    +0.000 OA
ENDBRANCH   8  12
BRANCH  10  21
ATOM     21  C1* UNL     1       5.262   6.539  16.928  0.00  0.00    +0.000 C 
ATOM     22  O4* UNL     1       4.916   6.146  15.582  0.00  0.00    +0.000 OA
ATOM     23  C4* UNL     1       5.987   5.318  15.063  0.00  0.00    +0.000 C 
ATOM     24  C3* UNL     1       7.138   5.400  16.062  0.00  0.00    +0.000 C 
ATOM     25  C2* UNL     1       6.443   5.682  17.385  0.00  0.00    +0.000 C 
BRANCH  24  26
ATOM     26  O3* UNL     1       8.011   6.509  15.775  0.00  0.00    +0.000 OA
ATOM     27  H3* UNL     1       8.195   6.991  16.601  0.00  0.00    +0.000 HD
ENDBRANCH  24  26
BRANCH  25  28
ATOM     28  O2* UNL     1       7.313   6.374  18.285  0.00  0.00    +0.000 OA
ATOM     29  H2* UNL     1       8.118   5.819  18.365  0.00  0.00    +0.000 HD
ENDBRANCH  25  28
BRANCH  23  30
ATOM     30  C5* UNL     1       5.467   3.894  14.857  0.00  0.00    +0.000 C 
BRANCH  30  31
ATOM     31  O5* UNL     1       6.045   3.024  15.828  0.00  0.00    +0.000 OA
ATOM     32  H5* UNL     1       6.084   3.544  16.655  0.00  0.00    +0.000 HD
ENDBRANCH  30  31
ENDBRANCH  23  30
ENDBRANCH  10  21
TORSDOF 6
ENDMDL
MODEL 7
REMARK VINA RESULT:      -7.7      1.152      1.424
REMARK  Name = 
REMARK  6 active torsions:
REMARK  status: ('A' for Active; 'I' for Inactive)
REMARK    1  A    between atoms: C_8  and  C_9
REMARK    2  A    between atoms: N_19  and  C1*_20
REMARK    3  A    between atoms: C4*_22  and  C5*_23
REMARK    4  A    between atoms: C5*_23  and  O5*_24
REMARK    5  A    between atoms: C3*_25  and  O3*_26
REMARK    6  A    between atoms: C2*_27  and  O2*_28
REMARK                            x       y       z     vdW  Elec       q    Type
REMARK                         _______ _______ _______ _____ _____    ______ ____
ROOT
ATOM      1  O   UNL     1       0.750   6.050  21.191  0.00  0.00    +0.000 OA
ATOM      2  C   UNL     1       1.615   5.408  20.609  0.00  0.00    +0.000 A 
ATOM      3  N   UNL     1       1.877   4.095  20.958  0.00  0.00    +0.000 N 
ATOM      4  C   UNL     1       2.832   3.319  20.344  0.00  0.00    +0.000 A 
ATOM      5  N   UNL     1       3.597   3.711  19.372  0.00  0.00    +0.000 NA
ATOM      6  C   UNL     1       3.366   4.989  18.986  0.00  0.00    +0.000 A 
ATOM      7  C   UNL     1       2.445   5.876  19.522  0.00  0.00    +0.000 A 
ATOM      8  C   UNL     1       2.575   7.097  18.821  0.00  0.00    +0.000 A 
ATOM      9  C   UNL     1       3.547   6.909  17.856  0.00  0.00    +0.000 A 
ATOM     10  N   UNL     1       4.054   5.635  17.990  0.00  0.00    +0.000 N 
ATOM     11  H   UNL     1       1.314   3.729  21.711  0.00  0.00    +0.000 HD
ENDROOT
BRANCH   8  12
ATOM     12  C   UNL     1       1.865   8.382  19.045  0.00  0.00    +0.000 A 
ATOM     13  C   UNL     1       1.704   9.400  18.121  0.00  0.00    +0.000 A 
ATOM     14  C   UNL     1       1.012  10.452  18.773  0.00  0.00    +0.000 A 
ATOM     15  C   UNL     1       0.556  11.731  18.412  0.00  0.00    +0.000 A 
ATOM     16  C   UNL     1      -0.089  12.510  19.384  0.00  0.00    +0.000 A 
ATOM     17  C   UNL     1      -0.278  12.031  20.683  0.00  0.00    +0.000 A 
ATOM     18  C   UNL     1       0.159  10.756  21.056  0.00  0.00    +0.000 A 
ATOM     19  C   UNL     1       0.794  10.007  20.069  0.00  0.00    +0.000 A 
ATOM     20  O   UNL     1       1.295   8.755  20.228  0.00  0.00    +0.000 OA
ENDBRANCH   8  12
BRANCH  10  21
ATOM     21  C1* UNL     1       5.191   5.135  17.232  0.00  0.00    +0.000 C 
ATOM     22  O4* UNL     1       6.101   4.430  18.104  0.00  0.00    +0.000 OA
ATOM     23  C4* UNL     1       7.456   4.789  17.732  0.00  0.00    +0.000 C 
ATOM     24  C3* UNL     1       7.365   5.575  16.426  0.00  0.00    +0.000 C 
ATOM     25  C2* UNL     1       5.984   6.209  16.485  0.00  0.00    +0.000 C 
BRANCH  24  26
ATOM     26  O3* UNL     1       7.403   4.703  15.280  0.00  0.00    +0.000 OA
ATOM     27  H3* UNL     1       8.306   4.351  15.179  0.00  0.00    +0.000 HD
ENDBRANCH  24  26
BRANCH  25  28
ATOM     28  O2* UNL     1       5.477   6.459  15.172  0.00  0.00    +0.000 OA
ATOM     29  H2* UNL     1       6.232   6.807  14.650  0.00  0.00    +0.000 HD
ENDBRANCH  25  28
BRANCH  23  30
ATOM     30  C5* UNL     1       8.096   5.585  18.871  0.00  0.00    +0.000 C 
BRANCH  30  31
ATOM     31  O5* UNL     1       7.316   5.443  20.056  0.00  0.00    +0.000 OA
ATOM     32  H5* UNL     1       7.778   4.771  20.596  0.00  0.00    +0.000 HD
ENDBRANCH  30  31
ENDBRANCH  23  30
ENDBRANCH  10  21
TORSDOF 6
ENDMDL
MODEL 8
REMARK VINA RESULT:      -7.5      1.811      2.366
REMARK  Name = 
REMARK  6 active torsions:
REMARK  status: ('A' for Active; 'I' for Inactive)
REMARK    1  A    between atoms: C_8  and  C_9
REMARK    2  A    between atoms: N_19  and  C1*_20
REMARK    3  A    between atoms: C4*_22  and  C5*_23
REMARK    4  A    between atoms: C5*_23  and  O5*_24
REMARK    5  A    between atoms: C3*_25  and  O3*_26
REMARK    6  A    between atoms: C2*_27  and  O2*_28
REMARK                            x       y       z     vdW  Elec       q    Type
REMARK                         _______ _______ _______ _____ _____    ______ ____
ROOT
ATOM      1  O   UNL     1       0.675   7.250  21.065  0.00  0.00    +0.000 OA
ATOM      2  C   UNL     1       1.534   6.500  20.620  0.00  0.00    +0.000 A 
ATOM      3  N   UNL     1       1.794   5.282  21.224  0.00  0.00    +0.000 N 
ATOM      4  C   UNL     1       2.743   4.395  20.773  0.00  0.00    +0.000 A 
ATOM      5  N   UNL     1       3.503   4.581  19.739  0.00  0.00    +0.000 NA
ATOM      6  C   UNL     1       3.275   5.757  19.106  0.00  0.00    +0.000 A 
ATOM      7  C   UNL     1       2.360   6.736  19.457  0.00  0.00    +0.000 A 
ATOM      8  C   UNL     1       2.490   7.792  18.524  0.00  0.00    +0.000 A 
ATOM      9  C   UNL     1       3.456   7.410  17.612  0.00  0.00    +0.000 A 
ATOM     10  N   UNL     1       3.960   6.186  17.997  0.00  0.00    +0.000 N 
ATOM     11  H   UNL     1       1.234   5.077  22.038  0.00  0.00    +0.000 HD
ENDROOT
BRANCH   8  12
ATOM     12  C   UNL     1       1.786   9.099  18.490  0.00  0.00    +0.000 A 
ATOM     13  C   UNL     1       2.380  10.345  18.393  0.00  0.00    +0.000 A 
ATOM     14  C   UNL     1       1.341  11.310  18.445  0.00  0.00    +0.000 A 
ATOM     15  C   UNL     1       1.268  12.712  18.406  0.00  0.00    +0.000 A 
ATOM     16  C   UNL     1       0.008  13.320  18.514  0.00  0.00    +0.000 A 
ATOM     17  C   UNL     1      -1.152  12.554  18.657  0.00  0.00    +0.000 A 
ATOM     18  C   UNL     1      -1.098  11.156  18.686  0.00  0.00    +0.000 A 
ATOM     19  C   UNL     1       0.166  10.584  18.575  0.00  0.00    +0.000 A 
ATOM     20  O   UNL     1       0.433   9.252  18.587  0.00  0.00    +0.000 OA
ENDBRANCH   8  12
BRANCH  10  21
ATOM     21  C1* UNL     1       5.091   5.540  17.349  0.00  0.00    +0.000 C 
ATOM     22  O4* UNL     1       5.934   4.905  18.335  0.00  0.00    +0.000 OA
ATOM     23  C4* UNL     1       7.317   5.147  17.972  0.00  0.00    +0.000 C 
ATOM     24  C3* UNL     1       7.309   5.767  16.576  0.00  0.00    +0.000 C 
ATOM     25  C2* UNL     1       5.963   6.471  16.505  0.00  0.00    +0.000 C 
BRANCH  24  26
ATOM     26  O3* UNL     1       7.335   4.757  15.548  0.00  0.00    +0.000 OA
ATOM     27  H3* UNL     1       6.422   4.562  15.272  0.00  0.00    +0.000 HD
ENDBRANCH  24  26
BRANCH  25  28
ATOM     28  O2* UNL     1       5.510   6.579  15.153  0.00  0.00    +0.000 OA
ATOM     29  H2* UNL     1       5.175   5.691  14.906  0.00  0.00    +0.000 HD
ENDBRANCH  25  28
BRANCH  23  30
ATOM     30  C5* UNL     1       7.964   6.046  19.027  0.00  0.00    +0.000 C 
BRANCH  30  31
ATOM     31  O5* UNL     1       7.874   5.427  20.308  0.00  0.00    +0.000 OA
ATOM     32  H5* UNL     1       8.668   5.721  20.798  0.00  0.00    +0.000 HD
ENDBRANCH  30  31
ENDBRANCH  23  30
ENDBRANCH  10  21
TORSDOF 6
ENDMDL
MODEL 9
REMARK VINA RESULT:      -7.4      1.052      1.136
REMARK  Name = 
REMARK  6 active torsions:
REMARK  status: ('A' for Active; 'I' for Inactive)
REMARK    1  A    between atoms: C_8  and  C_9
REMARK    2  A    between atoms: N_19  and  C1*_20
REMARK    3  A    between atoms: C4*_22  and  C5*_23
REMARK    4  A    between atoms: C5*_23  and  O5*_24
REMARK    5  A    between atoms: C3*_25  and  O3*_26
REMARK    6  A    between atoms: C2*_27  and  O2*_28
REMARK                            x       y       z     vdW  Elec       q    Type
REMARK                         _______ _______ _______ _____ _____    ______ ____
ROOT
ATOM      1  O   UNL     1       1.634   4.721  21.581  0.00  0.00    +0.000 OA
ATOM      2  C   UNL     1       2.361   4.305  20.689  0.00  0.00    +0.000 A 
ATOM      3  N   UNL     1       2.838   3.005  20.712  0.00  0.00    +0.000 N 
ATOM      4  C   UNL     1       3.656   2.477  19.741  0.00  0.00    +0.000 A 
ATOM      5  N   UNL     1       4.078   3.115  18.694  0.00  0.00    +0.000 NA
ATOM      6  C   UNL     1       3.626   4.390  18.622  0.00  0.00    +0.000 A 
ATOM      7  C   UNL     1       2.807   5.045  19.529  0.00  0.00    +0.000 A 
ATOM      8  C   UNL     1       2.616   6.363  19.055  0.00  0.00    +0.000 A 
ATOM      9  C   UNL     1       3.295   6.464  17.855  0.00  0.00    +0.000 A 
ATOM     10  N   UNL     1       3.943   5.270  17.618  0.00  0.00    +0.000 N 
ATOM     11  H   UNL     1       2.545   2.454  21.504  0.00  0.00    +0.000 HD
ENDROOT
BRANCH   8  12
ATOM     12  C   UNL     1       1.874   7.484  19.686  0.00  0.00    +0.000 A 
ATOM     13  C   UNL     1       1.566   8.696  19.093  0.00  0.00    +0.000 A 
ATOM     14  C   UNL     1       0.899   9.482  20.068  0.00  0.00    +0.000 A 
ATOM     15  C   UNL     1       0.345  10.772  20.114  0.00  0.00    +0.000 A 
ATOM     16  C   UNL     1      -0.227  11.213  21.316  0.00  0.00    +0.000 A 
ATOM     17  C   UNL     1      -0.251  10.392  22.446  0.00  0.00    +0.000 A 
ATOM     18  C   UNL     1       0.284   9.100  22.415  0.00  0.00    +0.000 A 
ATOM     19  C   UNL     1       0.844   8.692  21.207  0.00  0.00    +0.000 A 
ATOM     20  O   UNL     1       1.418   7.484  20.972  0.00  0.00    +0.000 OA
ENDBRANCH   8  12
BRANCH  10  21
ATOM     21  C1* UNL     1       4.868   5.059  16.515  0.00  0.00    +0.000 C 
ATOM     22  O4* UNL     1       5.754   3.958  16.812  0.00  0.00    +0.000 OA
ATOM     23  C4* UNL     1       7.088   4.319  16.371  0.00  0.00    +0.000 C 
ATOM     24  C3* UNL     1       6.957   5.610  15.566  0.00  0.00    +0.000 C 
ATOM     25  C2* UNL     1       5.723   6.275  16.155  0.00  0.00    +0.000 C 
BRANCH  24  26
ATOM     26  O3* UNL     1       6.694   5.341  14.175  0.00  0.00    +0.000 OA
ATOM     27  H3* UNL     1       7.008   6.094  13.642  0.00  0.00    +0.000 HD
ENDBRANCH  24  26
BRANCH  25  28
ATOM     28  O2* UNL     1       5.093   7.130  15.197  0.00  0.00    +0.000 OA
ATOM     29  H2* UNL     1       4.629   6.538  14.567  0.00  0.00    +0.000 HD
ENDBRANCH  25  28
BRANCH  23  30
ATOM     30  C5* UNL     1       8.000   4.460  17.592  0.00  0.00    +0.000 C 
BRANCH  30  31
ATOM     31  O5* UNL     1       7.213   4.484  18.781  0.00  0.00    +0.000 OA
ATOM     32  H5* UNL     1       7.722   5.022  19.421  0.00  0.00    +0.000 HD
ENDBRANCH  30  31
ENDBRANCH  23  30
ENDBRANCH  10  21
TORSDOF 6
ENDMDL
