MODEL 1
REMARK VINA RESULT:      -7.5      0.000      0.000
REMARK  Name = 
REMARK  7 active torsions:
REMARK  status: ('A' for Active; 'I' for Inactive)
REMARK    1  A    between atoms: C_2  and  C_18
REMARK    2  A    between atoms: N_3  and  C_4
REMARK    3  A    between atoms: C_11  and  C_12
REMARK    4  A    between atoms: C_12  and  O_14
REMARK    5  A    between atoms: C_18  and  S_19
REMARK    6  A    between atoms: C_18  and  C_20
REMARK    7  A    between atoms: C_20  and  C_21
REMARK                            x       y       z     vdW  Elec       q    Type
REMARK                         _______ _______ _______ _____ _____    ______ ____
ROOT
ATOM      1  C   UNK A   1       3.598   5.345  19.399  0.00  0.00    +0.000 C 
ATOM      2  C   UNK A   1       2.858   4.091  18.979  0.00  0.00    +0.000 C 
ATOM      3  S   UNK A   1       3.083   3.569  17.269  0.00  0.00    +0.000 S 
ATOM      4  C   UNK A   1       4.789   4.020  16.942  0.00  0.00    +0.000 C 
ATOM      5  C   UNK A   1       4.906   4.332  15.444  0.00  0.00    +0.000 C 
ATOM      6  C   UNK A   1       6.374   4.216  15.067  0.00  0.00    +0.000 C 
ATOM      7  C   UNK A   1       7.190   5.217  15.868  0.00  0.00    +0.000 C 
ATOM      8  C   UNK A   1       6.890   5.234  17.389  0.00  0.00    +0.000 C 
ATOM      9  N   UNK A   1       5.428   5.095  17.696  0.00  0.00    +0.000 N 
ATOM     10  C   UNK A   1       5.090   5.266  19.046  0.00  0.00    +0.000 C 
ATOM     11  O   UNK A   1       5.945   5.465  19.899  0.00  0.00    +0.000 OA
ENDROOT
BRANCH   1  14
ATOM     12  O   UNK A   0       1.733   6.829  20.967  0.00  0.00    +0.000 OA
ATOM     13  C   UNK A   0       2.094   7.303  19.870  0.00  0.00    +0.000 C 
ATOM     14  N   UNK A   1       2.962   6.633  19.046  0.00  0.00    +0.000 N 
ATOM     15  H   UNK A   1       3.060   6.933  18.088  0.00  0.00    +0.000 HD
BRANCH  13  16
ATOM     16  C   UNK A   0       1.604   8.696  19.478  0.00  0.00    +0.000 C 
BRANCH  16  17
ATOM     17  S   UNK A   0       2.204   9.067  17.781  0.00  0.00    +0.000 S 
ATOM     18  H   UNK A   0       1.375  10.089  17.518  0.00  0.00    +0.000 HD
ENDBRANCH  16  17
BRANCH  16  19
ATOM     19  C   UNK A   0       0.108   8.963  19.613  0.00  0.00    +0.000 C 
BRANCH  19  20
ATOM     20  C   UNK A   0      -0.260   9.857  20.780  0.00  0.00    +0.000 A 
ATOM     21  C   UNK A   0      -0.502  11.231  20.620  0.00  0.00    +0.000 A 
ATOM     22  C   UNK A   0      -0.877  12.022  21.707  0.00  0.00    +0.000 A 
ATOM     23  C   UNK A   0      -1.005  11.453  22.968  0.00  0.00    +0.000 A 
ATOM     24  C   UNK A   0      -0.753  10.095  23.148  0.00  0.00    +0.000 A 
ATOM     25  C   UNK A   0      -0.386   9.299  22.061  0.00  0.00    +0.000 A 
ENDBRANCH  19  20
ENDBRANCH  16  19
ENDBRANCH  13  16
ENDBRANCH   1  14
BRANCH   8  26
ATOM     26  C   UNK A   1       7.552   6.538  17.887  0.00  0.00    +0.000 C 
ATOM     27  O   UNK A   2       7.507   7.621  17.291  0.00  0.00    +0.000 OA
BRANCH  26  28
ATOM     28  O   UNK A   2       8.323   6.369  18.992  0.00  0.00    +0.000 OA
ATOM     29  H   UNK A   2       7.849   6.042  19.782  0.00  0.00    +0.000 HD
ENDBRANCH  26  28
ENDBRANCH   8  26
TORSDOF 7
ENDMDL
MODEL 2
REMARK VINA RESULT:      -7.3      1.307      1.783
REMARK  Name = 
REMARK  7 active torsions:
REMARK  status: ('A' for Active; 'I' for Inactive)
REMARK    1  A    between atoms: C_2  and  C_18
REMARK    2  A    between atoms: N_3  and  C_4
REMARK    3  A    between atoms: C_11  and  C_12
REMARK    4  A    between atoms: C_12  and  O_14
REMARK    5  A    between atoms: C_18  and  S_19
REMARK    6  A    between atoms: C_18  and  C_20
REMARK    7  A    between atoms: C_20  and  C_21
REMARK                            x       y       z     vdW  Elec       q    Type
REMARK                         _______ _______ _______ _____ _____    ______ ____
ROOT
ATOM      1  C   UNK A   1       3.443   5.072  19.447  0.00  0.00    +0.000 C 
ATOM      2  C   UNK A   1       2.604   3.967  18.837  0.00  0.00    +0.000 C 
ATOM      3  S   UNK A   1       2.935   3.578  17.108  0.00  0.00    +0.000 S 
ATOM      4  C   UNK A   1       4.706   3.834  16.979  0.00  0.00    +0.000 C 
ATOM      5  C   UNK A   1       5.009   4.264  15.538  0.00  0.00    +0.000 C 
ATOM      6  C   UNK A   1       6.483   3.996  15.281  0.00  0.00    +0.000 C 
ATOM      7  C   UNK A   1       7.328   4.807  16.249  0.00  0.00    +0.000 C 
ATOM      8  C   UNK A   1       6.882   4.724  17.731  0.00  0.00    +0.000 C 
ATOM      9  N   UNK A   1       5.390   4.745  17.894  0.00  0.00    +0.000 N 
ATOM     10  C   UNK A   1       4.942   4.835  19.219  0.00  0.00    +0.000 C 
ATOM     11  O   UNK A   1       5.726   4.844  20.160  0.00  0.00    +0.000 OA
ENDROOT
BRANCH   1  14
ATOM     12  O   UNK A   0       1.510   6.581  20.904  0.00  0.00    +0.000 OA
ATOM     13  C   UNK A   0       2.086   7.129  19.941  0.00  0.00    +0.000 C 
ATOM     14  N   UNK A   1       3.003   6.457  19.173  0.00  0.00    +0.000 N 
ATOM     15  H   UNK A   1       3.281   6.849  18.287  0.00  0.00    +0.000 HD
BRANCH  13  16
ATOM     16  C   UNK A   0       1.807   8.606  19.664  0.00  0.00    +0.000 C 
BRANCH  16  17
ATOM     17  S   UNK A   0       1.970   8.900  17.858  0.00  0.00    +0.000 S 
ATOM     18  H   UNK A   0       2.286  10.202  17.917  0.00  0.00    +0.000 HD
ENDBRANCH  16  17
BRANCH  16  19
ATOM     19  C   UNK A   0       0.498   9.171  20.207  0.00  0.00    +0.000 C 
BRANCH  19  20
ATOM     20  C   UNK A   0       0.098  10.502  19.602  0.00  0.00    +0.000 A 
ATOM     21  C   UNK A   0       0.860  11.667  19.793  0.00  0.00    +0.000 A 
ATOM     22  C   UNK A   0       0.489  12.870  19.191  0.00  0.00    +0.000 A 
ATOM     23  C   UNK A   0      -0.653  12.928  18.401  0.00  0.00    +0.000 A 
ATOM     24  C   UNK A   0      -1.428  11.785  18.214  0.00  0.00    +0.000 A 
ATOM     25  C   UNK A   0      -1.055  10.579  18.807  0.00  0.00    +0.000 A 
ENDBRANCH  19  20
ENDBRANCH  16  19
ENDBRANCH  13  16
ENDBRANCH   1  14
BRANCH   8  26
ATOM     26  C   UNK A   1       7.641   5.881  18.417  0.00  0.00    +0.000 C 
ATOM     27  O   UNK A   2       7.743   7.025  17.957  0.00  0.00    +0.000 OA
BRANCH  26  28
ATOM     28  O   UNK A   2       8.323   5.502  19.529  0.00  0.00    +0.000 OA
ATOM     29  H   UNK A   2       7.981   5.868  20.369  0.00  0.00    +0.000 HD
ENDBRANCH  26  28
ENDBRANCH   8  26
TORSDOF 7
ENDMDL
MODEL 3
REMARK VINA RESULT:      -7.2      1.915      2.151
REMARK  Name = 
REMARK  7 active torsions:
REMARK  status: ('A' for Active; 'I' for Inactive)
REMARK    1  A    between atoms: C_2  and  C_18
REMARK    2  A    between atoms: N_3  and  C_4
REMARK    3  A    between atoms: C_11  and  C_12
REMARK    4  A    between atoms: C_12  and  O_14
REMARK    5  A    between atoms: C_18  and  S_19
REMARK    6  A    between atoms: C_18  and  C_20
REMARK    7  A    between atoms: C_20  and  C_21
REMARK                            x       y       z     vdW  Elec       q    Type
REMARK                         _______ _______ _______ _____ _____    ______ ____
ROOT
ATOM      1  C   UNK A   1       3.934   5.068  19.543  0.00  0.00    +0.000 C 
ATOM      2  C   UNK A   1       3.341   3.747  19.096  0.00  0.00    +0.000 C 
ATOM      3  S   UNK A   1       3.480   3.365  17.341  0.00  0.00    +0.000 S 
ATOM      4  C   UNK A   1       5.069   4.076  16.908  0.00  0.00    +0.000 C 
ATOM      5  C   UNK A   1       5.006   4.490  15.432  0.00  0.00    +0.000 C 
ATOM      6  C   UNK A   1       6.435   4.611  14.929  0.00  0.00    +0.000 C 
ATOM      7  C   UNK A   1       7.173   5.670  15.731  0.00  0.00    +0.000 C 
ATOM      8  C   UNK A   1       7.013   5.554  17.268  0.00  0.00    +0.000 C 
ATOM      9  N   UNK A   1       5.618   5.186  17.683  0.00  0.00    +0.000 N 
ATOM     10  C   UNK A   1       5.384   5.227  19.065  0.00  0.00    +0.000 C 
ATOM     11  O   UNK A   1       6.277   5.497  19.857  0.00  0.00    +0.000 OA
ENDROOT
BRANCH   1  14
ATOM     12  O   UNK A   0       1.615   5.822  21.023  0.00  0.00    +0.000 OA
ATOM     13  C   UNK A   0       2.008   6.579  20.112  0.00  0.00    +0.000 C 
ATOM     14  N   UNK A   1       3.096   6.268  19.335  0.00  0.00    +0.000 N 
ATOM     15  H   UNK A   1       3.252   6.782  18.482  0.00  0.00    +0.000 HD
BRANCH  13  16
ATOM     16  C   UNK A   0       1.295   7.916  19.911  0.00  0.00    +0.000 C 
BRANCH  16  17
ATOM     17  S   UNK A   0       1.250   8.799  21.521  0.00  0.00    +0.000 S 
ATOM     18  H   UNK A   0       1.966   9.873  21.155  0.00  0.00    +0.000 HD
ENDBRANCH  16  17
BRANCH  16  19
ATOM     19  C   UNK A   0       1.819   8.814  18.794  0.00  0.00    +0.000 C 
BRANCH  19  20
ATOM     20  C   UNK A   0       1.056  10.113  18.632  0.00  0.00    +0.000 A 
ATOM     21  C   UNK A   0      -0.333  10.141  18.420  0.00  0.00    +0.000 A 
ATOM     22  C   UNK A   0      -1.015  11.353  18.314  0.00  0.00    +0.000 A 
ATOM     23  C   UNK A   0      -0.319  12.552  18.406  0.00  0.00    +0.000 A 
ATOM     24  C   UNK A   0       1.061  12.542  18.600  0.00  0.00    +0.000 A 
ATOM     25  C   UNK A   0       1.745  11.331  18.717  0.00  0.00    +0.000 A 
ENDBRANCH  19  20
ENDBRANCH  16  19
ENDBRANCH  13  16
ENDBRANCH   1  14
BRANCH   8  26
ATOM     26  C   UNK A   1       7.529   6.908  17.802  0.00  0.00    +0.000 C 
ATOM     27  O   UNK A   2       7.285   8.006  17.287  0.00  0.00    +0.000 OA
BRANCH  26  28
ATOM     28  O   UNK A   2       8.407   6.789  18.831  0.00  0.00    +0.000 OA
ATOM     29  H   UNK A   2       9.331   6.606  18.569  0.00  0.00    +0.000 HD
ENDBRANCH  26  28
ENDBRANCH   8  26
TORSDOF 7
ENDMDL
MODEL 4
REMARK VINA RESULT:      -6.9      0.713      1.189
REMARK  Name = 
REMARK  7 active torsions:
REMARK  status: ('A' for Active; 'I' for Inactive)
REMARK    1  A    between atoms: C_2  and  C_18
REMARK    2  A    between atoms: N_3  and  C_4
REMARK    3  A    between atoms: C_11  and  C_12
REMARK    4  A    between atoms: C_12  and  O_14
REMARK    5  A    between atoms: C_18  and  S_19
REMARK    6  A    between atoms: C_18  and  C_20
REMARK    7  A    between atoms: C_20  and  C_21
REMARK                            x       y       z     vdW  Elec       q    Type
REMARK                         _______ _______ _______ _____ _____    ______ ____
ROOT
ATOM      1  C   UNK A   1       3.533   5.357  19.443  0.00  0.00    +0.000 C 
ATOM      2  C   UNK A   1       2.767   4.140  18.963  0.00  0.00    +0.000 C 
ATOM      3  S   UNK A   1       3.021   3.668  17.242  0.00  0.00    +0.000 S 
ATOM      4  C   UNK A   1       4.747   4.076  16.973  0.00  0.00    +0.000 C 
ATOM      5  C   UNK A   1       4.912   4.433  15.490  0.00  0.00    +0.000 C 
ATOM      6  C   UNK A   1       6.386   4.286  15.146  0.00  0.00    +0.000 C 
ATOM      7  C   UNK A   1       7.210   5.235  16.000  0.00  0.00    +0.000 C 
ATOM      8  C   UNK A   1       6.871   5.212  17.512  0.00  0.00    +0.000 C 
ATOM      9  N   UNK A   1       5.398   5.107  17.779  0.00  0.00    +0.000 N 
ATOM     10  C   UNK A   1       5.030   5.244  19.125  0.00  0.00    +0.000 C 
ATOM     11  O   UNK A   1       5.868   5.389  20.005  0.00  0.00    +0.000 OA
ENDROOT
BRANCH   1  14
ATOM     12  O   UNK A   0       1.636   6.823  20.989  0.00  0.00    +0.000 OA
ATOM     13  C   UNK A   0       2.056   7.332  19.929  0.00  0.00    +0.000 C 
ATOM     14  N   UNK A   1       2.944   6.674  19.116  0.00  0.00    +0.000 N 
ATOM     15  H   UNK A   1       3.092   7.010  18.177  0.00  0.00    +0.000 HD
BRANCH  13  16
ATOM     16  C   UNK A   0       1.619   8.753  19.575  0.00  0.00    +0.000 C 
BRANCH  16  17
ATOM     17  S   UNK A   0       1.817   8.988  17.764  0.00  0.00    +0.000 S 
ATOM     18  H   UNK A   0       1.980  10.319  17.773  0.00  0.00    +0.000 HD
ENDBRANCH  16  17
BRANCH  16  19
ATOM     19  C   UNK A   0       0.233   9.183  20.046  0.00  0.00    +0.000 C 
BRANCH  19  20
ATOM     20  C   UNK A   0       0.183  10.576  20.639  0.00  0.00    +0.000 A 
ATOM     21  C   UNK A   0      -0.674  10.905  21.702  0.00  0.00    +0.000 A 
ATOM     22  C   UNK A   0      -0.670  12.187  22.253  0.00  0.00    +0.000 A 
ATOM     23  C   UNK A   0       0.182  13.159  21.743  0.00  0.00    +0.000 A 
ATOM     24  C   UNK A   0       1.026  12.854  20.678  0.00  0.00    +0.000 A 
ATOM     25  C   UNK A   0       1.031  11.571  20.131  0.00  0.00    +0.000 A 
ENDBRANCH  19  20
ENDBRANCH  16  19
ENDBRANCH  13  16
ENDBRANCH   1  14
BRANCH   8  26
ATOM     26  C   UNK A   1       7.558   6.477  18.070  0.00  0.00    +0.000 C 
ATOM     27  O   UNK A   2       7.529   7.589  17.528  0.00  0.00    +0.000 OA
BRANCH  26  28
ATOM     28  O   UNK A   2       8.330   6.242  19.162  0.00  0.00    +0.000 OA
ATOM     29  H   UNK A   2       7.857   6.263  20.017  0.00  0.00    +0.000 HD
ENDBRANCH  26  28
ENDBRANCH   8  26
TORSDOF 7
ENDMDL
MODEL 5
REMARK VINA RESULT:      -6.5      7.453     11.998
REMARK  Name = 
REMARK  7 active torsions:
REMARK  status: ('A' for Active; 'I' for Inactive)
REMARK    1  A    between atoms: C_2  and  C_18
REMARK    2  A    between atoms: N_3  and  C_4
REMARK    3  A    between atoms: C_11  and  C_12
REMARK    4  A    between atoms: C_12  and  O_14
REMARK    5  A    between atoms: C_18  and  S_19
REMARK    6  A    between atoms: C_18  and  C_20
REMARK    7  A    between atoms: C_20  and  C_21
REMARK                            x       y       z     vdW  Elec       q    Type
REMARK                         _______ _______ _______ _____ _____    ______ ____
ROOT
ATOM      1  C   UNK A   1      -2.211  13.011  23.298  0.00  0.00    +0.000 C 
ATOM      2  C   UNK A   1      -1.519  14.214  23.908  0.00  0.00    +0.000 C 
ATOM      3  S   UNK A   1      -2.369  15.794  23.734  0.00  0.00    +0.000 S 
ATOM      4  C   UNK A   1      -4.098  15.325  23.847  0.00  0.00    +0.000 C 
ATOM      5  C   UNK A   1      -4.906  16.334  23.021  0.00  0.00    +0.000 C 
ATOM      6  C   UNK A   1      -6.347  16.268  23.500  0.00  0.00    +0.000 C 
ATOM      7  C   UNK A   1      -6.895  14.867  23.285  0.00  0.00    +0.000 C 
ATOM      8  C   UNK A   1      -5.973  13.722  23.778  0.00  0.00    +0.000 C 
ATOM      9  N   UNK A   1      -4.523  13.975  23.486  0.00  0.00    +0.000 N 
ATOM     10  C   UNK A   1      -3.668  12.900  23.766  0.00  0.00    +0.000 C 
ATOM     11  O   UNK A   1      -4.089  11.860  24.258  0.00  0.00    +0.000 OA
ENDROOT
BRANCH   1  14
ATOM     12  O   UNK A   0       0.158  12.147  21.965  0.00  0.00    +0.000 OA
ATOM     13  C   UNK A   0      -0.861  12.367  21.279  0.00  0.00    +0.000 C 
ATOM     14  N   UNK A   1      -2.028  12.816  21.844  0.00  0.00    +0.000 N 
ATOM     15  H   UNK A   1      -2.751  13.187  21.247  0.00  0.00    +0.000 HD
BRANCH  13  16
ATOM     16  C   UNK A   0      -0.817  12.058  19.783  0.00  0.00    +0.000 C 
BRANCH  16  17
ATOM     17  S   UNK A   0       0.885  12.381  19.171  0.00  0.00    +0.000 S 
ATOM     18  H   UNK A   0       0.577  12.570  17.879  0.00  0.00    +0.000 HD
ENDBRANCH  16  17
BRANCH  16  19
ATOM     19  C   UNK A   0      -1.315  10.682  19.350  0.00  0.00    +0.000 C 
BRANCH  19  20
ATOM     20  C   UNK A   0      -2.194  10.699  18.116  0.00  0.00    +0.000 A 
ATOM     21  C   UNK A   0      -1.885   9.948  16.970  0.00  0.00    +0.000 A 
ATOM     22  C   UNK A   0      -2.734   9.953  15.863  0.00  0.00    +0.000 A 
ATOM     23  C   UNK A   0      -3.896  10.716  15.881  0.00  0.00    +0.000 A 
ATOM     24  C   UNK A   0      -4.208  11.480  17.004  0.00  0.00    +0.000 A 
ATOM     25  C   UNK A   0      -3.366  11.469  18.117  0.00  0.00    +0.000 A 
ENDBRANCH  19  20
ENDBRANCH  16  19
ENDBRANCH  13  16
ENDBRANCH   1  14
BRANCH   8  26
ATOM     26  C   UNK A   1      -6.570  12.455  23.130  0.00  0.00    +0.000 C 
ATOM     27  O   UNK A   2      -6.583  12.226  21.914  0.00  0.00    +0.000 OA
BRANCH  26  28
ATOM     28  O   UNK A   2      -7.219  11.647  24.008  0.00  0.00    +0.000 OA
ATOM     29  H   UNK A   2      -6.808  11.582  24.893  0.00  0.00    +0.000 HD
ENDBRANCH  26  28
ENDBRANCH   8  26
TORSDOF 7
ENDMDL
MODEL 6
REMARK VINA RESULT:      -6.4      1.366      1.842
REMARK  Name = 
REMARK  7 active torsions:
REMARK  status: ('A' for Active; 'I' for Inactive)
REMARK    1  A    between atoms: C_2  and  C_18
REMARK    2  A    between atoms: N_3  and  C_4
REMARK    3  A    between atoms: C_11  and  C_12
REMARK    4  A    between atoms: C_12  and  O_14
REMARK    5  A    between atoms: C_18  and  S_19
REMARK    6  A    between atoms: C_18  and  C_20
REMARK    7  A    between atoms: C_20  and  C_21
REMARK                            x       y       z     vdW  Elec       q    Type
REMARK                         _______ _______ _______ _____ _____    ______ ____
ROOT
ATOM      1  C   UNK A   1       3.281   5.613  19.107  0.00  0.00    +0.000 C 
ATOM      2  C   UNK A   1       2.564   4.325  18.754  0.00  0.00    +0.000 C 
ATOM      3  S   UNK A   1       2.923   3.633  17.130  0.00  0.00    +0.000 S 
ATOM      4  C   UNK A   1       4.655   4.044  16.901  0.00  0.00    +0.000 C 
ATOM      5  C   UNK A   1       4.899   4.204  15.395  0.00  0.00    +0.000 C 
ATOM      6  C   UNK A   1       6.392   4.047  15.154  0.00  0.00    +0.000 C 
ATOM      7  C   UNK A   1       7.150   5.121  15.917  0.00  0.00    +0.000 C 
ATOM      8  C   UNK A   1       6.726   5.292  17.398  0.00  0.00    +0.000 C 
ATOM      9  N   UNK A   1       5.242   5.188  17.595  0.00  0.00    +0.000 N 
ATOM     10  C   UNK A   1       4.795   5.495  18.889  0.00  0.00    +0.000 C 
ATOM     11  O   UNK A   1       5.580   5.776  19.786  0.00  0.00    +0.000 OA
ENDROOT
BRANCH   1  14
ATOM     12  O   UNK A   0       1.755   7.544  20.549  0.00  0.00    +0.000 OA
ATOM     13  C   UNK A   0       1.991   7.757  19.342  0.00  0.00    +0.000 C 
ATOM     14  N   UNK A   1       2.690   6.860  18.575  0.00  0.00    +0.000 N 
ATOM     15  H   UNK A   1       2.675   6.956  17.571  0.00  0.00    +0.000 HD
BRANCH  13  16
ATOM     16  C   UNK A   0       1.547   9.087  18.732  0.00  0.00    +0.000 C 
BRANCH  16  17
ATOM     17  S   UNK A   0       2.930   9.755  17.724  0.00  0.00    +0.000 S 
ATOM     18  H   UNK A   0       2.193  10.256  16.721  0.00  0.00    +0.000 HD
ENDBRANCH  16  17
BRANCH  16  19
ATOM     19  C   UNK A   0       0.237   9.081  17.951  0.00  0.00    +0.000 C 
BRANCH  19  20
ATOM     20  C   UNK A   0      -0.772  10.108  18.423  0.00  0.00    +0.000 A 
ATOM     21  C   UNK A   0      -0.512  10.967  19.504  0.00  0.00    +0.000 A 
ATOM     22  C   UNK A   0      -1.445  11.930  19.891  0.00  0.00    +0.000 A 
ATOM     23  C   UNK A   0      -2.653  12.040  19.213  0.00  0.00    +0.000 A 
ATOM     24  C   UNK A   0      -2.933  11.184  18.150  0.00  0.00    +0.000 A 
ATOM     25  C   UNK A   0      -1.999  10.226  17.753  0.00  0.00    +0.000 A 
ENDBRANCH  19  20
ENDBRANCH  16  19
ENDBRANCH  13  16
ENDBRANCH   1  14
BRANCH   8  26
ATOM     26  C   UNK A   1       7.359   6.637  17.816  0.00  0.00    +0.000 C 
ATOM     27  O   UNK A   2       7.278   7.684  17.164  0.00  0.00    +0.000 OA
BRANCH  26  28
ATOM     28  O   UNK A   2       8.146   6.549  18.919  0.00  0.00    +0.000 OA
ATOM     29  H   UNK A   2       9.015   6.991  18.844  0.00  0.00    +0.000 HD
ENDBRANCH  26  28
ENDBRANCH   8  26
TORSDOF 7
ENDMDL
MODEL 7
REMARK VINA RESULT:      -6.4      7.585     12.152
REMARK  Name = 
REMARK  7 active torsions:
REMARK  status: ('A' for Active; 'I' for Inactive)
REMARK    1  A    between atoms: C_2  and  C_18
REMARK    2  A    between atoms: N_3  and  C_4
REMARK    3  A    between atoms: C_11  and  C_12
REMARK    4  A    between atoms: C_12  and  O_14
REMARK    5  A    between atoms: C_18  and  S_19
REMARK    6  A    between atoms: C_18  and  C_20
REMARK    7  A    between atoms: C_20  and  C_21
REMARK                            x       y       z     vdW  Elec       q    Type
REMARK                         _______ _______ _______ _____ _____    ______ ____
ROOT
ATOM      1  C   UNK A   1      -2.442  13.170  23.349  0.00  0.00    +0.000 C 
ATOM      2  C   UNK A   1      -1.822  14.410  23.959  0.00  0.00    +0.000 C 
ATOM      3  S   UNK A   1      -2.763  15.937  23.789  0.00  0.00    +0.000 S 
ATOM      4  C   UNK A   1      -4.461  15.368  23.904  0.00  0.00    +0.000 C 
ATOM      5  C   UNK A   1      -5.328  16.329  23.080  0.00  0.00    +0.000 C 
ATOM      6  C   UNK A   1      -6.762  16.178  23.562  0.00  0.00    +0.000 C 
ATOM      7  C   UNK A   1      -7.227  14.747  23.345  0.00  0.00    +0.000 C 
ATOM      8  C   UNK A   1      -6.239  13.658  23.835  0.00  0.00    +0.000 C 
ATOM      9  N   UNK A   1      -4.807  13.996  23.541  0.00  0.00    +0.000 N 
ATOM     10  C   UNK A   1      -3.890  12.972  23.818  0.00  0.00    +0.000 C 
ATOM     11  O   UNK A   1      -4.248  11.909  24.310  0.00  0.00    +0.000 OA
ENDROOT
BRANCH   1  14
ATOM     12  O   UNK A   0      -0.122  12.156  22.035  0.00  0.00    +0.000 OA
ATOM     13  C   UNK A   0      -1.111  12.463  21.338  0.00  0.00    +0.000 C 
ATOM     14  N   UNK A   1      -2.251  12.987  21.894  0.00  0.00    +0.000 N 
ATOM     15  H   UNK A   1      -2.934  13.422  21.294  0.00  0.00    +0.000 HD
BRANCH  13  16
ATOM     16  C   UNK A   0      -1.066  12.179  19.837  0.00  0.00    +0.000 C 
BRANCH  16  17
ATOM     17  S   UNK A   0       0.596  12.644  19.206  0.00  0.00    +0.000 S 
ATOM     18  H   UNK A   0       0.406  12.289  17.926  0.00  0.00    +0.000 HD
ENDBRANCH  16  17
BRANCH  16  19
ATOM     19  C   UNK A   0      -1.460  10.773  19.392  0.00  0.00    +0.000 C 
BRANCH  19  20
ATOM     20  C   UNK A   0      -2.315  10.735  18.141  0.00  0.00    +0.000 A 
ATOM     21  C   UNK A   0      -3.507  11.470  18.030  0.00  0.00    +0.000 A 
ATOM     22  C   UNK A   0      -4.253  11.447  16.851  0.00  0.00    +0.000 A 
ATOM     23  C   UNK A   0      -3.826  10.680  15.773  0.00  0.00    +0.000 A 
ATOM     24  C   UNK A   0      -2.655   9.932  15.873  0.00  0.00    +0.000 A 
ATOM     25  C   UNK A   0      -1.901   9.961  17.047  0.00  0.00    +0.000 A 
ENDBRANCH  19  20
ENDBRANCH  16  19
ENDBRANCH  13  16
ENDBRANCH   1  14
BRANCH   8  26
ATOM     26  C   UNK A   1      -6.762  12.358  23.186  0.00  0.00    +0.000 C 
ATOM     27  O   UNK A   2      -7.520  11.552  23.739  0.00  0.00    +0.000 OA
BRANCH  26  28
ATOM     28  O   UNK A   2      -6.205  12.091  21.977  0.00  0.00    +0.000 OA
ATOM     29  H   UNK A   2      -5.449  11.472  21.996  0.00  0.00    +0.000 HD
ENDBRANCH  26  28
ENDBRANCH   8  26
TORSDOF 7
ENDMDL
MODEL 8
REMARK VINA RESULT:      -6.2      4.082      8.580
REMARK  Name = 
REMARK  7 active torsions:
REMARK  status: ('A' for Active; 'I' for Inactive)
REMARK    1  A    between atoms: C_2  and  C_18
REMARK    2  A    between atoms: N_3  and  C_4
REMARK    3  A    between atoms: C_11  and  C_12
REMARK    4  A    between atoms: C_12  and  O_14
REMARK    5  A    between atoms: C_18  and  S_19
REMARK    6  A    between atoms: C_18  and  C_20
REMARK    7  A    between atoms: C_20  and  C_21
REMARK                            x       y       z     vdW  Elec       q    Type
REMARK                         _______ _______ _______ _____ _____    ______ ____
ROOT
ATOM      1  C   UNK A   1       5.416   5.764  17.815  0.00  0.00    +0.000 C 
ATOM      2  C   UNK A   1       4.642   7.032  18.117  0.00  0.00    +0.000 C 
ATOM      3  S   UNK A   1       2.852   6.862  18.236  0.00  0.00    +0.000 S 
ATOM      4  C   UNK A   1       2.659   5.236  18.971  0.00  0.00    +0.000 C 
ATOM      5  C   UNK A   1       1.327   4.659  18.475  0.00  0.00    +0.000 C 
ATOM      6  C   UNK A   1       0.916   3.561  19.443  0.00  0.00    +0.000 C 
ATOM      7  C   UNK A   1       1.975   2.471  19.461  0.00  0.00    +0.000 C 
ATOM      8  C   UNK A   1       3.432   2.980  19.607  0.00  0.00    +0.000 C 
ATOM      9  N   UNK A   1       3.698   4.223  18.808  0.00  0.00    +0.000 N 
ATOM     10  C   UNK A   1       5.040   4.629  18.778  0.00  0.00    +0.000 C 
ATOM     11  O   UNK A   1       5.904   4.029  19.405  0.00  0.00    +0.000 OA
ENDROOT
BRANCH   1  14
ATOM     12  O   UNK A   0       7.523   6.290  15.966  0.00  0.00    +0.000 OA
ATOM     13  C   UNK A   0       6.544   5.621  15.574  0.00  0.00    +0.000 C 
ATOM     14  N   UNK A   1       5.478   5.354  16.396  0.00  0.00    +0.000 N 
ATOM     15  H   UNK A   1       4.622   5.007  15.992  0.00  0.00    +0.000 HD
BRANCH  13  16
ATOM     16  C   UNK A   0       6.578   5.028  14.166  0.00  0.00    +0.000 C 
BRANCH  16  17
ATOM     17  S   UNK A   0       8.144   5.544  13.355  0.00  0.00    +0.000 S 
ATOM     18  H   UNK A   0       8.456   4.362  12.803  0.00  0.00    +0.000 HD
ENDBRANCH  16  17
BRANCH  16  19
ATOM     19  C   UNK A   0       6.356   3.523  14.047  0.00  0.00    +0.000 C 
BRANCH  19  20
ATOM     20  C   UNK A   0       5.697   3.093  12.752  0.00  0.00    +0.000 A 
ATOM     21  C   UNK A   0       6.217   2.057  11.959  0.00  0.00    +0.000 A 
ATOM     22  C   UNK A   0       5.567   1.656  10.792  0.00  0.00    +0.000 A 
ATOM     23  C   UNK A   0       4.397   2.291  10.395  0.00  0.00    +0.000 A 
ATOM     24  C   UNK A   0       3.877   3.332  11.161  0.00  0.00    +0.000 A 
ATOM     25  C   UNK A   0       4.519   3.729  12.335  0.00  0.00    +0.000 A 
ENDBRANCH  19  20
ENDBRANCH  16  19
ENDBRANCH  13  16
ENDBRANCH   1  14
BRANCH   8  26
ATOM     26  C   UNK A   1       4.296   1.755  19.236  0.00  0.00    +0.000 C 
ATOM     27  O   UNK A   2       4.077   1.005  18.278  0.00  0.00    +0.000 OA
BRANCH  26  28
ATOM     28  O   UNK A   2       5.265   1.477  20.146  0.00  0.00    +0.000 OA
ATOM     29  H   UNK A   2       4.943   1.277  21.047  0.00  0.00    +0.000 HD
ENDBRANCH  26  28
ENDBRANCH   8  26
TORSDOF 7
ENDMDL
MODEL 9
REMARK VINA RESULT:      -6.1      7.569     11.859
REMARK  Name = 
REMARK  7 active torsions:
REMARK  status: ('A' for Active; 'I' for Inactive)
REMARK    1  A    between atoms: C_2  and  C_18
REMARK    2  A    between atoms: N_3  and  C_4
REMARK    3  A    between atoms: C_11  and  C_12
REMARK    4  A    between atoms: C_12  and  O_14
REMARK    5  A    between atoms: C_18  and  S_19
REMARK    6  A    between atoms: C_18  and  C_20
REMARK    7  A    between atoms: C_20  and  C_21
REMARK                            x       y       z     vdW  Elec       q    Type
REMARK                         _______ _______ _______ _____ _____    ______ ____
ROOT
ATOM      1  C   UNK A   1      -3.285  13.707  22.184  0.00  0.00    +0.000 C 
ATOM      2  C   UNK A   1      -3.234  15.179  22.540  0.00  0.00    +0.000 C 
ATOM      3  S   UNK A   1      -4.266  16.274  21.549  0.00  0.00    +0.000 S 
ATOM      4  C   UNK A   1      -5.706  15.258  21.211  0.00  0.00    +0.000 C 
ATOM      5  C   UNK A   1      -6.283  15.707  19.862  0.00  0.00    +0.000 C 
ATOM      6  C   UNK A   1      -7.728  15.239  19.804  0.00  0.00    +0.000 C 
ATOM      7  C   UNK A   1      -7.781  13.724  19.910  0.00  0.00    +0.000 C 
ATOM      8  C   UNK A   1      -6.928  13.119  21.055  0.00  0.00    +0.000 C 
ATOM      9  N   UNK A   1      -5.600  13.801  21.214  0.00  0.00    +0.000 N 
ATOM     10  C   UNK A   1      -4.729  13.189  22.126  0.00  0.00    +0.000 C 
ATOM     11  O   UNK A   1      -5.065  12.202  22.769  0.00  0.00    +0.000 OA
ENDROOT
BRANCH   1  14
ATOM     12  O   UNK A   0      -1.296  11.663  22.193  0.00  0.00    +0.000 OA
ATOM     13  C   UNK A   0      -1.526  12.261  21.122  0.00  0.00    +0.000 C 
ATOM     14  N   UNK A   1      -2.444  13.277  21.046  0.00  0.00    +0.000 N 
ATOM     15  H   UNK A   1      -2.448  13.876  20.235  0.00  0.00    +0.000 HD
BRANCH  13  16
ATOM     16  C   UNK A   0      -0.811  11.794  19.854  0.00  0.00    +0.000 C 
BRANCH  16  17
ATOM     17  S   UNK A   0       1.000  11.837  20.157  0.00  0.00    +0.000 S 
ATOM     18  H   UNK A   0       1.319  12.729  19.208  0.00  0.00    +0.000 HD
ENDBRANCH  16  17
BRANCH  16  19
ATOM     19  C   UNK A   0      -1.249  10.452  19.273  0.00  0.00    +0.000 C 
BRANCH  19  20
ATOM     20  C   UNK A   0      -2.178  10.565  18.082  0.00  0.00    +0.000 A 
ATOM     21  C   UNK A   0      -3.318  11.385  18.100  0.00  0.00    +0.000 A 
ATOM     22  C   UNK A   0      -4.134  11.499  16.973  0.00  0.00    +0.000 A 
ATOM     23  C   UNK A   0      -3.828  10.789  15.819  0.00  0.00    +0.000 A 
ATOM     24  C   UNK A   0      -2.709   9.958  15.790  0.00  0.00    +0.000 A 
ATOM     25  C   UNK A   0      -1.886   9.849  16.911  0.00  0.00    +0.000 A 
ENDBRANCH  19  20
ENDBRANCH  16  19
ENDBRANCH  13  16
ENDBRANCH   1  14
BRANCH   8  26
ATOM     26  C   UNK A   1      -6.865  11.613  20.720  0.00  0.00    +0.000 C 
ATOM     27  O   UNK A   2      -6.469  11.148  19.645  0.00  0.00    +0.000 OA
BRANCH  26  28
ATOM     28  O   UNK A   2      -7.419  10.820  21.673  0.00  0.00    +0.000 OA
ATOM     29  H   UNK A   2      -8.391  10.733  21.627  0.00  0.00    +0.000 HD
ENDBRANCH  26  28
ENDBRANCH   8  26
TORSDOF 7
ENDMDL
