MODEL 1
REMARK VINA RESULT:      -7.7      0.000      0.000
REMARK  Name = 
REMARK  4 active torsions:
REMARK  status: ('A' for Active; 'I' for Inactive)
REMARK    1  A    between atoms: O_1  and  C_2
REMARK    2  A    between atoms: C_4  and  O_5
REMARK    3  A    between atoms: C_7  and  C_8
REMARK    4  A    between atoms: C_11  and  C_12
REMARK                            x       y       z     vdW  Elec       q    Type
REMARK                         _______ _______ _______ _____ _____    ______ ____
ROOT
ATOM      1  C   UNL     1       2.197   6.790  19.686  0.00  0.00    +0.000 A 
ATOM      2  C   UNL     1       2.358   7.371  18.419  0.00  0.00    +0.000 A 
ATOM      3  C   UNL     1       1.916   8.673  18.146  0.00  0.00    +0.000 A 
ATOM      4  C   UNL     1       1.267   9.450  19.119  0.00  0.00    +0.000 A 
ATOM      5  C   UNL     1       1.110   8.871  20.386  0.00  0.00    +0.000 A 
ATOM      6  C   UNL     1       1.576   7.579  20.666  0.00  0.00    +0.000 A 
ENDROOT
BRANCH   1  11
ATOM      7  C   UNL     1       4.214   3.566  19.621  0.00  0.00    +0.000 A 
ATOM      8  C   UNL     1       3.531   2.762  20.523  0.00  0.00    +0.000 A 
ATOM      9  C   UNL     1       2.410   3.286  21.155  0.00  0.00    +0.000 A 
ATOM     10  C   UNL     1       1.970   4.582  20.889  0.00  0.00    +0.000 A 
ATOM     11  C   UNL     1       2.653   5.411  19.979  0.00  0.00    +0.000 A 
ATOM     12  C   UNL     1       3.794   4.869  19.357  0.00  0.00    +0.000 A 
BRANCH   7  13
ATOM     13  O   UNL     1       5.320   3.118  18.960  0.00  0.00    +0.000 OA
ATOM     14  H   UNL     1       5.088   2.947  18.033  0.00  0.00    +0.000 HD
ENDBRANCH   7  13
BRANCH   9  15
ATOM     15  O   UNL     1       1.694   2.553  22.058  0.00  0.00    +0.000 OA
ATOM     16  H   UNL     1       1.861   1.610  21.904  0.00  0.00    +0.000 HD
ENDBRANCH   9  15
ENDBRANCH   1  11
BRANCH   4  17
ATOM     17  C   UNL     1       0.761  10.808  18.819  0.00  0.00    +0.000 A 
ATOM     18  C   UNL     1      -0.603  11.048  18.599  0.00  0.00    +0.000 A 
ATOM     19  C   UNL     1      -1.034  12.341  18.330  0.00  0.00    +0.000 A 
ATOM     20  N   UNL     1      -0.217  13.410  18.274  0.00  0.00    +0.000 NA
ATOM     21  C   UNL     1       1.091  13.174  18.491  0.00  0.00    +0.000 A 
ATOM     22  C   UNL     1       1.616  11.917  18.754  0.00  0.00    +0.000 A 
ENDBRANCH   4  17
TORSDOF 4
ENDMDL
MODEL 2
REMARK VINA RESULT:      -7.7      0.016      1.858
REMARK  Name = 
REMARK  4 active torsions:
REMARK  status: ('A' for Active; 'I' for Inactive)
REMARK    1  A    between atoms: O_1  and  C_2
REMARK    2  A    between atoms: C_4  and  O_5
REMARK    3  A    between atoms: C_7  and  C_8
REMARK    4  A    between atoms: C_11  and  C_12
REMARK                            x       y       z     vdW  Elec       q    Type
REMARK                         _______ _______ _______ _____ _____    ______ ____
ROOT
ATOM      1  C   UNL     1       2.203   6.794  19.676  0.00  0.00    +0.000 A 
ATOM      2  C   UNL     1       2.376   7.383  18.414  0.00  0.00    +0.000 A 
ATOM      3  C   UNL     1       1.935   8.687  18.145  0.00  0.00    +0.000 A 
ATOM      4  C   UNL     1       1.276   9.457  19.115  0.00  0.00    +0.000 A 
ATOM      5  C   UNL     1       1.107   8.870  20.377  0.00  0.00    +0.000 A 
ATOM      6  C   UNL     1       1.571   7.577  20.654  0.00  0.00    +0.000 A 
ENDROOT
BRANCH   1  11
ATOM      7  C   UNL     1       2.402   3.296  21.155  0.00  0.00    +0.000 A 
ATOM      8  C   UNL     1       3.528   2.768  20.537  0.00  0.00    +0.000 A 
ATOM      9  C   UNL     1       4.215   3.565  19.629  0.00  0.00    +0.000 A 
ATOM     10  C   UNL     1       3.798   4.865  19.348  0.00  0.00    +0.000 A 
ATOM     11  C   UNL     1       2.658   5.414  19.965  0.00  0.00    +0.000 A 
ATOM     12  C   UNL     1       1.965   4.589  20.872  0.00  0.00    +0.000 A 
BRANCH   7  13
ATOM     13  O   UNL     1       1.681   2.574  22.060  0.00  0.00    +0.000 OA
ATOM     14  H   UNL     1       1.522   1.686  21.703  0.00  0.00    +0.000 HD
ENDBRANCH   7  13
BRANCH   9  15
ATOM     15  O   UNL     1       5.326   3.109  18.980  0.00  0.00    +0.000 OA
ATOM     16  H   UNL     1       5.566   3.737  18.281  0.00  0.00    +0.000 HD
ENDBRANCH   9  15
ENDBRANCH   1  11
BRANCH   4  17
ATOM     17  C   UNL     1       0.771  10.816  18.819  0.00  0.00    +0.000 A 
ATOM     18  C   UNL     1      -0.593  11.059  18.604  0.00  0.00    +0.000 A 
ATOM     19  C   UNL     1      -1.023  12.353  18.338  0.00  0.00    +0.000 A 
ATOM     20  N   UNL     1      -0.204  13.421  18.280  0.00  0.00    +0.000 NA
ATOM     21  C   UNL     1       1.104  13.182  18.493  0.00  0.00    +0.000 A 
ATOM     22  C   UNL     1       1.628  11.924  18.753  0.00  0.00    +0.000 A 
ENDBRANCH   4  17
TORSDOF 4
ENDMDL
MODEL 3
REMARK VINA RESULT:      -7.7      0.018      1.046
REMARK  Name = 
REMARK  4 active torsions:
REMARK  status: ('A' for Active; 'I' for Inactive)
REMARK    1  A    between atoms: O_1  and  C_2
REMARK    2  A    between atoms: C_4  and  O_5
REMARK    3  A    between atoms: C_7  and  C_8
REMARK    4  A    between atoms: C_11  and  C_12
REMARK                            x       y       z     vdW  Elec       q    Type
REMARK                         _______ _______ _______ _____ _____    ______ ____
ROOT
ATOM      1  C   UNL     1       2.197   6.792  19.698  0.00  0.00    +0.000 A 
ATOM      2  C   UNL     1       2.363   7.382  18.436  0.00  0.00    +0.000 A 
ATOM      3  C   UNL     1       1.918   8.684  18.169  0.00  0.00    +0.000 A 
ATOM      4  C   UNL     1       1.261   9.453  19.142  0.00  0.00    +0.000 A 
ATOM      5  C   UNL     1       1.099   8.865  20.405  0.00  0.00    +0.000 A 
ATOM      6  C   UNL     1       1.568   7.573  20.680  0.00  0.00    +0.000 A 
ENDROOT
BRANCH   1  11
ATOM      7  C   UNL     1       4.225   3.575  19.622  0.00  0.00    +0.000 A 
ATOM      8  C   UNL     1       3.540   2.763  20.516  0.00  0.00    +0.000 A 
ATOM      9  C   UNL     1       2.415   3.280  21.147  0.00  0.00    +0.000 A 
ATOM     10  C   UNL     1       1.972   4.576  20.886  0.00  0.00    +0.000 A 
ATOM     11  C   UNL     1       2.656   5.412  19.984  0.00  0.00    +0.000 A 
ATOM     12  C   UNL     1       3.802   4.878  19.364  0.00  0.00    +0.000 A 
BRANCH   7  13
ATOM     13  O   UNL     1       5.334   3.134  18.963  0.00  0.00    +0.000 OA
ATOM     14  H   UNL     1       6.062   3.036  19.597  0.00  0.00    +0.000 HD
ENDBRANCH   7  13
BRANCH   9  15
ATOM     15  O   UNL     1       1.697   2.540  22.041  0.00  0.00    +0.000 OA
ATOM     16  H   UNL     1       0.787   2.875  22.073  0.00  0.00    +0.000 HD
ENDBRANCH   9  15
ENDBRANCH   1  11
BRANCH   4  17
ATOM     17  C   UNL     1       0.752  10.811  18.849  0.00  0.00    +0.000 A 
ATOM     18  C   UNL     1       1.613  11.914  18.773  0.00  0.00    +0.000 A 
ATOM     19  C   UNL     1       1.091  13.169  18.487  0.00  0.00    +0.000 A 
ATOM     20  N   UNL     1      -0.216  13.407  18.260  0.00  0.00    +0.000 NA
ATOM     21  C   UNL     1      -1.036  12.342  18.329  0.00  0.00    +0.000 A 
ATOM     22  C   UNL     1      -0.610  11.055  18.621  0.00  0.00    +0.000 A 
ENDBRANCH   4  17
TORSDOF 4
ENDMDL
MODEL 4
REMARK VINA RESULT:      -7.7      0.025      2.132
REMARK  Name = 
REMARK  4 active torsions:
REMARK  status: ('A' for Active; 'I' for Inactive)
REMARK    1  A    between atoms: O_1  and  C_2
REMARK    2  A    between atoms: C_4  and  O_5
REMARK    3  A    between atoms: C_7  and  C_8
REMARK    4  A    between atoms: C_11  and  C_12
REMARK                            x       y       z     vdW  Elec       q    Type
REMARK                         _______ _______ _______ _____ _____    ______ ____
ROOT
ATOM      1  C   UNL     1       2.186   6.792  19.685  0.00  0.00    +0.000 A 
ATOM      2  C   UNL     1       2.353   7.384  18.424  0.00  0.00    +0.000 A 
ATOM      3  C   UNL     1       1.915   8.690  18.161  0.00  0.00    +0.000 A 
ATOM      4  C   UNL     1       1.263   9.459  19.138  0.00  0.00    +0.000 A 
ATOM      5  C   UNL     1       1.099   8.869  20.399  0.00  0.00    +0.000 A 
ATOM      6  C   UNL     1       1.562   7.574  20.670  0.00  0.00    +0.000 A 
ENDROOT
BRANCH   1  11
ATOM      7  C   UNL     1       2.378   3.285  21.145  0.00  0.00    +0.000 A 
ATOM      8  C   UNL     1       3.504   2.760  20.526  0.00  0.00    +0.000 A 
ATOM      9  C   UNL     1       4.195   3.561  19.624  0.00  0.00    +0.000 A 
ATOM     10  C   UNL     1       3.779   4.863  19.350  0.00  0.00    +0.000 A 
ATOM     11  C   UNL     1       2.639   5.409  19.967  0.00  0.00    +0.000 A 
ATOM     12  C   UNL     1       1.943   4.581  20.868  0.00  0.00    +0.000 A 
BRANCH   7  13
ATOM     13  O   UNL     1       1.654   2.559  22.044  0.00  0.00    +0.000 OA
ATOM     14  H   UNL     1       0.799   2.995  22.189  0.00  0.00    +0.000 HD
ENDBRANCH   7  13
BRANCH   9  15
ATOM     15  O   UNL     1       5.307   3.107  18.976  0.00  0.00    +0.000 OA
ATOM     16  H   UNL     1       5.455   2.178  19.213  0.00  0.00    +0.000 HD
ENDBRANCH   9  15
ENDBRANCH   1  11
BRANCH   4  17
ATOM     17  C   UNL     1       0.760  10.821  18.849  0.00  0.00    +0.000 A 
ATOM     18  C   UNL     1       1.626  11.919  18.772  0.00  0.00    +0.000 A 
ATOM     19  C   UNL     1       1.110  13.178  18.489  0.00  0.00    +0.000 A 
ATOM     20  N   UNL     1      -0.195  13.423  18.268  0.00  0.00    +0.000 NA
ATOM     21  C   UNL     1      -1.022  12.362  18.337  0.00  0.00    +0.000 A 
ATOM     22  C   UNL     1      -0.602  11.072  18.626  0.00  0.00    +0.000 A 
ENDBRANCH   4  17
TORSDOF 4
ENDMDL
MODEL 5
REMARK VINA RESULT:      -7.6      2.555      3.634
REMARK  Name = 
REMARK  4 active torsions:
REMARK  status: ('A' for Active; 'I' for Inactive)
REMARK    1  A    between atoms: O_1  and  C_2
REMARK    2  A    between atoms: C_4  and  O_5
REMARK    3  A    between atoms: C_7  and  C_8
REMARK    4  A    between atoms: C_11  and  C_12
REMARK                            x       y       z     vdW  Elec       q    Type
REMARK                         _______ _______ _______ _____ _____    ______ ____
ROOT
ATOM      1  C   UNL     1       2.718   6.931  18.696  0.00  0.00    +0.000 A 
ATOM      2  C   UNL     1       2.310   6.589  19.994  0.00  0.00    +0.000 A 
ATOM      3  C   UNL     1       1.518   7.451  20.766  0.00  0.00    +0.000 A 
ATOM      4  C   UNL     1       1.116   8.708  20.289  0.00  0.00    +0.000 A 
ATOM      5  C   UNL     1       1.520   9.048  18.990  0.00  0.00    +0.000 A 
ATOM      6  C   UNL     1       2.289   8.175  18.208  0.00  0.00    +0.000 A 
ENDROOT
BRANCH   1  11
ATOM      7  C   UNL     1       5.195   5.682  16.094  0.00  0.00    +0.000 A 
ATOM      8  C   UNL     1       5.179   4.308  16.293  0.00  0.00    +0.000 A 
ATOM      9  C   UNL     1       4.355   3.797  17.289  0.00  0.00    +0.000 A 
ATOM     10  C   UNL     1       3.555   4.634  18.066  0.00  0.00    +0.000 A 
ATOM     11  C   UNL     1       3.563   6.029  17.878  0.00  0.00    +0.000 A 
ATOM     12  C   UNL     1       4.412   6.532  16.874  0.00  0.00    +0.000 A 
BRANCH   7  13
ATOM     13  O   UNL     1       5.975   6.254  15.133  0.00  0.00    +0.000 OA
ATOM     14  H   UNL     1       5.717   7.184  15.027  0.00  0.00    +0.000 HD
ENDBRANCH   7  13
BRANCH   9  15
ATOM     15  O   UNL     1       4.293   2.457  17.544  0.00  0.00    +0.000 OA
ATOM     16  H   UNL     1       4.214   1.978  16.704  0.00  0.00    +0.000 HD
ENDBRANCH   9  15
ENDBRANCH   1  11
BRANCH   4  17
ATOM     17  C   UNL     1       0.317   9.637  21.120  0.00  0.00    +0.000 A 
ATOM     18  C   UNL     1      -0.150  10.856  20.610  0.00  0.00    +0.000 A 
ATOM     19  C   UNL     1      -0.904  11.692  21.423  0.00  0.00    +0.000 A 
ATOM     20  N   UNL     1      -1.235  11.405  22.697  0.00  0.00    +0.000 NA
ATOM     21  C   UNL     1      -0.787  10.230  23.179  0.00  0.00    +0.000 A 
ATOM     22  C   UNL     1      -0.018   9.337  22.448  0.00  0.00    +0.000 A 
ENDBRANCH   4  17
TORSDOF 4
ENDMDL
MODEL 6
REMARK VINA RESULT:      -7.6      2.554      3.916
REMARK  Name = 
REMARK  4 active torsions:
REMARK  status: ('A' for Active; 'I' for Inactive)
REMARK    1  A    between atoms: O_1  and  C_2
REMARK    2  A    between atoms: C_4  and  O_5
REMARK    3  A    between atoms: C_7  and  C_8
REMARK    4  A    between atoms: C_11  and  C_12
REMARK                            x       y       z     vdW  Elec       q    Type
REMARK                         _______ _______ _______ _____ _____    ______ ____
ROOT
ATOM      1  C   UNL     1       2.690   6.970  18.693  0.00  0.00    +0.000 A 
ATOM      2  C   UNL     1       2.287   6.630  19.993  0.00  0.00    +0.000 A 
ATOM      3  C   UNL     1       1.498   7.493  20.768  0.00  0.00    +0.000 A 
ATOM      4  C   UNL     1       1.095   8.750  20.291  0.00  0.00    +0.000 A 
ATOM      5  C   UNL     1       1.494   9.088  18.990  0.00  0.00    +0.000 A 
ATOM      6  C   UNL     1       2.260   8.214  18.206  0.00  0.00    +0.000 A 
ENDROOT
BRANCH   1  11
ATOM      7  C   UNL     1       4.304   3.824  17.294  0.00  0.00    +0.000 A 
ATOM      8  C   UNL     1       5.149   4.326  16.313  0.00  0.00    +0.000 A 
ATOM      9  C   UNL     1       5.180   5.701  16.111  0.00  0.00    +0.000 A 
ATOM     10  C   UNL     1       4.394   6.561  16.876  0.00  0.00    +0.000 A 
ATOM     11  C   UNL     1       3.531   6.067  17.872  0.00  0.00    +0.000 A 
ATOM     12  C   UNL     1       3.502   4.671  18.056  0.00  0.00    +0.000 A 
BRANCH   7  13
ATOM     13  O   UNL     1       4.225   2.487  17.551  0.00  0.00    +0.000 OA
ATOM     14  H   UNL     1       4.265   2.345  18.510  0.00  0.00    +0.000 HD
ENDBRANCH   7  13
BRANCH   9  15
ATOM     15  O   UNL     1       5.983   6.262  15.161  0.00  0.00    +0.000 OA
ATOM     16  H   UNL     1       5.456   6.872  14.621  0.00  0.00    +0.000 HD
ENDBRANCH   9  15
ENDBRANCH   1  11
BRANCH   4  17
ATOM     17  C   UNL     1       0.300   9.681  21.123  0.00  0.00    +0.000 A 
ATOM     18  C   UNL     1      -0.080   9.348  22.431  0.00  0.00    +0.000 A 
ATOM     19  C   UNL     1      -0.819  10.256  23.178  0.00  0.00    +0.000 A 
ATOM     20  N   UNL     1      -1.197  11.469  22.730  0.00  0.00    +0.000 NA
ATOM     21  C   UNL     1      -0.823  11.784  21.476  0.00  0.00    +0.000 A 
ATOM     22  C   UNL     1      -0.097  10.939  20.650  0.00  0.00    +0.000 A 
ENDBRANCH   4  17
TORSDOF 4
ENDMDL
MODEL 7
REMARK VINA RESULT:      -7.6      2.549      3.938
REMARK  Name = 
REMARK  4 active torsions:
REMARK  status: ('A' for Active; 'I' for Inactive)
REMARK    1  A    between atoms: O_1  and  C_2
REMARK    2  A    between atoms: C_4  and  O_5
REMARK    3  A    between atoms: C_7  and  C_8
REMARK    4  A    between atoms: C_11  and  C_12
REMARK                            x       y       z     vdW  Elec       q    Type
REMARK                         _______ _______ _______ _____ _____    ______ ____
ROOT
ATOM      1  C   UNL     1       2.709   6.941  18.699  0.00  0.00    +0.000 A 
ATOM      2  C   UNL     1       2.316   6.605  20.003  0.00  0.00    +0.000 A 
ATOM      3  C   UNL     1       1.520   7.464  20.775  0.00  0.00    +0.000 A 
ATOM      4  C   UNL     1       1.100   8.713  20.291  0.00  0.00    +0.000 A 
ATOM      5  C   UNL     1       1.491   9.047  18.987  0.00  0.00    +0.000 A 
ATOM      6  C   UNL     1       2.263   8.177  18.205  0.00  0.00    +0.000 A 
ENDROOT
BRANCH   1  11
ATOM      7  C   UNL     1       4.349   3.803  17.310  0.00  0.00    +0.000 A 
ATOM      8  C   UNL     1       5.190   4.309  16.328  0.00  0.00    +0.000 A 
ATOM      9  C   UNL     1       5.210   5.684  16.122  0.00  0.00    +0.000 A 
ATOM     10  C   UNL     1       4.417   6.540  16.884  0.00  0.00    +0.000 A 
ATOM     11  C   UNL     1       3.558   6.042  17.882  0.00  0.00    +0.000 A 
ATOM     12  C   UNL     1       3.540   4.647  18.069  0.00  0.00    +0.000 A 
BRANCH   7  13
ATOM     13  O   UNL     1       4.280   2.466  17.571  0.00  0.00    +0.000 OA
ATOM     14  H   UNL     1       3.388   2.250  17.885  0.00  0.00    +0.000 HD
ENDBRANCH   7  13
BRANCH   9  15
ATOM     15  O   UNL     1       6.008   6.249  15.169  0.00  0.00    +0.000 OA
ATOM     16  H   UNL     1       5.623   6.085  14.294  0.00  0.00    +0.000 HD
ENDBRANCH   9  15
ENDBRANCH   1  11
BRANCH   4  17
ATOM     17  C   UNL     1       0.298   9.640  21.121  0.00  0.00    +0.000 A 
ATOM     18  C   UNL     1      -0.200  10.842  20.601  0.00  0.00    +0.000 A 
ATOM     19  C   UNL     1      -0.956  11.677  21.414  0.00  0.00    +0.000 A 
ATOM     20  N   UNL     1      -1.262  11.402  22.696  0.00  0.00    +0.000 NA
ATOM     21  C   UNL     1      -0.785  10.243  23.188  0.00  0.00    +0.000 A 
ATOM     22  C   UNL     1      -0.012   9.353  22.458  0.00  0.00    +0.000 A 
ENDBRANCH   4  17
TORSDOF 4
ENDMDL
MODEL 8
REMARK VINA RESULT:      -7.6      2.555      3.599
REMARK  Name = 
REMARK  4 active torsions:
REMARK  status: ('A' for Active; 'I' for Inactive)
REMARK    1  A    between atoms: O_1  and  C_2
REMARK    2  A    between atoms: C_4  and  O_5
REMARK    3  A    between atoms: C_7  and  C_8
REMARK    4  A    between atoms: C_11  and  C_12
REMARK                            x       y       z     vdW  Elec       q    Type
REMARK                         _______ _______ _______ _____ _____    ______ ____
ROOT
ATOM      1  C   UNL     1       2.699   6.958  18.710  0.00  0.00    +0.000 A 
ATOM      2  C   UNL     1       2.263   6.605  19.996  0.00  0.00    +0.000 A 
ATOM      3  C   UNL     1       1.474   7.470  20.767  0.00  0.00    +0.000 A 
ATOM      4  C   UNL     1       1.104   8.742  20.302  0.00  0.00    +0.000 A 
ATOM      5  C   UNL     1       1.537   9.093  19.016  0.00  0.00    +0.000 A 
ATOM      6  C   UNL     1       2.303   8.217  18.234  0.00  0.00    +0.000 A 
ENDROOT
BRANCH   1  11
ATOM      7  C   UNL     1       5.173   5.698  16.110  0.00  0.00    +0.000 A 
ATOM      8  C   UNL     1       5.151   4.324  16.310  0.00  0.00    +0.000 A 
ATOM      9  C   UNL     1       4.324   3.817  17.306  0.00  0.00    +0.000 A 
ATOM     10  C   UNL     1       3.528   4.658  18.082  0.00  0.00    +0.000 A 
ATOM     11  C   UNL     1       3.541   6.052  17.893  0.00  0.00    +0.000 A 
ATOM     12  C   UNL     1       4.393   6.551  16.889  0.00  0.00    +0.000 A 
BRANCH   7  13
ATOM     13  O   UNL     1       5.955   6.266  15.149  0.00  0.00    +0.000 OA
ATOM     14  H   UNL     1       6.804   5.796  15.111  0.00  0.00    +0.000 HD
ENDBRANCH   7  13
BRANCH   9  15
ATOM     15  O   UNL     1       4.258   2.477  17.561  0.00  0.00    +0.000 OA
ATOM     16  H   UNL     1       4.287   1.992  16.721  0.00  0.00    +0.000 HD
ENDBRANCH   9  15
ENDBRANCH   1  11
BRANCH   4  17
ATOM     17  C   UNL     1       0.309   9.674  21.133  0.00  0.00    +0.000 A 
ATOM     18  C   UNL     1      -0.090   9.336  22.433  0.00  0.00    +0.000 A 
ATOM     19  C   UNL     1      -0.828  10.245  23.180  0.00  0.00    +0.000 A 
ATOM     20  N   UNL     1      -1.188  11.465  22.737  0.00  0.00    +0.000 NA
ATOM     21  C   UNL     1      -0.797  11.786  21.489  0.00  0.00    +0.000 A 
ATOM     22  C   UNL     1      -0.070  10.940  20.665  0.00  0.00    +0.000 A 
ENDBRANCH   4  17
TORSDOF 4
ENDMDL
MODEL 9
REMARK VINA RESULT:      -7.6      2.532      3.817
REMARK  Name = 
REMARK  4 active torsions:
REMARK  status: ('A' for Active; 'I' for Inactive)
REMARK    1  A    between atoms: O_1  and  C_2
REMARK    2  A    between atoms: C_4  and  O_5
REMARK    3  A    between atoms: C_7  and  C_8
REMARK    4  A    between atoms: C_11  and  C_12
REMARK                            x       y       z     vdW  Elec       q    Type
REMARK                         _______ _______ _______ _____ _____    ______ ____
ROOT
ATOM      1  C   UNL     1       2.718   7.008  18.668  0.00  0.00    +0.000 A 
ATOM      2  C   UNL     1       2.268   8.236  18.161  0.00  0.00    +0.000 A 
ATOM      3  C   UNL     1       1.494   9.112  18.936  0.00  0.00    +0.000 A 
ATOM      4  C   UNL     1       1.111   8.792  20.248  0.00  0.00    +0.000 A 
ATOM      5  C   UNL     1       1.565   7.567  20.756  0.00  0.00    +0.000 A 
ATOM      6  C   UNL     1       2.360   6.704  19.990  0.00  0.00    +0.000 A 
ENDROOT
BRANCH   1  11
ATOM      7  C   UNL     1       4.224   3.803  17.282  0.00  0.00    +0.000 A 
ATOM      8  C   UNL     1       5.086   4.271  16.299  0.00  0.00    +0.000 A 
ATOM      9  C   UNL     1       5.164   5.644  16.092  0.00  0.00    +0.000 A 
ATOM     10  C   UNL     1       4.408   6.533  16.853  0.00  0.00    +0.000 A 
ATOM     11  C   UNL     1       3.528   6.074  17.851  0.00  0.00    +0.000 A 
ATOM     12  C   UNL     1       3.451   4.680  18.040  0.00  0.00    +0.000 A 
BRANCH   7  13
ATOM     13  O   UNL     1       4.098   2.470  17.544  0.00  0.00    +0.000 OA
ATOM     14  H   UNL     1       3.948   1.995  16.711  0.00  0.00    +0.000 HD
ENDBRANCH   7  13
BRANCH   9  15
ATOM     15  O   UNL     1       5.986   6.173  15.139  0.00  0.00    +0.000 OA
ATOM     16  H   UNL     1       5.575   6.974  14.776  0.00  0.00    +0.000 HD
ENDBRANCH   9  15
ENDBRANCH   1  11
BRANCH   4  17
ATOM     17  C   UNL     1       0.258   9.696  21.052  0.00  0.00    +0.000 A 
ATOM     18  C   UNL     1      -0.306  10.853  20.498  0.00  0.00    +0.000 A 
ATOM     19  C   UNL     1      -1.108  11.667  21.288  0.00  0.00    +0.000 A 
ATOM     20  N   UNL     1      -1.399  11.413  22.578  0.00  0.00    +0.000 NA
ATOM     21  C   UNL     1      -0.858  10.296  23.102  0.00  0.00    +0.000 A 
ATOM     22  C   UNL     1      -0.036   9.430  22.397  0.00  0.00    +0.000 A 
ENDBRANCH   4  17
TORSDOF 4
ENDMDL
