MODEL 1
REMARK VINA RESULT:      -7.8      0.000      0.000
REMARK  Name = 
REMARK  9 active torsions:
REMARK  status: ('A' for Active; 'I' for Inactive)
REMARK    1  A    between atoms: C_1  and  C_2
REMARK    2  A    between atoms: C_2  and  N_3
REMARK    3  A    between atoms: N_3  and  C_4
REMARK    4  A    between atoms: C_4  and  C_5
REMARK    5  A    between atoms: N_7  and  C_8
REMARK    6  A    between atoms: C_13  and  O_14
REMARK    7  A    between atoms: O_14  and  C_15
REMARK    8  A    between atoms: C_16  and  C_18
REMARK    9  A    between atoms: C_22  and  N_23
REMARK                            x       y       z     vdW  Elec       q    Type
REMARK                         _______ _______ _______ _____ _____    ______ ____
ROOT
ATOM      1  N   UNL     1       3.445   4.130  19.746  0.00  0.00    +0.000 N 
ATOM      2  C   UNL     1       4.761   3.716  19.439  0.00  0.00    +0.000 C 
ATOM      3  O   UNL     1       5.226   2.672  19.903  0.00  0.00    +0.000 OA
ENDROOT
BRANCH   2   4
ATOM      4  C   UNL     1       5.650   4.460  18.491  0.00  0.00    +0.000 A 
ATOM      5  C   UNL     1       6.473   5.464  19.021  0.00  0.00    +0.000 A 
ATOM      6  C   UNL     1       7.308   6.215  18.191  0.00  0.00    +0.000 A 
ATOM      7  C   UNL     1       7.364   5.948  16.821  0.00  0.00    +0.000 A 
ATOM      8  C   UNL     1       6.536   4.965  16.266  0.00  0.00    +0.000 A 
ATOM      9  C   UNL     1       5.638   4.282  17.105  0.00  0.00    +0.000 A 
BRANCH   8  10
ATOM     10  N   UNL     1       6.594   4.648  14.871  0.00  0.00    +0.000 N 
ATOM     11  C   UNL     1       5.817   3.712  14.208  0.00  0.00    +0.000 A 
ATOM     12  C   UNL     1       6.159   3.691  12.874  0.00  0.00    +0.000 A 
ATOM     13  C   UNL     1       7.200   4.621  12.700  0.00  0.00    +0.000 A 
ATOM     14  C   UNL     1       7.459   5.180  13.934  0.00  0.00    +0.000 A 
ENDBRANCH   8  10
ENDBRANCH   2   4
BRANCH   1  16
ATOM     15  C   UNL     1       1.587   2.475  19.853  0.00  0.00    +0.000 C 
ATOM     16  C   UNL     1       2.678   3.218  20.607  0.00  0.00    +0.000 C 
ENDBRANCH   1  16
BRANCH   1  17
ATOM     17  C   UNL     1       2.764   5.296  19.161  0.00  0.00    +0.000 C 
BRANCH  17  18
ATOM     18  C   UNL     1       1.893   6.244  20.002  0.00  0.00    +0.000 C 
ATOM     19  O   UNL     1       1.075   5.811  20.807  0.00  0.00    +0.000 OA
ATOM     20  N   UNL     1       2.106   7.592  19.725  0.00  0.00    +0.000 N 
ATOM     21  H   UNL     1       2.143   7.750  18.725  0.00  0.00    +0.000 HD
BRANCH  20  22
ATOM     22  C   UNL     1       1.339   8.542  20.439  0.00  0.00    +0.000 A 
ATOM     23  C   UNL     1       1.363   8.462  21.841  0.00  0.00    +0.000 A 
ATOM     24  C   UNL     1       0.715   9.426  22.612  0.00  0.00    +0.000 A 
ATOM     25  C   UNL     1       0.012  10.455  21.993  0.00  0.00    +0.000 A 
ATOM     26  C   UNL     1      -0.034  10.524  20.599  0.00  0.00    +0.000 A 
ATOM     27  C   UNL     1       0.622   9.572  19.808  0.00  0.00    +0.000 A 
BRANCH  27  28
ATOM     28  O   UNL     1       0.494   9.797  18.464  0.00  0.00    +0.000 OA
ATOM     29  C   UNL     1      -0.806  10.119  17.988  0.00  0.00    +0.000 C 
ENDBRANCH  27  28
ENDBRANCH  20  22
ENDBRANCH  17  18
ENDBRANCH   1  17
TORSDOF 7
ENDMDL
MODEL 2
REMARK VINA RESULT:      -7.8      1.379      2.024
REMARK  Name = 
REMARK  9 active torsions:
REMARK  status: ('A' for Active; 'I' for Inactive)
REMARK    1  A    between atoms: C_1  and  C_2
REMARK    2  A    between atoms: C_2  and  N_3
REMARK    3  A    between atoms: N_3  and  C_4
REMARK    4  A    between atoms: C_4  and  C_5
REMARK    5  A    between atoms: N_7  and  C_8
REMARK    6  A    between atoms: C_13  and  O_14
REMARK    7  A    between atoms: O_14  and  C_15
REMARK    8  A    between atoms: C_16  and  C_18
REMARK    9  A    between atoms: C_22  and  N_23
REMARK                            x       y       z     vdW  Elec       q    Type
REMARK                         _______ _______ _______ _____ _____    ______ ____
ROOT
ATOM      1  N   UNL     1       3.110   3.395  19.416  0.00  0.00    +0.000 N 
ATOM      2  C   UNL     1       3.889   2.907  18.342  0.00  0.00    +0.000 C 
ATOM      3  O   UNL     1       3.651   1.812  17.828  0.00  0.00    +0.000 OA
ENDROOT
BRANCH   2   4
ATOM      4  C   UNL     1       4.996   3.695  17.712  0.00  0.00    +0.000 A 
ATOM      5  C   UNL     1       5.803   4.472  18.555  0.00  0.00    +0.000 A 
ATOM      6  C   UNL     1       6.837   5.253  18.032  0.00  0.00    +0.000 A 
ATOM      7  C   UNL     1       7.106   5.239  16.662  0.00  0.00    +0.000 A 
ATOM      8  C   UNL     1       6.300   4.488  15.799  0.00  0.00    +0.000 A 
ATOM      9  C   UNL     1       5.209   3.780  16.334  0.00  0.00    +0.000 A 
BRANCH   8  10
ATOM     10  N   UNL     1       6.569   4.430  14.394  0.00  0.00    +0.000 N 
ATOM     11  C   UNL     1       5.947   3.606  13.470  0.00  0.00    +0.000 A 
ATOM     12  C   UNL     1       6.474   3.836  12.219  0.00  0.00    +0.000 A 
ATOM     13  C   UNL     1       7.475   4.814  12.365  0.00  0.00    +0.000 A 
ATOM     14  C   UNL     1       7.527   5.148  13.702  0.00  0.00    +0.000 A 
ENDBRANCH   8  10
ENDBRANCH   2   4
BRANCH   1  16
ATOM     15  C   UNL     1       0.705   2.841  19.090  0.00  0.00    +0.000 C 
ATOM     16  C   UNL     1       1.994   2.534  19.833  0.00  0.00    +0.000 C 
ENDBRANCH   1  16
BRANCH   1  17
ATOM     17  C   UNL     1       3.245   4.728  20.025  0.00  0.00    +0.000 C 
BRANCH  17  18
ATOM     18  C   UNL     1       2.577   5.975  19.422  0.00  0.00    +0.000 C 
ATOM     19  O   UNL     1       2.302   6.037  18.229  0.00  0.00    +0.000 OA
ATOM     20  N   UNL     1       2.367   6.997  20.345  0.00  0.00    +0.000 N 
ATOM     21  H   UNL     1       3.190   7.135  20.919  0.00  0.00    +0.000 HD
BRANCH  20  22
ATOM     22  C   UNL     1       1.770   8.193  19.881  0.00  0.00    +0.000 A 
ATOM     23  C   UNL     1       1.906   8.489  18.516  0.00  0.00    +0.000 A 
ATOM     24  C   UNL     1       1.259   9.596  17.967  0.00  0.00    +0.000 A 
ATOM     25  C   UNL     1       0.501  10.432  18.782  0.00  0.00    +0.000 A 
ATOM     26  C   UNL     1       0.382  10.153  20.145  0.00  0.00    +0.000 A 
ATOM     27  C   UNL     1       1.015   9.039  20.710  0.00  0.00    +0.000 A 
BRANCH  27  28
ATOM     28  O   UNL     1       0.781   8.900  22.052  0.00  0.00    +0.000 OA
ATOM     29  C   UNL     1      -0.508   9.271  22.520  0.00  0.00    +0.000 C 
ENDBRANCH  27  28
ENDBRANCH  20  22
ENDBRANCH  17  18
ENDBRANCH   1  17
TORSDOF 7
ENDMDL
MODEL 3
REMARK VINA RESULT:      -7.6      1.805      8.154
REMARK  Name = 
REMARK  9 active torsions:
REMARK  status: ('A' for Active; 'I' for Inactive)
REMARK    1  A    between atoms: C_1  and  C_2
REMARK    2  A    between atoms: C_2  and  N_3
REMARK    3  A    between atoms: N_3  and  C_4
REMARK    4  A    between atoms: C_4  and  C_5
REMARK    5  A    between atoms: N_7  and  C_8
REMARK    6  A    between atoms: C_13  and  O_14
REMARK    7  A    between atoms: O_14  and  C_15
REMARK    8  A    between atoms: C_16  and  C_18
REMARK    9  A    between atoms: C_22  and  N_23
REMARK                            x       y       z     vdW  Elec       q    Type
REMARK                         _______ _______ _______ _____ _____    ______ ____
ROOT
ATOM      1  N   UNL     1       3.298   4.481  19.984  0.00  0.00    +0.000 N 
ATOM      2  C   UNL     1       2.039   5.118  20.076  0.00  0.00    +0.000 C 
ATOM      3  O   UNL     1       1.036   4.498  20.438  0.00  0.00    +0.000 OA
ENDROOT
BRANCH   2   4
ATOM      4  C   UNL     1       1.842   6.579  19.814  0.00  0.00    +0.000 A 
ATOM      5  C   UNL     1       2.324   7.094  18.602  0.00  0.00    +0.000 A 
ATOM      6  C   UNL     1       2.199   8.453  18.303  0.00  0.00    +0.000 A 
ATOM      7  C   UNL     1       1.554   9.312  19.195  0.00  0.00    +0.000 A 
ATOM      8  C   UNL     1       1.085   8.826  20.420  0.00  0.00    +0.000 A 
ATOM      9  C   UNL     1       1.301   7.474  20.740  0.00  0.00    +0.000 A 
BRANCH   8  10
ATOM     10  N   UNL     1       0.393   9.677  21.340  0.00  0.00    +0.000 N 
ATOM     11  C   UNL     1      -0.226   9.285  22.517  0.00  0.00    +0.000 A 
ATOM     12  C   UNL     1      -0.783  10.384  23.132  0.00  0.00    +0.000 A 
ATOM     13  C   UNL     1      -0.531  11.494  22.304  0.00  0.00    +0.000 A 
ATOM     14  C   UNL     1       0.172  11.035  21.210  0.00  0.00    +0.000 A 
ENDBRANCH   8  10
ENDBRANCH   2   4
BRANCH   1  16
ATOM     15  C   UNL     1       3.239   2.117  19.204  0.00  0.00    +0.000 C 
ATOM     16  C   UNL     1       3.324   3.068  20.387  0.00  0.00    +0.000 C 
ENDBRANCH   1  16
BRANCH   1  17
ATOM     17  C   UNL     1       4.567   5.153  19.668  0.00  0.00    +0.000 C 
BRANCH  17  18
ATOM     18  C   UNL     1       5.420   4.764  18.449  0.00  0.00    +0.000 C 
ATOM     19  O   UNL     1       6.427   4.075  18.570  0.00  0.00    +0.000 OA
ATOM     20  N   UNL     1       4.953   5.295  17.248  0.00  0.00    +0.000 N 
ATOM     21  H   UNL     1       4.711   6.272  17.360  0.00  0.00    +0.000 HD
BRANCH  20  22
ATOM     22  C   UNL     1       5.681   5.004  16.071  0.00  0.00    +0.000 A 
ATOM     23  C   UNL     1       5.054   4.189  15.114  0.00  0.00    +0.000 A 
ATOM     24  C   UNL     1       5.668   3.943  13.887  0.00  0.00    +0.000 A 
ATOM     25  C   UNL     1       6.924   4.480  13.618  0.00  0.00    +0.000 A 
ATOM     26  C   UNL     1       7.561   5.271  14.576  0.00  0.00    +0.000 A 
ATOM     27  C   UNL     1       6.953   5.539  15.809  0.00  0.00    +0.000 A 
BRANCH  27  28
ATOM     28  O   UNL     1       7.703   6.345  16.624  0.00  0.00    +0.000 OA
ATOM     29  C   UNL     1       7.111   7.570  17.033  0.00  0.00    +0.000 C 
ENDBRANCH  27  28
ENDBRANCH  20  22
ENDBRANCH  17  18
ENDBRANCH   1  17
TORSDOF 7
ENDMDL
MODEL 4
REMARK VINA RESULT:      -7.6      1.468      2.124
REMARK  Name = 
REMARK  9 active torsions:
REMARK  status: ('A' for Active; 'I' for Inactive)
REMARK    1  A    between atoms: C_1  and  C_2
REMARK    2  A    between atoms: C_2  and  N_3
REMARK    3  A    between atoms: N_3  and  C_4
REMARK    4  A    between atoms: C_4  and  C_5
REMARK    5  A    between atoms: N_7  and  C_8
REMARK    6  A    between atoms: C_13  and  O_14
REMARK    7  A    between atoms: O_14  and  C_15
REMARK    8  A    between atoms: C_16  and  C_18
REMARK    9  A    between atoms: C_22  and  N_23
REMARK                            x       y       z     vdW  Elec       q    Type
REMARK                         _______ _______ _______ _____ _____    ______ ____
ROOT
ATOM      1  N   UNL     1       2.566   4.262  18.545  0.00  0.00    +0.000 N 
ATOM      2  C   UNL     1       3.803   3.579  18.517  0.00  0.00    +0.000 C 
ATOM      3  O   UNL     1       3.930   2.469  19.039  0.00  0.00    +0.000 OA
ENDROOT
BRANCH   2   4
ATOM      4  C   UNL     1       5.011   4.107  17.806  0.00  0.00    +0.000 A 
ATOM      5  C   UNL     1       5.981   4.767  18.573  0.00  0.00    +0.000 A 
ATOM      6  C   UNL     1       7.120   5.307  17.973  0.00  0.00    +0.000 A 
ATOM      7  C   UNL     1       7.328   5.162  16.599  0.00  0.00    +0.000 A 
ATOM      8  C   UNL     1       6.363   4.526  15.810  0.00  0.00    +0.000 A 
ATOM      9  C   UNL     1       5.182   4.069  16.420  0.00  0.00    +0.000 A 
BRANCH   8  10
ATOM     10  N   UNL     1       6.562   4.335  14.405  0.00  0.00    +0.000 N 
ATOM     11  C   UNL     1       7.479   4.999  13.606  0.00  0.00    +0.000 A 
ATOM     12  C   UNL     1       7.375   4.545  12.310  0.00  0.00    +0.000 A 
ATOM     13  C   UNL     1       6.343   3.589  12.289  0.00  0.00    +0.000 A 
ATOM     14  C   UNL     1       5.851   3.490  13.573  0.00  0.00    +0.000 A 
ENDBRANCH   8  10
ENDBRANCH   2   4
BRANCH   1  16
ATOM     15  C   UNL     1       1.202   4.014  20.613  0.00  0.00    +0.000 C 
ATOM     16  C   UNL     1       1.459   3.543  19.191  0.00  0.00    +0.000 C 
ENDBRANCH   1  16
BRANCH   1  17
ATOM     17  C   UNL     1       2.284   5.534  17.862  0.00  0.00    +0.000 C 
BRANCH  17  18
ATOM     18  C   UNL     1       2.391   6.891  18.579  0.00  0.00    +0.000 C 
ATOM     19  O   UNL     1       3.245   7.093  19.434  0.00  0.00    +0.000 OA
ATOM     20  N   UNL     1       1.420   7.808  18.185  0.00  0.00    +0.000 N 
ATOM     21  H   UNL     1       0.509   7.369  18.143  0.00  0.00    +0.000 HD
BRANCH  20  22
ATOM     22  C   UNL     1       1.428   9.082  18.800  0.00  0.00    +0.000 A 
ATOM     23  C   UNL     1       1.805  10.176  18.004  0.00  0.00    +0.000 A 
ATOM     24  C   UNL     1       1.739  11.473  18.513  0.00  0.00    +0.000 A 
ATOM     25  C   UNL     1       1.328  11.685  19.825  0.00  0.00    +0.000 A 
ATOM     26  C   UNL     1       0.974  10.597  20.626  0.00  0.00    +0.000 A 
ATOM     27  C   UNL     1       1.023   9.290  20.129  0.00  0.00    +0.000 A 
BRANCH  27  28
ATOM     28  O   UNL     1       0.625   8.344  21.037  0.00  0.00    +0.000 OA
ATOM     29  C   UNL     1      -0.566   8.613  21.762  0.00  0.00    +0.000 C 
ENDBRANCH  27  28
ENDBRANCH  20  22
ENDBRANCH  17  18
ENDBRANCH   1  17
TORSDOF 7
ENDMDL
MODEL 5
REMARK VINA RESULT:      -7.6      1.811      3.341
REMARK  Name = 
REMARK  9 active torsions:
REMARK  status: ('A' for Active; 'I' for Inactive)
REMARK    1  A    between atoms: C_1  and  C_2
REMARK    2  A    between atoms: C_2  and  N_3
REMARK    3  A    between atoms: N_3  and  C_4
REMARK    4  A    between atoms: C_4  and  C_5
REMARK    5  A    between atoms: N_7  and  C_8
REMARK    6  A    between atoms: C_13  and  O_14
REMARK    7  A    between atoms: O_14  and  C_15
REMARK    8  A    between atoms: C_16  and  C_18
REMARK    9  A    between atoms: C_22  and  N_23
REMARK                            x       y       z     vdW  Elec       q    Type
REMARK                         _______ _______ _______ _____ _____    ______ ____
ROOT
ATOM      1  N   UNL     1       3.275   3.333  20.214  0.00  0.00    +0.000 N 
ATOM      2  C   UNL     1       3.825   2.860  19.001  0.00  0.00    +0.000 C 
ATOM      3  O   UNL     1       3.740   1.671  18.683  0.00  0.00    +0.000 OA
ENDROOT
BRANCH   2   4
ATOM      4  C   UNL     1       4.477   3.758  17.995  0.00  0.00    +0.000 A 
ATOM      5  C   UNL     1       4.139   3.579  16.646  0.00  0.00    +0.000 A 
ATOM      6  C   UNL     1       4.729   4.363  15.652  0.00  0.00    +0.000 A 
ATOM      7  C   UNL     1       5.638   5.367  15.995  0.00  0.00    +0.000 A 
ATOM      8  C   UNL     1       6.007   5.550  17.332  0.00  0.00    +0.000 A 
ATOM      9  C   UNL     1       5.469   4.691  18.307  0.00  0.00    +0.000 A 
BRANCH   8  10
ATOM     10  N   UNL     1       6.912   6.590  17.716  0.00  0.00    +0.000 N 
ATOM     11  C   UNL     1       7.866   6.522  18.718  0.00  0.00    +0.000 A 
ATOM     12  C   UNL     1       8.544   7.718  18.792  0.00  0.00    +0.000 A 
ATOM     13  C   UNL     1       7.980   8.572  17.826  0.00  0.00    +0.000 A 
ATOM     14  C   UNL     1       6.976   7.869  17.195  0.00  0.00    +0.000 A 
ENDBRANCH   8  10
ENDBRANCH   2   4
BRANCH   1  16
ATOM     15  C   UNL     1       1.170   2.762  21.415  0.00  0.00    +0.000 C 
ATOM     16  C   UNL     1       2.573   2.329  21.026  0.00  0.00    +0.000 C 
ENDBRANCH   1  16
BRANCH   1  17
ATOM     17  C   UNL     1       3.229   4.743  20.632  0.00  0.00    +0.000 C 
BRANCH  17  18
ATOM     18  C   UNL     1       2.377   5.790  19.894  0.00  0.00    +0.000 C 
ATOM     19  O   UNL     1       1.658   5.476  18.951  0.00  0.00    +0.000 OA
ATOM     20  N   UNL     1       2.540   7.085  20.379  0.00  0.00    +0.000 N 
ATOM     21  H   UNL     1       3.521   7.293  20.521  0.00  0.00    +0.000 HD
BRANCH  20  22
ATOM     22  C   UNL     1       1.807   8.121  19.754  0.00  0.00    +0.000 A 
ATOM     23  C   UNL     1       2.154   8.444  18.432  0.00  0.00    +0.000 A 
ATOM     24  C   UNL     1       1.410   9.383  17.718  0.00  0.00    +0.000 A 
ATOM     25  C   UNL     1       0.337  10.028  18.326  0.00  0.00    +0.000 A 
ATOM     26  C   UNL     1       0.003   9.725  19.648  0.00  0.00    +0.000 A 
ATOM     27  C   UNL     1       0.732   8.776  20.376  0.00  0.00    +0.000 A 
BRANCH  27  28
ATOM     28  O   UNL     1       0.261   8.585  21.648  0.00  0.00    +0.000 OA
ATOM     29  C   UNL     1       0.885   9.335  22.681  0.00  0.00    +0.000 C 
ENDBRANCH  27  28
ENDBRANCH  20  22
ENDBRANCH  17  18
ENDBRANCH   1  17
TORSDOF 7
ENDMDL
MODEL 6
REMARK VINA RESULT:      -7.5      2.473      8.618
REMARK  Name = 
REMARK  9 active torsions:
REMARK  status: ('A' for Active; 'I' for Inactive)
REMARK    1  A    between atoms: C_1  and  C_2
REMARK    2  A    between atoms: C_2  and  N_3
REMARK    3  A    between atoms: N_3  and  C_4
REMARK    4  A    between atoms: C_4  and  C_5
REMARK    5  A    between atoms: N_7  and  C_8
REMARK    6  A    between atoms: C_13  and  O_14
REMARK    7  A    between atoms: O_14  and  C_15
REMARK    8  A    between atoms: C_16  and  C_18
REMARK    9  A    between atoms: C_22  and  N_23
REMARK                            x       y       z     vdW  Elec       q    Type
REMARK                         _______ _______ _______ _____ _____    ______ ____
ROOT
ATOM      1  N   UNL     1       1.775   7.847  19.825  0.00  0.00    +0.000 N 
ATOM      2  C   UNL     1       0.985   8.840  20.449  0.00  0.00    +0.000 C 
ATOM      3  O   UNL     1       0.742   8.794  21.658  0.00  0.00    +0.000 OA
ENDROOT
BRANCH   2   4
ATOM      4  C   UNL     1       0.452  10.036  19.723  0.00  0.00    +0.000 A 
ATOM      5  C   UNL     1       1.184  11.229  19.807  0.00  0.00    +0.000 A 
ATOM      6  C   UNL     1       0.732  12.390  19.176  0.00  0.00    +0.000 A 
ATOM      7  C   UNL     1      -0.440  12.368  18.417  0.00  0.00    +0.000 A 
ATOM      8  C   UNL     1      -1.199  11.195  18.337  0.00  0.00    +0.000 A 
ATOM      9  C   UNL     1      -0.773  10.061  19.053  0.00  0.00    +0.000 A 
BRANCH   8  10
ATOM     10  N   UNL     1      -2.388  11.133  17.541  0.00  0.00    +0.000 N 
ATOM     11  C   UNL     1      -2.477  10.707  16.226  0.00  0.00    +0.000 A 
ATOM     12  C   UNL     1      -3.784  10.790  15.802  0.00  0.00    +0.000 A 
ATOM     13  C   UNL     1      -4.534  11.308  16.874  0.00  0.00    +0.000 A 
ATOM     14  C   UNL     1      -3.659  11.526  17.917  0.00  0.00    +0.000 A 
ENDBRANCH   8  10
ENDBRANCH   2   4
BRANCH   1  16
ATOM     15  C   UNL     1       1.454   5.548  20.725  0.00  0.00    +0.000 C 
ATOM     16  C   UNL     1       2.306   6.806  20.716  0.00  0.00    +0.000 C 
ENDBRANCH   1  16
BRANCH   1  17
ATOM     17  C   UNL     1       2.208   7.869  18.419  0.00  0.00    +0.000 C 
BRANCH  17  18
ATOM     18  C   UNL     1       3.086   6.760  17.815  0.00  0.00    +0.000 C 
ATOM     19  O   UNL     1       2.668   5.614  17.692  0.00  0.00    +0.000 OA
ATOM     20  N   UNL     1       4.367   7.186  17.473  0.00  0.00    +0.000 N 
ATOM     21  H   UNL     1       4.766   7.749  18.214  0.00  0.00    +0.000 HD
BRANCH  20  22
ATOM     22  C   UNL     1       5.254   6.231  16.922  0.00  0.00    +0.000 A 
ATOM     23  C   UNL     1       5.198   6.032  15.533  0.00  0.00    +0.000 A 
ATOM     24  C   UNL     1       6.110   5.183  14.906  0.00  0.00    +0.000 A 
ATOM     25  C   UNL     1       7.061   4.505  15.662  0.00  0.00    +0.000 A 
ATOM     26  C   UNL     1       7.105   4.684  17.046  0.00  0.00    +0.000 A 
ATOM     27  C   UNL     1       6.205   5.541  17.691  0.00  0.00    +0.000 A 
BRANCH  27  28
ATOM     28  O   UNL     1       6.397   5.617  19.045  0.00  0.00    +0.000 OA
ATOM     29  C   UNL     1       7.742   5.694  19.498  0.00  0.00    +0.000 C 
ENDBRANCH  27  28
ENDBRANCH  20  22
ENDBRANCH  17  18
ENDBRANCH   1  17
TORSDOF 7
ENDMDL
MODEL 7
REMARK VINA RESULT:      -7.4      1.799      2.162
REMARK  Name = 
REMARK  9 active torsions:
REMARK  status: ('A' for Active; 'I' for Inactive)
REMARK    1  A    between atoms: C_1  and  C_2
REMARK    2  A    between atoms: C_2  and  N_3
REMARK    3  A    between atoms: N_3  and  C_4
REMARK    4  A    between atoms: C_4  and  C_5
REMARK    5  A    between atoms: N_7  and  C_8
REMARK    6  A    between atoms: C_13  and  O_14
REMARK    7  A    between atoms: O_14  and  C_15
REMARK    8  A    between atoms: C_16  and  C_18
REMARK    9  A    between atoms: C_22  and  N_23
REMARK                            x       y       z     vdW  Elec       q    Type
REMARK                         _______ _______ _______ _____ _____    ______ ____
ROOT
ATOM      1  N   UNL     1       2.801   5.297  18.940  0.00  0.00    +0.000 N 
ATOM      2  C   UNL     1       4.044   4.625  18.896  0.00  0.00    +0.000 C 
ATOM      3  O   UNL     1       4.252   3.624  19.585  0.00  0.00    +0.000 OA
ENDROOT
BRANCH   2   4
ATOM      4  C   UNL     1       5.156   5.026  17.976  0.00  0.00    +0.000 A 
ATOM      5  C   UNL     1       6.156   5.865  18.490  0.00  0.00    +0.000 A 
ATOM      6  C   UNL     1       7.209   6.299  17.682  0.00  0.00    +0.000 A 
ATOM      7  C   UNL     1       7.301   5.870  16.356  0.00  0.00    +0.000 A 
ATOM      8  C   UNL     1       6.305   5.051  15.815  0.00  0.00    +0.000 A 
ATOM      9  C   UNL     1       5.206   4.698  16.620  0.00  0.00    +0.000 A 
BRANCH   8  10
ATOM     10  N   UNL     1       6.388   4.570  14.469  0.00  0.00    +0.000 N 
ATOM     11  C   UNL     1       7.359   4.899  13.537  0.00  0.00    +0.000 A 
ATOM     12  C   UNL     1       7.106   4.239  12.355  0.00  0.00    +0.000 A 
ATOM     13  C   UNL     1       5.927   3.494  12.542  0.00  0.00    +0.000 A 
ATOM     14  C   UNL     1       5.499   3.725  13.832  0.00  0.00    +0.000 A 
ENDBRANCH   8  10
ENDBRANCH   2   4
BRANCH   1  16
ATOM     15  C   UNL     1       1.044   3.547  19.160  0.00  0.00    +0.000 C 
ATOM     16  C   UNL     1       1.787   4.697  19.819  0.00  0.00    +0.000 C 
ENDBRANCH   1  16
BRANCH   1  17
ATOM     17  C   UNL     1       2.419   6.430  18.083  0.00  0.00    +0.000 C 
BRANCH  17  18
ATOM     18  C   UNL     1       2.035   7.803  18.661  0.00  0.00    +0.000 C 
ATOM     19  O   UNL     1       1.997   7.996  19.871  0.00  0.00    +0.000 OA
ATOM     20  N   UNL     1       1.713   8.747  17.689  0.00  0.00    +0.000 N 
ATOM     21  H   UNL     1       1.104   8.345  16.988  0.00  0.00    +0.000 HD
BRANCH  20  22
ATOM     22  C   UNL     1       1.333  10.039  18.125  0.00  0.00    +0.000 A 
ATOM     23  C   UNL     1       2.351  10.998  18.252  0.00  0.00    +0.000 A 
ATOM     24  C   UNL     1       2.038  12.317  18.578  0.00  0.00    +0.000 A 
ATOM     25  C   UNL     1       0.715  12.681  18.810  0.00  0.00    +0.000 A 
ATOM     26  C   UNL     1      -0.297  11.725  18.706  0.00  0.00    +0.000 A 
ATOM     27  C   UNL     1      -0.003  10.398  18.368  0.00  0.00    +0.000 A 
BRANCH  27  28
ATOM     28  O   UNL     1      -1.110   9.596  18.290  0.00  0.00    +0.000 OA
ATOM     29  C   UNL     1      -2.048   9.896  17.267  0.00  0.00    +0.000 C 
ENDBRANCH  27  28
ENDBRANCH  20  22
ENDBRANCH  17  18
ENDBRANCH   1  17
TORSDOF 7
ENDMDL
MODEL 8
REMARK VINA RESULT:      -7.4      1.668      2.175
REMARK  Name = 
REMARK  9 active torsions:
REMARK  status: ('A' for Active; 'I' for Inactive)
REMARK    1  A    between atoms: C_1  and  C_2
REMARK    2  A    between atoms: C_2  and  N_3
REMARK    3  A    between atoms: N_3  and  C_4
REMARK    4  A    between atoms: C_4  and  C_5
REMARK    5  A    between atoms: N_7  and  C_8
REMARK    6  A    between atoms: C_13  and  O_14
REMARK    7  A    between atoms: O_14  and  C_15
REMARK    8  A    between atoms: C_16  and  C_18
REMARK    9  A    between atoms: C_22  and  N_23
REMARK                            x       y       z     vdW  Elec       q    Type
REMARK                         _______ _______ _______ _____ _____    ______ ____
ROOT
ATOM      1  N   UNL     1       2.665   5.146  18.641  0.00  0.00    +0.000 N 
ATOM      2  C   UNL     1       3.879   4.430  18.531  0.00  0.00    +0.000 C 
ATOM      3  O   UNL     1       4.033   3.345  19.097  0.00  0.00    +0.000 OA
ENDROOT
BRANCH   2   4
ATOM      4  C   UNL     1       5.023   4.889  17.680  0.00  0.00    +0.000 A 
ATOM      5  C   UNL     1       5.968   5.744  18.266  0.00  0.00    +0.000 A 
ATOM      6  C   UNL     1       7.046   6.231  17.523  0.00  0.00    +0.000 A 
ATOM      7  C   UNL     1       7.219   5.841  16.194  0.00  0.00    +0.000 A 
ATOM      8  C   UNL     1       6.277   5.006  15.582  0.00  0.00    +0.000 A 
ATOM      9  C   UNL     1       5.152   4.599  16.320  0.00  0.00    +0.000 A 
BRANCH   8  10
ATOM     10  N   UNL     1       6.444   4.564  14.230  0.00  0.00    +0.000 N 
ATOM     11  C   UNL     1       5.677   3.615  13.575  0.00  0.00    +0.000 A 
ATOM     12  C   UNL     1       6.139   3.458  12.287  0.00  0.00    +0.000 A 
ATOM     13  C   UNL     1       7.246   4.314  12.138  0.00  0.00    +0.000 A 
ATOM     14  C   UNL     1       7.423   4.965  13.341  0.00  0.00    +0.000 A 
ENDBRANCH   8  10
ENDBRANCH   2   4
BRANCH   1  16
ATOM     15  C   UNL     1       1.799   4.669  20.926  0.00  0.00    +0.000 C 
ATOM     16  C   UNL     1       1.612   4.490  19.428  0.00  0.00    +0.000 C 
ENDBRANCH   1  16
BRANCH   1  17
ATOM     17  C   UNL     1       2.345   6.389  17.922  0.00  0.00    +0.000 C 
BRANCH  17  18
ATOM     18  C   UNL     1       2.216   7.742  18.640  0.00  0.00    +0.000 C 
ATOM     19  O   UNL     1       2.520   7.868  19.821  0.00  0.00    +0.000 OA
ATOM     20  N   UNL     1       1.698   8.755  17.836  0.00  0.00    +0.000 N 
ATOM     21  H   UNL     1       0.898   8.421  17.313  0.00  0.00    +0.000 HD
BRANCH  20  22
ATOM     22  C   UNL     1       1.528  10.035  18.413  0.00  0.00    +0.000 A 
ATOM     23  C   UNL     1       2.379  11.058  17.966  0.00  0.00    +0.000 A 
ATOM     24  C   UNL     1       2.204  12.367  18.415  0.00  0.00    +0.000 A 
ATOM     25  C   UNL     1       1.201  12.657  19.335  0.00  0.00    +0.000 A 
ATOM     26  C   UNL     1       0.368  11.637  19.800  0.00  0.00    +0.000 A 
ATOM     27  C   UNL     1       0.522  10.320  19.351  0.00  0.00    +0.000 A 
BRANCH  27  28
ATOM     28  O   UNL     1      -0.388   9.449  19.889  0.00  0.00    +0.000 OA
ATOM     29  C   UNL     1      -0.331   9.252  21.295  0.00  0.00    +0.000 C 
ENDBRANCH  27  28
ENDBRANCH  20  22
ENDBRANCH  17  18
ENDBRANCH   1  17
TORSDOF 7
ENDMDL
MODEL 9
REMARK VINA RESULT:      -7.3      1.478      1.549
REMARK  Name = 
REMARK  9 active torsions:
REMARK  status: ('A' for Active; 'I' for Inactive)
REMARK    1  A    between atoms: C_1  and  C_2
REMARK    2  A    between atoms: C_2  and  N_3
REMARK    3  A    between atoms: N_3  and  C_4
REMARK    4  A    between atoms: C_4  and  C_5
REMARK    5  A    between atoms: N_7  and  C_8
REMARK    6  A    between atoms: C_13  and  O_14
REMARK    7  A    between atoms: O_14  and  C_15
REMARK    8  A    between atoms: C_16  and  C_18
REMARK    9  A    between atoms: C_22  and  N_23
REMARK                            x       y       z     vdW  Elec       q    Type
REMARK                         _______ _______ _______ _____ _____    ______ ____
ROOT
ATOM      1  N   UNL     1       2.477   3.794  19.594  0.00  0.00    +0.000 N 
ATOM      2  C   UNL     1       2.927   3.503  18.286  0.00  0.00    +0.000 C 
ATOM      3  O   UNL     1       2.569   2.477  17.702  0.00  0.00    +0.000 OA
ENDROOT
BRANCH   2   4
ATOM      4  C   UNL     1       3.799   4.430  17.497  0.00  0.00    +0.000 A 
ATOM      5  C   UNL     1       3.989   5.727  17.996  0.00  0.00    +0.000 A 
ATOM      6  C   UNL     1       4.768   6.653  17.298  0.00  0.00    +0.000 A 
ATOM      7  C   UNL     1       5.402   6.285  16.110  0.00  0.00    +0.000 A 
ATOM      8  C   UNL     1       5.209   5.004  15.581  0.00  0.00    +0.000 A 
ATOM      9  C   UNL     1       4.349   4.116  16.252  0.00  0.00    +0.000 A 
BRANCH   8  10
ATOM     10  N   UNL     1       5.871   4.589  14.381  0.00  0.00    +0.000 N 
ATOM     11  C   UNL     1       5.383   3.698  13.439  0.00  0.00    +0.000 A 
ATOM     12  C   UNL     1       6.303   3.550  12.425  0.00  0.00    +0.000 A 
ATOM     13  C   UNL     1       7.412   4.351  12.753  0.00  0.00    +0.000 A 
ATOM     14  C   UNL     1       7.133   4.961  13.958  0.00  0.00    +0.000 A 
ENDBRANCH   8  10
ENDBRANCH   2   4
BRANCH   1  16
ATOM     15  C   UNL     1       1.787   2.569  21.649  0.00  0.00    +0.000 C 
ATOM     16  C   UNL     1       1.537   2.823  20.172  0.00  0.00    +0.000 C 
ENDBRANCH   1  16
BRANCH   1  17
ATOM     17  C   UNL     1       2.759   5.035  20.331  0.00  0.00    +0.000 C 
BRANCH  17  18
ATOM     18  C   UNL     1       1.685   6.111  20.566  0.00  0.00    +0.000 C 
ATOM     19  O   UNL     1       0.494   5.824  20.602  0.00  0.00    +0.000 OA
ATOM     20  N   UNL     1       2.202   7.398  20.691  0.00  0.00    +0.000 N 
ATOM     21  H   UNL     1       2.896   7.575  19.976  0.00  0.00    +0.000 HD
BRANCH  20  22
ATOM     22  C   UNL     1       1.289   8.459  20.896  0.00  0.00    +0.000 A 
ATOM     23  C   UNL     1       0.952   8.767  22.224  0.00  0.00    +0.000 A 
ATOM     24  C   UNL     1       0.139   9.864  22.508  0.00  0.00    +0.000 A 
ATOM     25  C   UNL     1      -0.369  10.640  21.470  0.00  0.00    +0.000 A 
ATOM     26  C   UNL     1      -0.055  10.322  20.147  0.00  0.00    +0.000 A 
ATOM     27  C   UNL     1       0.770   9.232  19.844  0.00  0.00    +0.000 A 
BRANCH  27  28
ATOM     28  O   UNL     1       0.994   9.072  18.503  0.00  0.00    +0.000 OA
ATOM     29  C   UNL     1       2.046   9.838  17.933  0.00  0.00    +0.000 C 
ENDBRANCH  27  28
ENDBRANCH  20  22
ENDBRANCH  17  18
ENDBRANCH   1  17
TORSDOF 7
ENDMDL
