MODEL 1
REMARK VINA RESULT:      -8.5      0.000      0.000
REMARK  Name = 
REMARK  6 active torsions:
REMARK  status: ('A' for Active; 'I' for Inactive)
REMARK    1  A    between atoms: C_2  and  C_14
REMARK    2  A    between atoms: N_3  and  C_4
REMARK    3  A    between atoms: C_8  and  C_9
REMARK    4  A    between atoms: C_18  and  N_19
REMARK    5  A    between atoms: C_24  and  C_25
REMARK    6  A    between atoms: C_25  and  S_26
REMARK                            x       y       z     vdW  Elec       q    Type
REMARK                         _______ _______ _______ _____ _____    ______ ____
ROOT
ATOM      1  C   UNL     1       1.393   8.587  19.669  0.00  0.00    +0.000 A 
ATOM      2  C   UNL     1       1.418   8.403  21.050  0.00  0.00    +0.000 A 
ATOM      3  C   UNL     1       0.553   9.151  21.843  0.00  0.00    +0.000 A 
ATOM      4  C   UNL     1      -0.323  10.075  21.257  0.00  0.00    +0.000 A 
ATOM      5  C   UNL     1      -0.361  10.291  19.869  0.00  0.00    +0.000 A 
ATOM      6  C   UNL     1       0.517   9.524  19.097  0.00  0.00    +0.000 A 
ENDROOT
BRANCH   5   7
ATOM      7  N   UNL     1      -1.214  11.214  19.295  0.00  0.00    +0.000 N 
ATOM      8  C   UNL     1      -1.556  11.189  17.867  0.00  0.00    +0.000 C 
ATOM      9  C   UNL     1      -3.030  10.838  17.698  0.00  0.00    +0.000 C 
ATOM     10  C   UNL     1      -3.893  11.711  18.573  0.00  0.00    +0.000 A 
ATOM     11  N   UNL     1      -5.195  11.820  18.226  0.00  0.00    +0.000 NA
ATOM     12  C   UNL     1      -5.987  12.563  19.027  0.00  0.00    +0.000 A 
ATOM     13  N   UNL     1      -5.566  13.183  20.147  0.00  0.00    +0.000 NA
ATOM     14  C   UNL     1      -4.261  13.047  20.454  0.00  0.00    +0.000 A 
ATOM     15  C   UNL     1      -3.367  12.311  19.705  0.00  0.00    +0.000 A 
ATOM     16  C   UNL     1      -1.924  12.205  20.105  0.00  0.00    +0.000 C 
BRANCH  12  17
ATOM     17  C   UNL     1      -7.451  12.665  18.670  0.00  0.00    +0.000 C 
BRANCH  17  18
ATOM     18  S   UNL     1      -7.841  14.165  17.715  0.00  0.00    +0.000 S 
ATOM     19  H   UNL     1      -7.509  15.023  18.695  0.00  0.00    +0.000 HD
ENDBRANCH  17  18
ENDBRANCH  12  17
ENDBRANCH   5   7
BRANCH   1  21
ATOM     20  O   UNL     1       2.597   8.428  17.692  0.00  0.00    +0.000 OA
ATOM     21  C   UNL     1       2.310   7.870  18.747  0.00  0.00    +0.000 C 
ATOM     22  N   UNL     1       2.706   6.603  19.140  0.00  0.00    +0.000 N 
ATOM     23  H   UNL     1       2.219   6.186  19.924  0.00  0.00    +0.000 HD
BRANCH  22  24
ATOM     24  C   UNL     1       3.582   5.765  18.414  0.00  0.00    +0.000 A 
ATOM     25  C   UNL     1       3.129   4.730  17.592  0.00  0.00    +0.000 A 
ATOM     26  C   UNL     1       4.028   3.901  16.920  0.00  0.00    +0.000 A 
ATOM     27  C   UNL     1       5.396   4.100  17.063  0.00  0.00    +0.000 A 
ATOM     28  C   UNL     1       5.878   5.141  17.868  0.00  0.00    +0.000 A 
ATOM     29  C   UNL     1       4.959   5.982  18.528  0.00  0.00    +0.000 A 
BRANCH  28  30
ATOM     30  C   UNL     1       7.361   5.347  18.049  0.00  0.00    +0.000 C 
ATOM     31  F   UNL     1       7.839   6.459  17.423  0.00  0.00    +0.000 F 
ATOM     32  F   UNL     1       7.713   5.476  19.357  0.00  0.00    +0.000 F 
ATOM     33  F   UNL     1       8.093   4.305  17.566  0.00  0.00    +0.000 F 
ENDBRANCH  28  30
ENDBRANCH  22  24
ENDBRANCH   1  21
TORSDOF 6
ENDMDL
MODEL 2
REMARK VINA RESULT:      -8.4      2.240      2.671
REMARK  Name = 
REMARK  6 active torsions:
REMARK  status: ('A' for Active; 'I' for Inactive)
REMARK    1  A    between atoms: C_2  and  C_14
REMARK    2  A    between atoms: N_3  and  C_4
REMARK    3  A    between atoms: C_8  and  C_9
REMARK    4  A    between atoms: C_18  and  N_19
REMARK    5  A    between atoms: C_24  and  C_25
REMARK    6  A    between atoms: C_25  and  S_26
REMARK                            x       y       z     vdW  Elec       q    Type
REMARK                         _______ _______ _______ _____ _____    ______ ____
ROOT
ATOM      1  C   UNL     1       1.204   8.568  20.597  0.00  0.00    +0.000 A 
ATOM      2  C   UNL     1       1.215   8.529  21.989  0.00  0.00    +0.000 A 
ATOM      3  C   UNL     1       0.436   9.443  22.693  0.00  0.00    +0.000 A 
ATOM      4  C   UNL     1      -0.340  10.388  22.007  0.00  0.00    +0.000 A 
ATOM      5  C   UNL     1      -0.360  10.459  20.605  0.00  0.00    +0.000 A 
ATOM      6  C   UNL     1       0.429   9.527  19.923  0.00  0.00    +0.000 A 
ENDROOT
BRANCH   5   7
ATOM      7  N   UNL     1      -1.114  11.401  19.930  0.00  0.00    +0.000 N 
ATOM      8  C   UNL     1      -1.255  11.398  18.469  0.00  0.00    +0.000 C 
ATOM      9  C   UNL     1      -2.697  11.071  18.094  0.00  0.00    +0.000 C 
ATOM     10  C   UNL     1      -3.660  11.946  18.854  0.00  0.00    +0.000 A 
ATOM     11  N   UNL     1      -4.900  12.079  18.331  0.00  0.00    +0.000 NA
ATOM     12  C   UNL     1      -5.785  12.824  19.026  0.00  0.00    +0.000 A 
ATOM     13  N   UNL     1      -5.515  13.426  20.202  0.00  0.00    +0.000 NA
ATOM     14  C   UNL     1      -4.267  13.266  20.683  0.00  0.00    +0.000 A 
ATOM     15  C   UNL     1      -3.288  12.525  20.055  0.00  0.00    +0.000 A 
ATOM     16  C   UNL     1      -1.915  12.393  20.648  0.00  0.00    +0.000 C 
BRANCH  12  17
ATOM     17  C   UNL     1      -7.184  12.952  18.472  0.00  0.00    +0.000 C 
BRANCH  17  18
ATOM     18  S   UNL     1      -7.238  13.849  16.889  0.00  0.00    +0.000 S 
ATOM     19  H   UNL     1      -8.177  14.728  17.278  0.00  0.00    +0.000 HD
ENDBRANCH  17  18
ENDBRANCH  12  17
ENDBRANCH   5   7
BRANCH   1  21
ATOM     20  O   UNL     1       2.245   8.006  18.601  0.00  0.00    +0.000 OA
ATOM     21  C   UNL     1       2.037   7.667  19.762  0.00  0.00    +0.000 C 
ATOM     22  N   UNL     1       2.449   6.487  20.358  0.00  0.00    +0.000 N 
ATOM     23  H   UNL     1       2.022   6.239  21.242  0.00  0.00    +0.000 HD
BRANCH  22  24
ATOM     24  C   UNL     1       3.255   5.504  19.741  0.00  0.00    +0.000 A 
ATOM     25  C   UNL     1       4.592   5.727  19.402  0.00  0.00    +0.000 A 
ATOM     26  C   UNL     1       5.343   4.744  18.760  0.00  0.00    +0.000 A 
ATOM     27  C   UNL     1       4.764   3.519  18.448  0.00  0.00    +0.000 A 
ATOM     28  C   UNL     1       3.429   3.262  18.791  0.00  0.00    +0.000 A 
ATOM     29  C   UNL     1       2.686   4.259  19.455  0.00  0.00    +0.000 A 
BRANCH  28  30
ATOM     30  C   UNL     1       2.786   1.946  18.434  0.00  0.00    +0.000 C 
ATOM     31  F   UNL     1       2.233   1.928  17.189  0.00  0.00    +0.000 F 
ATOM     32  F   UNL     1       3.668   0.910  18.465  0.00  0.00    +0.000 F 
ATOM     33  F   UNL     1       1.783   1.608  19.291  0.00  0.00    +0.000 F 
ENDBRANCH  28  30
ENDBRANCH  22  24
ENDBRANCH   1  21
TORSDOF 6
ENDMDL
MODEL 3
REMARK VINA RESULT:      -8.3      3.764      5.291
REMARK  Name = 
REMARK  6 active torsions:
REMARK  status: ('A' for Active; 'I' for Inactive)
REMARK    1  A    between atoms: C_2  and  C_14
REMARK    2  A    between atoms: N_3  and  C_4
REMARK    3  A    between atoms: C_8  and  C_9
REMARK    4  A    between atoms: C_18  and  N_19
REMARK    5  A    between atoms: C_24  and  C_25
REMARK    6  A    between atoms: C_25  and  S_26
REMARK                            x       y       z     vdW  Elec       q    Type
REMARK                         _______ _______ _______ _____ _____    ______ ____
ROOT
ATOM      1  C   UNL     1       2.807   4.450  18.590  0.00  0.00    +0.000 A 
ATOM      2  C   UNL     1       1.962   3.542  19.225  0.00  0.00    +0.000 A 
ATOM      3  C   UNL     1       1.073   4.012  20.187  0.00  0.00    +0.000 A 
ATOM      4  C   UNL     1       1.038   5.375  20.512  0.00  0.00    +0.000 A 
ATOM      5  C   UNL     1       1.887   6.311  19.898  0.00  0.00    +0.000 A 
ATOM      6  C   UNL     1       2.767   5.811  18.933  0.00  0.00    +0.000 A 
ENDROOT
BRANCH   5   7
ATOM      7  N   UNL     1       1.861   7.652  20.230  0.00  0.00    +0.000 N 
ATOM      8  C   UNL     1       1.822   8.714  19.217  0.00  0.00    +0.000 C 
ATOM      9  C   UNL     1       0.483   9.440  19.287  0.00  0.00    +0.000 C 
ATOM     10  C   UNL     1       0.173   9.858  20.701  0.00  0.00    +0.000 A 
ATOM     11  N   UNL     1      -0.727  10.855  20.855  0.00  0.00    +0.000 NA
ATOM     12  C   UNL     1      -1.047  11.208  22.118  0.00  0.00    +0.000 A 
ATOM     13  N   UNL     1      -0.539  10.624  23.221  0.00  0.00    +0.000 NA
ATOM     14  C   UNL     1       0.354   9.636  23.020  0.00  0.00    +0.000 A 
ATOM     15  C   UNL     1       0.749   9.197  21.772  0.00  0.00    +0.000 A 
ATOM     16  C   UNL     1       1.753   8.091  21.622  0.00  0.00    +0.000 C 
BRANCH  12  17
ATOM     17  C   UNL     1      -2.077  12.297  22.305  0.00  0.00    +0.000 C 
BRANCH  17  18
ATOM     18  S   UNL     1      -2.619  13.034  20.732  0.00  0.00    +0.000 S 
ATOM     19  H   UNL     1      -1.406  13.501  20.391  0.00  0.00    +0.000 HD
ENDBRANCH  17  18
ENDBRANCH  12  17
ENDBRANCH   5   7
BRANCH   1  21
ATOM     20  O   UNL     1       4.061   2.837  17.490  0.00  0.00    +0.000 OA
ATOM     21  C   UNL     1       3.820   4.036  17.586  0.00  0.00    +0.000 C 
ATOM     22  N   UNL     1       4.448   5.058  16.894  0.00  0.00    +0.000 N 
ATOM     23  H   UNL     1       4.308   6.003  17.231  0.00  0.00    +0.000 HD
BRANCH  22  24
ATOM     24  C   UNL     1       5.428   4.877  15.892  0.00  0.00    +0.000 A 
ATOM     25  C   UNL     1       6.753   5.293  16.046  0.00  0.00    +0.000 A 
ATOM     26  C   UNL     1       7.681   5.129  15.019  0.00  0.00    +0.000 A 
ATOM     27  C   UNL     1       7.293   4.543  13.819  0.00  0.00    +0.000 A 
ATOM     28  C   UNL     1       5.974   4.101  13.642  0.00  0.00    +0.000 A 
ATOM     29  C   UNL     1       5.051   4.258  14.696  0.00  0.00    +0.000 A 
BRANCH  28  30
ATOM     30  C   UNL     1       5.540   3.488  12.336  0.00  0.00    +0.000 C 
ATOM     31  F   UNL     1       4.205   3.607  12.093  0.00  0.00    +0.000 F 
ATOM     32  F   UNL     1       6.165   4.049  11.264  0.00  0.00    +0.000 F 
ATOM     33  F   UNL     1       5.812   2.155  12.271  0.00  0.00    +0.000 F 
ENDBRANCH  28  30
ENDBRANCH  22  24
ENDBRANCH   1  21
TORSDOF 6
ENDMDL
MODEL 4
REMARK VINA RESULT:      -8.3      3.055      4.095
REMARK  Name = 
REMARK  6 active torsions:
REMARK  status: ('A' for Active; 'I' for Inactive)
REMARK    1  A    between atoms: C_2  and  C_14
REMARK    2  A    between atoms: N_3  and  C_4
REMARK    3  A    between atoms: C_8  and  C_9
REMARK    4  A    between atoms: C_18  and  N_19
REMARK    5  A    between atoms: C_24  and  C_25
REMARK    6  A    between atoms: C_25  and  S_26
REMARK                            x       y       z     vdW  Elec       q    Type
REMARK                         _______ _______ _______ _____ _____    ______ ____
ROOT
ATOM      1  C   UNL     1       1.523   8.016  20.402  0.00  0.00    +0.000 A 
ATOM      2  C   UNL     1       1.116   8.162  21.726  0.00  0.00    +0.000 A 
ATOM      3  C   UNL     1       0.556   9.371  22.127  0.00  0.00    +0.000 A 
ATOM      4  C   UNL     1       0.412  10.423  21.211  0.00  0.00    +0.000 A 
ATOM      5  C   UNL     1       0.826  10.309  19.874  0.00  0.00    +0.000 A 
ATOM      6  C   UNL     1       1.382   9.081  19.498  0.00  0.00    +0.000 A 
ENDROOT
BRANCH   5   7
ATOM      7  N   UNL     1       0.697  11.351  18.976  0.00  0.00    +0.000 N 
ATOM      8  C   UNL     1      -0.605  11.794  18.463  0.00  0.00    +0.000 C 
ATOM      9  C   UNL     1      -0.912  13.195  18.984  0.00  0.00    +0.000 C 
ATOM     10  C   UNL     1       0.250  14.123  18.740  0.00  0.00    +0.000 A 
ATOM     11  N   UNL     1      -0.022  15.448  18.745  0.00  0.00    +0.000 NA
ATOM     12  C   UNL     1       1.018  16.291  18.571  0.00  0.00    +0.000 A 
ATOM     13  N   UNL     1       2.297  15.897  18.410  0.00  0.00    +0.000 NA
ATOM     14  C   UNL     1       2.520  14.568  18.412  0.00  0.00    +0.000 A 
ATOM     15  C   UNL     1       1.531  13.622  18.582  0.00  0.00    +0.000 A 
ATOM     16  C   UNL     1       1.851  12.155  18.570  0.00  0.00    +0.000 C 
BRANCH  12  17
ATOM     17  C   UNL     1       0.735  17.774  18.609  0.00  0.00    +0.000 C 
BRANCH  17  18
ATOM     18  S   UNL     1      -0.948  18.185  18.054  0.00  0.00    +0.000 S 
ATOM     19  H   UNL     1      -1.313  18.781  19.202  0.00  0.00    +0.000 HD
ENDBRANCH  17  18
ENDBRANCH  12  17
ENDBRANCH   5   7
BRANCH   1  21
ATOM     20  O   UNL     1       2.160   5.796  20.624  0.00  0.00    +0.000 OA
ATOM     21  C   UNL     1       2.173   6.781  19.893  0.00  0.00    +0.000 C 
ATOM     22  N   UNL     1       2.794   6.881  18.660  0.00  0.00    +0.000 N 
ATOM     23  H   UNL     1       2.914   7.808  18.273  0.00  0.00    +0.000 HD
BRANCH  22  24
ATOM     24  C   UNL     1       3.455   5.822  17.997  0.00  0.00    +0.000 A 
ATOM     25  C   UNL     1       2.800   4.654  17.597  0.00  0.00    +0.000 A 
ATOM     26  C   UNL     1       3.497   3.617  16.978  0.00  0.00    +0.000 A 
ATOM     27  C   UNL     1       4.863   3.735  16.751  0.00  0.00    +0.000 A 
ATOM     28  C   UNL     1       5.543   4.903  17.127  0.00  0.00    +0.000 A 
ATOM     29  C   UNL     1       4.823   5.951  17.736  0.00  0.00    +0.000 A 
BRANCH  28  30
ATOM     30  C   UNL     1       7.029   5.029  16.908  0.00  0.00    +0.000 C 
ATOM     31  F   UNL     1       7.777   4.380  17.843  0.00  0.00    +0.000 F 
ATOM     32  F   UNL     1       7.422   4.527  15.704  0.00  0.00    +0.000 F 
ATOM     33  F   UNL     1       7.449   6.324  16.928  0.00  0.00    +0.000 F 
ENDBRANCH  28  30
ENDBRANCH  22  24
ENDBRANCH   1  21
TORSDOF 6
ENDMDL
MODEL 5
REMARK VINA RESULT:      -8.3      3.423      5.102
REMARK  Name = 
REMARK  6 active torsions:
REMARK  status: ('A' for Active; 'I' for Inactive)
REMARK    1  A    between atoms: C_2  and  C_14
REMARK    2  A    between atoms: N_3  and  C_4
REMARK    3  A    between atoms: C_8  and  C_9
REMARK    4  A    between atoms: C_18  and  N_19
REMARK    5  A    between atoms: C_24  and  C_25
REMARK    6  A    between atoms: C_25  and  S_26
REMARK                            x       y       z     vdW  Elec       q    Type
REMARK                         _______ _______ _______ _____ _____    ______ ____
ROOT
ATOM      1  C   UNL     1       3.131   4.589  18.491  0.00  0.00    +0.000 A 
ATOM      2  C   UNL     1       2.543   3.753  19.438  0.00  0.00    +0.000 A 
ATOM      3  C   UNL     1       1.767   4.319  20.444  0.00  0.00    +0.000 A 
ATOM      4  C   UNL     1       1.588   5.709  20.503  0.00  0.00    +0.000 A 
ATOM      5  C   UNL     1       2.179   6.577  19.570  0.00  0.00    +0.000 A 
ATOM      6  C   UNL     1       2.951   5.980  18.568  0.00  0.00    +0.000 A 
ENDROOT
BRANCH   5   7
ATOM      7  N   UNL     1       2.014   7.947  19.638  0.00  0.00    +0.000 N 
ATOM      8  C   UNL     1       2.169   8.819  18.467  0.00  0.00    +0.000 C 
ATOM      9  C   UNL     1       0.821   9.427  18.097  0.00  0.00    +0.000 C 
ATOM     10  C   UNL     1       0.163  10.046  19.304  0.00  0.00    +0.000 A 
ATOM     11  N   UNL     1      -0.793  10.972  19.065  0.00  0.00    +0.000 NA
ATOM     12  C   UNL     1      -1.420  11.501  20.136  0.00  0.00    +0.000 A 
ATOM     13  N   UNL     1      -1.165  11.155  21.414  0.00  0.00    +0.000 NA
ATOM     14  C   UNL     1      -0.205  10.228  21.603  0.00  0.00    +0.000 A 
ATOM     15  C   UNL     1       0.495   9.625  20.580  0.00  0.00    +0.000 A 
ATOM     16  C   UNL     1       1.556   8.601  20.865  0.00  0.00    +0.000 C 
BRANCH  12  17
ATOM     17  C   UNL     1      -2.513  12.512  19.884  0.00  0.00    +0.000 C 
BRANCH  17  18
ATOM     18  S   UNL     1      -3.820  11.878  18.787  0.00  0.00    +0.000 S 
ATOM     19  H   UNL     1      -4.087  10.791  19.530  0.00  0.00    +0.000 HD
ENDBRANCH  17  18
ENDBRANCH  12  17
ENDBRANCH   5   7
BRANCH   1  21
ATOM     20  O   UNL     1       4.192   2.870  17.350  0.00  0.00    +0.000 OA
ATOM     21  C   UNL     1       4.014   4.083  17.410  0.00  0.00    +0.000 C 
ATOM     22  N   UNL     1       4.608   5.040  16.606  0.00  0.00    +0.000 N 
ATOM     23  H   UNL     1       4.545   6.005  16.907  0.00  0.00    +0.000 HD
BRANCH  22  24
ATOM     24  C   UNL     1       5.468   4.766  15.518  0.00  0.00    +0.000 A 
ATOM     25  C   UNL     1       6.822   5.109  15.520  0.00  0.00    +0.000 A 
ATOM     26  C   UNL     1       7.629   4.854  14.412  0.00  0.00    +0.000 A 
ATOM     27  C   UNL     1       7.088   4.251  13.283  0.00  0.00    +0.000 A 
ATOM     28  C   UNL     1       5.736   3.881  13.258  0.00  0.00    +0.000 A 
ATOM     29  C   UNL     1       4.935   4.129  14.392  0.00  0.00    +0.000 A 
BRANCH  28  30
ATOM     30  C   UNL     1       5.135   3.249  12.028  0.00  0.00    +0.000 C 
ATOM     31  F   UNL     1       3.773   3.266  12.014  0.00  0.00    +0.000 F 
ATOM     32  F   UNL     1       5.528   3.869  10.881  0.00  0.00    +0.000 F 
ATOM     33  F   UNL     1       5.493   1.942  11.889  0.00  0.00    +0.000 F 
ENDBRANCH  28  30
ENDBRANCH  22  24
ENDBRANCH   1  21
TORSDOF 6
ENDMDL
MODEL 6
REMARK VINA RESULT:      -8.1      0.972      1.215
REMARK  Name = 
REMARK  6 active torsions:
REMARK  status: ('A' for Active; 'I' for Inactive)
REMARK    1  A    between atoms: C_2  and  C_14
REMARK    2  A    between atoms: N_3  and  C_4
REMARK    3  A    between atoms: C_8  and  C_9
REMARK    4  A    between atoms: C_18  and  N_19
REMARK    5  A    between atoms: C_24  and  C_25
REMARK    6  A    between atoms: C_25  and  S_26
REMARK                            x       y       z     vdW  Elec       q    Type
REMARK                         _______ _______ _______ _____ _____    ______ ____
ROOT
ATOM      1  C   UNL     1       1.448   8.501  19.823  0.00  0.00    +0.000 A 
ATOM      2  C   UNL     1       1.458   8.212  21.186  0.00  0.00    +0.000 A 
ATOM      3  C   UNL     1       0.656   8.966  22.038  0.00  0.00    +0.000 A 
ATOM      4  C   UNL     1      -0.142  10.000  21.528  0.00  0.00    +0.000 A 
ATOM      5  C   UNL     1      -0.162  10.322  20.161  0.00  0.00    +0.000 A 
ATOM      6  C   UNL     1       0.651   9.546  19.328  0.00  0.00    +0.000 A 
ENDROOT
BRANCH   5   7
ATOM      7  N   UNL     1      -0.937  11.351  19.662  0.00  0.00    +0.000 N 
ATOM      8  C   UNL     1      -1.556  11.299  18.331  0.00  0.00    +0.000 C 
ATOM      9  C   UNL     1      -3.072  11.227  18.472  0.00  0.00    +0.000 C 
ATOM     10  C   UNL     1      -3.576  12.304  19.398  0.00  0.00    +0.000 A 
ATOM     11  N   UNL     1      -4.882  12.638  19.286  0.00  0.00    +0.000 NA
ATOM     12  C   UNL     1      -5.355  13.569  20.140  0.00  0.00    +0.000 A 
ATOM     13  N   UNL     1      -4.618  14.170  21.095  0.00  0.00    +0.000 NA
ATOM     14  C   UNL     1      -3.323  13.807  21.169  0.00  0.00    +0.000 A 
ATOM     15  C   UNL     1      -2.739  12.865  20.347  0.00  0.00    +0.000 A 
ATOM     16  C   UNL     1      -1.286  12.511  20.484  0.00  0.00    +0.000 C 
BRANCH  12  17
ATOM     17  C   UNL     1      -6.820  13.927  20.049  0.00  0.00    +0.000 C 
BRANCH  17  18
ATOM     18  S   UNL     1      -7.844  13.013  21.244  0.00  0.00    +0.000 S 
ATOM     19  H   UNL     1      -7.861  13.991  22.165  0.00  0.00    +0.000 HD
ENDBRANCH  17  18
ENDBRANCH  12  17
ENDBRANCH   5   7
BRANCH   1  21
ATOM     20  O   UNL     1       2.523   8.341  17.773  0.00  0.00    +0.000 OA
ATOM     21  C   UNL     1       2.303   7.783  18.844  0.00  0.00    +0.000 C 
ATOM     22  N   UNL     1       2.721   6.515  19.210  0.00  0.00    +0.000 N 
ATOM     23  H   UNL     1       2.284   6.098  20.023  0.00  0.00    +0.000 HD
BRANCH  22  24
ATOM     24  C   UNL     1       3.547   5.676  18.429  0.00  0.00    +0.000 A 
ATOM     25  C   UNL     1       3.041   4.645  17.634  0.00  0.00    +0.000 A 
ATOM     26  C   UNL     1       3.894   3.815  16.906  0.00  0.00    +0.000 A 
ATOM     27  C   UNL     1       5.269   4.008  16.966  0.00  0.00    +0.000 A 
ATOM     28  C   UNL     1       5.804   5.046  17.743  0.00  0.00    +0.000 A 
ATOM     29  C   UNL     1       4.930   5.888  18.460  0.00  0.00    +0.000 A 
BRANCH  28  30
ATOM     30  C   UNL     1       7.295   5.245  17.833  0.00  0.00    +0.000 C 
ATOM     31  F   UNL     1       8.017   4.240  17.263  0.00  0.00    +0.000 F 
ATOM     32  F   UNL     1       7.705   6.391  17.222  0.00  0.00    +0.000 F 
ATOM     33  F   UNL     1       7.731   5.332  19.121  0.00  0.00    +0.000 F 
ENDBRANCH  28  30
ENDBRANCH  22  24
ENDBRANCH   1  21
TORSDOF 6
ENDMDL
MODEL 7
REMARK VINA RESULT:      -8.1      5.423     10.320
REMARK  Name = 
REMARK  6 active torsions:
REMARK  status: ('A' for Active; 'I' for Inactive)
REMARK    1  A    between atoms: C_2  and  C_14
REMARK    2  A    between atoms: N_3  and  C_4
REMARK    3  A    between atoms: C_8  and  C_9
REMARK    4  A    between atoms: C_18  and  N_19
REMARK    5  A    between atoms: C_24  and  C_25
REMARK    6  A    between atoms: C_25  and  S_26
REMARK                            x       y       z     vdW  Elec       q    Type
REMARK                         _______ _______ _______ _____ _____    ______ ____
ROOT
ATOM      1  C   UNL     1       1.980   7.784  19.335  0.00  0.00    +0.000 A 
ATOM      2  C   UNL     1       1.338   7.302  20.473  0.00  0.00    +0.000 A 
ATOM      3  C   UNL     1       1.695   6.051  20.967  0.00  0.00    +0.000 A 
ATOM      4  C   UNL     1       2.680   5.290  20.321  0.00  0.00    +0.000 A 
ATOM      5  C   UNL     1       3.334   5.745  19.164  0.00  0.00    +0.000 A 
ATOM      6  C   UNL     1       2.958   7.007  18.692  0.00  0.00    +0.000 A 
ENDROOT
BRANCH   5   7
ATOM      7  N   UNL     1       4.294   4.988  18.520  0.00  0.00    +0.000 N 
ATOM      8  C   UNL     1       4.053   3.603  18.096  0.00  0.00    +0.000 C 
ATOM      9  C   UNL     1       4.045   3.526  16.573  0.00  0.00    +0.000 C 
ATOM     10  C   UNL     1       5.266   4.195  15.996  0.00  0.00    +0.000 A 
ATOM     11  N   UNL     1       5.614   3.841  14.738  0.00  0.00    +0.000 NA
ATOM     12  C   UNL     1       6.680   4.466  14.195  0.00  0.00    +0.000 A 
ATOM     13  N   UNL     1       7.401   5.419  14.818  0.00  0.00    +0.000 NA
ATOM     14  C   UNL     1       7.018   5.738  16.069  0.00  0.00    +0.000 A 
ATOM     15  C   UNL     1       5.945   5.163  16.717  0.00  0.00    +0.000 A 
ATOM     16  C   UNL     1       5.576   5.565  18.116  0.00  0.00    +0.000 C 
BRANCH  12  17
ATOM     17  C   UNL     1       7.059   4.106  12.778  0.00  0.00    +0.000 C 
BRANCH  17  18
ATOM     18  S   UNL     1       5.832   3.032  11.970  0.00  0.00    +0.000 S 
ATOM     19  H   UNL     1       4.783   3.494  12.671  0.00  0.00    +0.000 HD
ENDBRANCH  17  18
ENDBRANCH  12  17
ENDBRANCH   5   7
BRANCH   1  21
ATOM     20  O   UNL     1       1.959   9.250  17.537  0.00  0.00    +0.000 OA
ATOM     21  C   UNL     1       1.634   9.085  18.708  0.00  0.00    +0.000 C 
ATOM     22  N   UNL     1       1.031  10.020  19.533  0.00  0.00    +0.000 N 
ATOM     23  H   UNL     1       1.023   9.827  20.526  0.00  0.00    +0.000 HD
BRANCH  22  24
ATOM     24  C   UNL     1       0.613  11.308  19.129  0.00  0.00    +0.000 A 
ATOM     25  C   UNL     1      -0.699  11.590  18.741  0.00  0.00    +0.000 A 
ATOM     26  C   UNL     1      -1.062  12.867  18.314  0.00  0.00    +0.000 A 
ATOM     27  C   UNL     1      -0.113  13.881  18.269  0.00  0.00    +0.000 A 
ATOM     28  C   UNL     1       1.208  13.631  18.668  0.00  0.00    +0.000 A 
ATOM     29  C   UNL     1       1.557  12.340  19.115  0.00  0.00    +0.000 A 
BRANCH  28  30
ATOM     30  C   UNL     1       2.249  14.719  18.599  0.00  0.00    +0.000 C 
ATOM     31  F   UNL     1       1.736  15.949  18.316  0.00  0.00    +0.000 F 
ATOM     32  F   UNL     1       2.933  14.860  19.768  0.00  0.00    +0.000 F 
ATOM     33  F   UNL     1       3.188  14.479  17.643  0.00  0.00    +0.000 F 
ENDBRANCH  28  30
ENDBRANCH  22  24
ENDBRANCH   1  21
TORSDOF 6
ENDMDL
MODEL 8
REMARK VINA RESULT:      -8.0      1.193      1.455
REMARK  Name = 
REMARK  6 active torsions:
REMARK  status: ('A' for Active; 'I' for Inactive)
REMARK    1  A    between atoms: C_2  and  C_14
REMARK    2  A    between atoms: N_3  and  C_4
REMARK    3  A    between atoms: C_8  and  C_9
REMARK    4  A    between atoms: C_18  and  N_19
REMARK    5  A    between atoms: C_24  and  C_25
REMARK    6  A    between atoms: C_25  and  S_26
REMARK                            x       y       z     vdW  Elec       q    Type
REMARK                         _______ _______ _______ _____ _____    ______ ____
ROOT
ATOM      1  C   UNL     1       1.383   8.086  20.681  0.00  0.00    +0.000 A 
ATOM      2  C   UNL     1       1.584   8.455  22.010  0.00  0.00    +0.000 A 
ATOM      3  C   UNL     1       0.983   9.617  22.483  0.00  0.00    +0.000 A 
ATOM      4  C   UNL     1       0.194  10.403  21.631  0.00  0.00    +0.000 A 
ATOM      5  C   UNL     1      -0.015  10.063  20.284  0.00  0.00    +0.000 A 
ATOM      6  C   UNL     1       0.599   8.888  19.837  0.00  0.00    +0.000 A 
ENDROOT
BRANCH   5   7
ATOM      7  N   UNL     1      -0.780  10.847  19.441  0.00  0.00    +0.000 N 
ATOM      8  C   UNL     1      -0.949  10.539  18.015  0.00  0.00    +0.000 C 
ATOM      9  C   UNL     1      -2.397  10.147  17.743  0.00  0.00    +0.000 C 
ATOM     10  C   UNL     1      -3.346  11.166  18.320  0.00  0.00    +0.000 A 
ATOM     11  N   UNL     1      -4.595  11.192  17.804  0.00  0.00    +0.000 NA
ATOM     12  C   UNL     1      -5.467  12.070  18.343  0.00  0.00    +0.000 A 
ATOM     13  N   UNL     1      -5.174  12.903  19.362  0.00  0.00    +0.000 NA
ATOM     14  C   UNL     1      -3.918  12.842  19.844  0.00  0.00    +0.000 A 
ATOM     15  C   UNL     1      -2.951  11.982  19.367  0.00  0.00    +0.000 A 
ATOM     16  C   UNL     1      -1.567  11.971  19.950  0.00  0.00    +0.000 C 
BRANCH  12  17
ATOM     17  C   UNL     1      -6.876  12.086  17.800  0.00  0.00    +0.000 C 
BRANCH  17  18
ATOM     18  S   UNL     1      -7.377  13.724  17.186  0.00  0.00    +0.000 S 
ATOM     19  H   UNL     1      -8.192  13.252  16.228  0.00  0.00    +0.000 HD
ENDBRANCH  17  18
ENDBRANCH  12  17
ENDBRANCH   5   7
BRANCH   1  21
ATOM     20  O   UNL     1       1.984   5.846  20.718  0.00  0.00    +0.000 OA
ATOM     21  C   UNL     1       2.021   6.890  20.075  0.00  0.00    +0.000 C 
ATOM     22  N   UNL     1       2.658   7.086  18.861  0.00  0.00    +0.000 N 
ATOM     23  H   UNL     1       2.797   8.041  18.557  0.00  0.00    +0.000 HD
BRANCH  22  24
ATOM     24  C   UNL     1       3.312   6.078  18.116  0.00  0.00    +0.000 A 
ATOM     25  C   UNL     1       2.689   4.879  17.758  0.00  0.00    +0.000 A 
ATOM     26  C   UNL     1       3.381   3.894  17.055  0.00  0.00    +0.000 A 
ATOM     27  C   UNL     1       4.709   4.097  16.698  0.00  0.00    +0.000 A 
ATOM     28  C   UNL     1       5.354   5.297  17.030  0.00  0.00    +0.000 A 
ATOM     29  C   UNL     1       4.638   6.292  17.727  0.00  0.00    +0.000 A 
BRANCH  28  30
ATOM     30  C   UNL     1       6.801   5.515  16.670  0.00  0.00    +0.000 C 
ATOM     31  F   UNL     1       7.644   4.593  17.213  0.00  0.00    +0.000 F 
ATOM     32  F   UNL     1       7.016   5.470  15.326  0.00  0.00    +0.000 F 
ATOM     33  F   UNL     1       7.262   6.729  17.081  0.00  0.00    +0.000 F 
ENDBRANCH  28  30
ENDBRANCH  22  24
ENDBRANCH   1  21
TORSDOF 6
ENDMDL
MODEL 9
REMARK VINA RESULT:      -7.9      3.357      4.337
REMARK  Name = 
REMARK  6 active torsions:
REMARK  status: ('A' for Active; 'I' for Inactive)
REMARK    1  A    between atoms: C_2  and  C_14
REMARK    2  A    between atoms: N_3  and  C_4
REMARK    3  A    between atoms: C_8  and  C_9
REMARK    4  A    between atoms: C_18  and  N_19
REMARK    5  A    between atoms: C_24  and  C_25
REMARK    6  A    between atoms: C_25  and  S_26
REMARK                            x       y       z     vdW  Elec       q    Type
REMARK                         _______ _______ _______ _____ _____    ______ ____
ROOT
ATOM      1  C   UNL     1       2.265   7.178  19.555  0.00  0.00    +0.000 A 
ATOM      2  C   UNL     1       1.730   7.012  20.831  0.00  0.00    +0.000 A 
ATOM      3  C   UNL     1       0.904   8.007  21.347  0.00  0.00    +0.000 A 
ATOM      4  C   UNL     1       0.624   9.156  20.593  0.00  0.00    +0.000 A 
ATOM      5  C   UNL     1       1.160   9.356  19.311  0.00  0.00    +0.000 A 
ATOM      6  C   UNL     1       1.983   8.338  18.816  0.00  0.00    +0.000 A 
ENDROOT
BRANCH   5   7
ATOM      7  N   UNL     1       0.896  10.495  18.575  0.00  0.00    +0.000 N 
ATOM      8  C   UNL     1      -0.459  10.854  18.138  0.00  0.00    +0.000 C 
ATOM      9  C   UNL     1      -0.913  12.119  18.859  0.00  0.00    +0.000 C 
ATOM     10  C   UNL     1       0.130  13.202  18.750  0.00  0.00    +0.000 A 
ATOM     11  N   UNL     1      -0.290  14.471  18.949  0.00  0.00    +0.000 NA
ATOM     12  C   UNL     1       0.642  15.445  18.898  0.00  0.00    +0.000 A 
ATOM     13  N   UNL     1       1.955  15.229  18.676  0.00  0.00    +0.000 NA
ATOM     14  C   UNL     1       2.327  13.949  18.483  0.00  0.00    +0.000 A 
ATOM     15  C   UNL     1       1.456  12.880  18.516  0.00  0.00    +0.000 A 
ATOM     16  C   UNL     1       1.942  11.477  18.288  0.00  0.00    +0.000 C 
BRANCH  12  17
ATOM     17  C   UNL     1       0.193  16.864  19.153  0.00  0.00    +0.000 C 
BRANCH  17  18
ATOM     18  S   UNL     1      -0.429  17.687  17.654  0.00  0.00    +0.000 S 
ATOM     19  H   UNL     1      -1.723  17.409  17.890  0.00  0.00    +0.000 HD
ENDBRANCH  17  18
ENDBRANCH  12  17
ENDBRANCH   5   7
BRANCH   1  21
ATOM     20  O   UNL     1       2.821   5.026  18.889  0.00  0.00    +0.000 OA
ATOM     21  C   UNL     1       3.192   6.195  18.940  0.00  0.00    +0.000 C 
ATOM     22  N   UNL     1       4.423   6.684  18.538  0.00  0.00    +0.000 N 
ATOM     23  H   UNL     1       4.675   7.616  18.840  0.00  0.00    +0.000 HD
BRANCH  22  24
ATOM     24  C   UNL     1       5.438   5.917  17.922  0.00  0.00    +0.000 A 
ATOM     25  C   UNL     1       6.594   5.513  18.595  0.00  0.00    +0.000 A 
ATOM     26  C   UNL     1       7.590   4.789  17.940  0.00  0.00    +0.000 A 
ATOM     27  C   UNL     1       7.441   4.459  16.598  0.00  0.00    +0.000 A 
ATOM     28  C   UNL     1       6.284   4.837  15.902  0.00  0.00    +0.000 A 
ATOM     29  C   UNL     1       5.277   5.554  16.580  0.00  0.00    +0.000 A 
BRANCH  28  30
ATOM     30  C   UNL     1       6.126   4.505  14.440  0.00  0.00    +0.000 C 
ATOM     31  F   UNL     1       4.904   4.831  13.934  0.00  0.00    +0.000 F 
ATOM     32  F   UNL     1       7.036   5.149  13.659  0.00  0.00    +0.000 F 
ATOM     33  F   UNL     1       6.291   3.177  14.188  0.00  0.00    +0.000 F 
ENDBRANCH  28  30
ENDBRANCH  22  24
ENDBRANCH   1  21
TORSDOF 6
ENDMDL
