MODEL 1
REMARK VINA RESULT:      -6.8      0.000      0.000
REMARK  Name = 
REMARK  5 active torsions:
REMARK  status: ('A' for Active; 'I' for Inactive)
REMARK    1  A    between atoms: C_2  and  C_8
REMARK    2  A    between atoms: N_3  and  C_4
REMARK    3  A    between atoms: C_4  and  C_5
REMARK    4  A    between atoms: C_10  and  C_11
REMARK    5  A    between atoms: C_18  and  C_19
REMARK                            x       y       z     vdW  Elec       q    Type
REMARK                         _______ _______ _______ _____ _____    ______ ____
ROOT
ATOM      1  C   UNL     1       4.144   6.764  18.142  0.00  0.00    +0.000 A 
ATOM      2  C   UNL     1       5.314   7.511  17.872  0.00  0.00    +0.000 A 
ATOM      3  C   UNL     1       6.567   6.916  17.815  0.00  0.00    +0.000 A 
ATOM      4  N   UNL     1       6.736   5.611  18.075  0.00  0.00    +0.000 NA
ATOM      5  C   UNL     1       5.613   4.916  18.309  0.00  0.00    +0.000 A 
ATOM      6  O   UNL     1       5.651   3.592  18.584  0.00  0.00    +0.000 OA
ATOM      7  N   UNL     1       4.377   3.118  18.730  0.00  0.00    +0.000 NA
ATOM      8  C   UNL     1       3.551   4.136  18.433  0.00  0.00    +0.000 A 
ATOM      9  C   UNL     1       4.289   5.367  18.316  0.00  0.00    +0.000 A 
ENDROOT
BRANCH   8  10
ATOM     10  C   UNL     1       2.087   3.765  18.253  0.00  0.00    +0.000 C 
ATOM     11  C   UNL     1       1.147   4.619  19.160  0.00  0.00    +0.000 C 
ATOM     12  C   UNL     1       1.273   4.227  20.640  0.00  0.00    +0.000 C 
ATOM     13  C   UNL     1       1.121   2.719  20.850  0.00  0.00    +0.000 C 
ATOM     14  N   UNL     1       2.014   1.968  19.969  0.00  0.00    +0.000 NA
ATOM     15  C   UNL     1       1.745   2.305  18.568  0.00  0.00    +0.000 C 
ATOM     16  H   UNL     1       1.886   0.966  20.112  0.00  0.00    +0.000 HD
ENDBRANCH   8  10
BRANCH   1  18
ATOM     17  O   UNL     1       2.549   8.156  17.185  0.00  0.00    +0.000 OA
ATOM     18  C   UNL     1       2.911   7.563  18.198  0.00  0.00    +0.000 C 
ATOM     19  N   UNL     1       2.278   7.716  19.416  0.00  0.00    +0.000 N 
ATOM     20  H   UNL     1       2.638   7.261  20.242  0.00  0.00    +0.000 HD
BRANCH  19  21
ATOM     21  C   UNL     1       1.200   8.684  19.581  0.00  0.00    +0.000 C 
BRANCH  21  22
ATOM     22  C   UNL     1       0.965   9.006  21.023  0.00  0.00    +0.000 C 
ATOM     23  C   UNL     1      -0.011  10.069  21.473  0.00  0.00    +0.000 C 
ATOM     24  C   UNL     1      -0.344   8.617  21.675  0.00  0.00    +0.000 C 
ENDBRANCH  21  22
ENDBRANCH  19  21
ENDBRANCH   1  18
BRANCH   3  25
ATOM     25  C   UNL     1       7.791   7.711  17.416  0.00  0.00    +0.000 C 
ATOM     26  C   UNL     1       7.834   9.215  17.555  0.00  0.00    +0.000 C 
ATOM     27  C   UNL     1       8.632   8.362  18.494  0.00  0.00    +0.000 C 
ENDBRANCH   3  25
TORSDOF 5
ENDMDL
MODEL 2
REMARK VINA RESULT:      -6.7      1.166      1.221
REMARK  Name = 
REMARK  5 active torsions:
REMARK  status: ('A' for Active; 'I' for Inactive)
REMARK    1  A    between atoms: C_2  and  C_8
REMARK    2  A    between atoms: N_3  and  C_4
REMARK    3  A    between atoms: C_4  and  C_5
REMARK    4  A    between atoms: C_10  and  C_11
REMARK    5  A    between atoms: C_18  and  C_19
REMARK                            x       y       z     vdW  Elec       q    Type
REMARK                         _______ _______ _______ _____ _____    ______ ____
ROOT
ATOM      1  C   UNL     1       4.148   6.514  18.093  0.00  0.00    +0.000 A 
ATOM      2  C   UNL     1       5.263   7.319  17.762  0.00  0.00    +0.000 A 
ATOM      3  C   UNL     1       6.567   6.863  17.914  0.00  0.00    +0.000 A 
ATOM      4  N   UNL     1       6.832   5.659  18.442  0.00  0.00    +0.000 NA
ATOM      5  C   UNL     1       5.762   4.904  18.731  0.00  0.00    +0.000 A 
ATOM      6  O   UNL     1       5.898   3.670  19.269  0.00  0.00    +0.000 OA
ATOM      7  N   UNL     1       4.665   3.098  19.418  0.00  0.00    +0.000 NA
ATOM      8  C   UNL     1       3.779   3.943  18.865  0.00  0.00    +0.000 A 
ATOM      9  C   UNL     1       4.407   5.201  18.555  0.00  0.00    +0.000 A 
ENDROOT
BRANCH   8  10
ATOM     10  C   UNL     1       2.378   3.387  18.661  0.00  0.00    +0.000 C 
ATOM     11  C   UNL     1       1.284   4.293  19.308  0.00  0.00    +0.000 C 
ATOM     12  C   UNL     1       1.311   4.212  20.842  0.00  0.00    +0.000 C 
ATOM     13  C   UNL     1       1.282   2.766  21.341  0.00  0.00    +0.000 C 
ATOM     14  N   UNL     1       2.317   1.960  20.695  0.00  0.00    +0.000 NA
ATOM     15  C   UNL     1       2.145   1.987  19.239  0.00  0.00    +0.000 C 
ATOM     16  H   UNL     1       2.269   0.997  21.028  0.00  0.00    +0.000 HD
ENDBRANCH   8  10
BRANCH   1  18
ATOM     17  O   UNL     1       1.924   6.514  17.424  0.00  0.00    +0.000 OA
ATOM     18  C   UNL     1       2.846   7.170  17.902  0.00  0.00    +0.000 C 
ATOM     19  N   UNL     1       2.746   8.525  18.149  0.00  0.00    +0.000 N 
ATOM     20  H   UNL     1       3.543   9.045  18.485  0.00  0.00    +0.000 HD
BRANCH  19  21
ATOM     21  C   UNL     1       1.558   9.271  17.749  0.00  0.00    +0.000 C 
BRANCH  21  22
ATOM     22  C   UNL     1       0.803   9.779  18.937  0.00  0.00    +0.000 C 
ATOM     23  C   UNL     1       0.506  11.246  19.148  0.00  0.00    +0.000 C 
ATOM     24  C   UNL     1      -0.604  10.309  18.761  0.00  0.00    +0.000 C 
ENDBRANCH  21  22
ENDBRANCH  19  21
ENDBRANCH   1  18
BRANCH   3  25
ATOM     25  C   UNL     1       7.742   7.695  17.449  0.00  0.00    +0.000 C 
ATOM     26  C   UNL     1       7.729   9.203  17.547  0.00  0.00    +0.000 C 
ATOM     27  C   UNL     1       8.593   8.408  18.479  0.00  0.00    +0.000 C 
ENDBRANCH   3  25
TORSDOF 5
ENDMDL
MODEL 3
REMARK VINA RESULT:      -6.7      1.910      6.128
REMARK  Name = 
REMARK  5 active torsions:
REMARK  status: ('A' for Active; 'I' for Inactive)
REMARK    1  A    between atoms: C_2  and  C_8
REMARK    2  A    between atoms: N_3  and  C_4
REMARK    3  A    between atoms: C_4  and  C_5
REMARK    4  A    between atoms: C_10  and  C_11
REMARK    5  A    between atoms: C_18  and  C_19
REMARK                            x       y       z     vdW  Elec       q    Type
REMARK                         _______ _______ _______ _____ _____    ______ ____
ROOT
ATOM      1  C   UNL     1       2.159   6.375  19.981  0.00  0.00    +0.000 A 
ATOM      2  C   UNL     1       1.219   7.158  20.691  0.00  0.00    +0.000 A 
ATOM      3  C   UNL     1       0.925   8.464  20.320  0.00  0.00    +0.000 A 
ATOM      4  N   UNL     1       1.566   9.067  19.308  0.00  0.00    +0.000 NA
ATOM      5  C   UNL     1       2.438   8.302  18.636  0.00  0.00    +0.000 A 
ATOM      6  O   UNL     1       3.148   8.795  17.595  0.00  0.00    +0.000 OA
ATOM      7  N   UNL     1       3.921   7.803  17.057  0.00  0.00    +0.000 NA
ATOM      8  C   UNL     1       3.599   6.671  17.704  0.00  0.00    +0.000 A 
ATOM      9  C   UNL     1       2.770   6.960  18.846  0.00  0.00    +0.000 A 
ENDROOT
BRANCH   8  10
ATOM     10  C   UNL     1       4.127   5.386  17.085  0.00  0.00    +0.000 C 
ATOM     11  C   UNL     1       4.935   4.528  18.107  0.00  0.00    +0.000 C 
ATOM     12  C   UNL     1       6.294   5.165  18.437  0.00  0.00    +0.000 C 
ATOM     13  C   UNL     1       7.084   5.518  17.175  0.00  0.00    +0.000 C 
ATOM     14  N   UNL     1       6.276   6.311  16.249  0.00  0.00    +0.000 NA
ATOM     15  C   UNL     1       5.059   5.580  15.884  0.00  0.00    +0.000 C 
ATOM     16  H   UNL     1       6.814   6.522  15.408  0.00  0.00    +0.000 HD
ENDBRANCH   8  10
BRANCH   1  18
ATOM     17  O   UNL     1       3.501   4.717  20.900  0.00  0.00    +0.000 OA
ATOM     18  C   UNL     1       2.371   5.029  20.534  0.00  0.00    +0.000 C 
ATOM     19  N   UNL     1       1.323   4.130  20.505  0.00  0.00    +0.000 N 
ATOM     20  H   UNL     1       0.422   4.405  20.141  0.00  0.00    +0.000 HD
BRANCH  19  21
ATOM     21  C   UNL     1       1.539   2.721  20.812  0.00  0.00    +0.000 C 
BRANCH  21  22
ATOM     22  C   UNL     1       1.585   1.888  19.570  0.00  0.00    +0.000 C 
ATOM     23  C   UNL     1       1.800   2.482  18.197  0.00  0.00    +0.000 C 
ATOM     24  C   UNL     1       2.900   1.692  18.847  0.00  0.00    +0.000 C 
ENDBRANCH  21  22
ENDBRANCH  19  21
ENDBRANCH   1  18
BRANCH   3  25
ATOM     25  C   UNL     1      -0.164   9.247  21.021  0.00  0.00    +0.000 C 
ATOM     26  C   UNL     1      -0.492   9.010  22.477  0.00  0.00    +0.000 C 
ATOM     27  C   UNL     1       0.221  10.265  22.073  0.00  0.00    +0.000 C 
ENDBRANCH   3  25
TORSDOF 5
ENDMDL
MODEL 4
REMARK VINA RESULT:      -6.6      1.889      2.406
REMARK  Name = 
REMARK  5 active torsions:
REMARK  status: ('A' for Active; 'I' for Inactive)
REMARK    1  A    between atoms: C_2  and  C_8
REMARK    2  A    between atoms: N_3  and  C_4
REMARK    3  A    between atoms: C_4  and  C_5
REMARK    4  A    between atoms: C_10  and  C_11
REMARK    5  A    between atoms: C_18  and  C_19
REMARK                            x       y       z     vdW  Elec       q    Type
REMARK                         _______ _______ _______ _____ _____    ______ ____
ROOT
ATOM      1  C   UNL     1       3.786   6.358  17.921  0.00  0.00    +0.000 A 
ATOM      2  C   UNL     1       4.463   6.448  16.682  0.00  0.00    +0.000 A 
ATOM      3  C   UNL     1       5.431   5.526  16.307  0.00  0.00    +0.000 A 
ATOM      4  N   UNL     1       5.816   4.539  17.130  0.00  0.00    +0.000 NA
ATOM      5  C   UNL     1       5.150   4.459  18.291  0.00  0.00    +0.000 A 
ATOM      6  O   UNL     1       5.446   3.508  19.206  0.00  0.00    +0.000 OA
ATOM      7  N   UNL     1       4.592   3.614  20.269  0.00  0.00    +0.000 NA
ATOM      8  C   UNL     1       3.698   4.566  19.951  0.00  0.00    +0.000 A 
ATOM      9  C   UNL     1       4.106   5.263  18.759  0.00  0.00    +0.000 A 
ENDROOT
BRANCH   8  10
ATOM     10  C   UNL     1       2.484   4.659  20.862  0.00  0.00    +0.000 C 
ATOM     11  C   UNL     1       2.314   3.388  21.750  0.00  0.00    +0.000 C 
ATOM     12  C   UNL     1       1.853   2.176  20.926  0.00  0.00    +0.000 C 
ATOM     13  C   UNL     1       0.624   2.495  20.073  0.00  0.00    +0.000 C 
ATOM     14  N   UNL     1       0.833   3.701  19.272  0.00  0.00    +0.000 NA
ATOM     15  C   UNL     1       1.144   4.839  20.141  0.00  0.00    +0.000 C 
ATOM     16  H   UNL     1      -0.003   3.906  18.723  0.00  0.00    +0.000 HD
ENDBRANCH   8  10
BRANCH   1  18
ATOM     17  O   UNL     1       2.599   8.244  17.265  0.00  0.00    +0.000 OA
ATOM     18  C   UNL     1       2.819   7.438  18.166  0.00  0.00    +0.000 C 
ATOM     19  N   UNL     1       2.292   7.578  19.435  0.00  0.00    +0.000 N 
ATOM     20  H   UNL     1       2.542   6.931  20.168  0.00  0.00    +0.000 HD
BRANCH  19  21
ATOM     21  C   UNL     1       1.524   8.763  19.798  0.00  0.00    +0.000 C 
BRANCH  21  22
ATOM     22  C   UNL     1       1.141   8.749  21.244  0.00  0.00    +0.000 C 
ATOM     23  C   UNL     1       0.415   9.896  21.907  0.00  0.00    +0.000 C 
ATOM     24  C   UNL     1      -0.314   8.611  21.634  0.00  0.00    +0.000 C 
ENDBRANCH  21  22
ENDBRANCH  19  21
ENDBRANCH   1  18
BRANCH   3  25
ATOM     25  C   UNL     1       6.063   5.574  14.932  0.00  0.00    +0.000 C 
ATOM     26  C   UNL     1       7.146   4.602  14.528  0.00  0.00    +0.000 C 
ATOM     27  C   UNL     1       5.771   4.461  13.948  0.00  0.00    +0.000 C 
ENDBRANCH   3  25
TORSDOF 5
ENDMDL
MODEL 5
REMARK VINA RESULT:      -6.6      2.293      5.718
REMARK  Name = 
REMARK  5 active torsions:
REMARK  status: ('A' for Active; 'I' for Inactive)
REMARK    1  A    between atoms: C_2  and  C_8
REMARK    2  A    between atoms: N_3  and  C_4
REMARK    3  A    between atoms: C_4  and  C_5
REMARK    4  A    between atoms: C_10  and  C_11
REMARK    5  A    between atoms: C_18  and  C_19
REMARK                            x       y       z     vdW  Elec       q    Type
REMARK                         _______ _______ _______ _____ _____    ______ ____
ROOT
ATOM      1  C   UNL     1       2.423   6.479  19.515  0.00  0.00    +0.000 A 
ATOM      2  C   UNL     1       1.580   7.504  20.002  0.00  0.00    +0.000 A 
ATOM      3  C   UNL     1       1.481   8.736  19.368  0.00  0.00    +0.000 A 
ATOM      4  N   UNL     1       2.229   9.034  18.295  0.00  0.00    +0.000 NA
ATOM      5  C   UNL     1       3.007   8.043  17.837  0.00  0.00    +0.000 A 
ATOM      6  O   UNL     1       3.810   8.220  16.762  0.00  0.00    +0.000 OA
ATOM      7  N   UNL     1       4.454   7.049  16.474  0.00  0.00    +0.000 NA
ATOM      8  C   UNL     1       3.958   6.121  17.310  0.00  0.00    +0.000 A 
ATOM      9  C   UNL     1       3.143   6.739  18.324  0.00  0.00    +0.000 A 
ENDROOT
BRANCH   8  10
ATOM     10  C   UNL     1       4.321   4.681  16.985  0.00  0.00    +0.000 C 
ATOM     11  C   UNL     1       5.161   4.014  18.119  0.00  0.00    +0.000 C 
ATOM     12  C   UNL     1       6.591   4.574  18.173  0.00  0.00    +0.000 C 
ATOM     13  C   UNL     1       7.274   4.539  16.804  0.00  0.00    +0.000 C 
ATOM     14  N   UNL     1       6.439   5.164  15.779  0.00  0.00    +0.000 NA
ATOM     15  C   UNL     1       5.139   4.491  15.703  0.00  0.00    +0.000 C 
ATOM     16  H   UNL     1       6.904   5.116  14.872  0.00  0.00    +0.000 HD
ENDBRANCH   8  10
BRANCH   1  18
ATOM     17  O   UNL     1       3.507   4.829  20.739  0.00  0.00    +0.000 OA
ATOM     18  C   UNL     1       2.430   5.256  20.331  0.00  0.00    +0.000 C 
ATOM     19  N   UNL     1       1.243   4.569  20.502  0.00  0.00    +0.000 N 
ATOM     20  H   UNL     1       0.386   4.920  20.101  0.00  0.00    +0.000 HD
BRANCH  19  21
ATOM     21  C   UNL     1       1.232   3.235  21.091  0.00  0.00    +0.000 C 
BRANCH  21  22
ATOM     22  C   UNL     1       1.113   2.173  20.044  0.00  0.00    +0.000 C 
ATOM     23  C   UNL     1       1.045   2.486  18.567  0.00  0.00    +0.000 C 
ATOM     24  C   UNL     1       2.290   1.873  19.143  0.00  0.00    +0.000 C 
ENDBRANCH  21  22
ENDBRANCH  19  21
ENDBRANCH   1  18
BRANCH   3  25
ATOM     25  C   UNL     1       0.490   9.778  19.839  0.00  0.00    +0.000 C 
ATOM     26  C   UNL     1       0.414  11.142  19.194  0.00  0.00    +0.000 C 
ATOM     27  C   UNL     1      -0.676  10.144  18.945  0.00  0.00    +0.000 C 
ENDBRANCH   3  25
TORSDOF 5
ENDMDL
MODEL 6
REMARK VINA RESULT:      -6.6      2.628      6.955
REMARK  Name = 
REMARK  5 active torsions:
REMARK  status: ('A' for Active; 'I' for Inactive)
REMARK    1  A    between atoms: C_2  and  C_8
REMARK    2  A    between atoms: N_3  and  C_4
REMARK    3  A    between atoms: C_4  and  C_5
REMARK    4  A    between atoms: C_10  and  C_11
REMARK    5  A    between atoms: C_18  and  C_19
REMARK                            x       y       z     vdW  Elec       q    Type
REMARK                         _______ _______ _______ _____ _____    ______ ____
ROOT
ATOM      1  C   UNL     1       2.943   6.711  18.714  0.00  0.00    +0.000 A 
ATOM      2  C   UNL     1       3.120   5.385  19.173  0.00  0.00    +0.000 A 
ATOM      3  C   UNL     1       2.500   4.919  20.325  0.00  0.00    +0.000 A 
ATOM      4  N   UNL     1       1.752   5.725  21.093  0.00  0.00    +0.000 NA
ATOM      5  C   UNL     1       1.580   6.972  20.631  0.00  0.00    +0.000 A 
ATOM      6  O   UNL     1       0.847   7.880  21.315  0.00  0.00    +0.000 OA
ATOM      7  N   UNL     1       0.787   9.048  20.607  0.00  0.00    +0.000 NA
ATOM      8  C   UNL     1       1.395   8.816  19.431  0.00  0.00    +0.000 A 
ATOM      9  C   UNL     1       2.074   7.546  19.455  0.00  0.00    +0.000 A 
ENDROOT
BRANCH   8  10
ATOM     10  C   UNL     1       1.203   9.887  18.368  0.00  0.00    +0.000 C 
ATOM     11  C   UNL     1       1.670  11.293  18.856  0.00  0.00    +0.000 C 
ATOM     12  C   UNL     1       0.714  11.879  19.906  0.00  0.00    +0.000 C 
ATOM     13  C   UNL     1      -0.742  11.846  19.438  0.00  0.00    +0.000 C 
ATOM     14  N   UNL     1      -1.123  10.511  18.980  0.00  0.00    +0.000 NA
ATOM     15  C   UNL     1      -0.242  10.077  17.893  0.00  0.00    +0.000 C 
ATOM     16  H   UNL     1      -2.091  10.514  18.657  0.00  0.00    +0.000 HD
ENDBRANCH   8  10
BRANCH   1  18
ATOM     17  O   UNL     1       3.385   8.043  16.863  0.00  0.00    +0.000 OA
ATOM     18  C   UNL     1       3.702   7.040  17.498  0.00  0.00    +0.000 C 
ATOM     19  N   UNL     1       4.655   6.146  17.051  0.00  0.00    +0.000 N 
ATOM     20  H   UNL     1       4.847   5.301  17.567  0.00  0.00    +0.000 HD
BRANCH  19  21
ATOM     21  C   UNL     1       5.263   6.299  15.734  0.00  0.00    +0.000 C 
BRANCH  21  22
ATOM     22  C   UNL     1       6.262   5.220  15.460  0.00  0.00    +0.000 C 
ATOM     23  C   UNL     1       5.924   3.750  15.563  0.00  0.00    +0.000 C 
ATOM     24  C   UNL     1       6.130   4.375  14.212  0.00  0.00    +0.000 C 
ENDBRANCH  21  22
ENDBRANCH  19  21
ENDBRANCH   1  18
BRANCH   3  25
ATOM     25  C   UNL     1       2.612   3.468  20.738  0.00  0.00    +0.000 C 
ATOM     26  C   UNL     1       1.572   2.816  21.619  0.00  0.00    +0.000 C 
ATOM     27  C   UNL     1       1.637   2.461  20.165  0.00  0.00    +0.000 C 
ENDBRANCH   3  25
TORSDOF 5
ENDMDL
MODEL 7
REMARK VINA RESULT:      -6.5      3.253      5.586
REMARK  Name = 
REMARK  5 active torsions:
REMARK  status: ('A' for Active; 'I' for Inactive)
REMARK    1  A    between atoms: C_2  and  C_8
REMARK    2  A    between atoms: N_3  and  C_4
REMARK    3  A    between atoms: C_4  and  C_5
REMARK    4  A    between atoms: C_10  and  C_11
REMARK    5  A    between atoms: C_18  and  C_19
REMARK                            x       y       z     vdW  Elec       q    Type
REMARK                         _______ _______ _______ _____ _____    ______ ____
ROOT
ATOM      1  C   UNL     1       5.632   5.230  16.167  0.00  0.00    +0.000 A 
ATOM      2  C   UNL     1       6.741   6.102  16.269  0.00  0.00    +0.000 A 
ATOM      3  C   UNL     1       6.762   7.158  17.170  0.00  0.00    +0.000 A 
ATOM      4  N   UNL     1       5.705   7.441  17.944  0.00  0.00    +0.000 NA
ATOM      5  C   UNL     1       4.671   6.591  17.848  0.00  0.00    +0.000 A 
ATOM      6  O   UNL     1       3.546   6.769  18.577  0.00  0.00    +0.000 OA
ATOM      7  N   UNL     1       2.675   5.744  18.331  0.00  0.00    +0.000 NA
ATOM      8  C   UNL     1       3.317   4.877  17.531  0.00  0.00    +0.000 A 
ATOM      9  C   UNL     1       4.547   5.450  17.050  0.00  0.00    +0.000 A 
ENDROOT
BRANCH   8  10
ATOM     10  C   UNL     1       2.646   3.523  17.354  0.00  0.00    +0.000 C 
ATOM     11  C   UNL     1       1.212   3.492  17.966  0.00  0.00    +0.000 C 
ATOM     12  C   UNL     1       1.247   3.499  19.502  0.00  0.00    +0.000 C 
ATOM     13  C   UNL     1       2.174   2.417  20.060  0.00  0.00    +0.000 C 
ATOM     14  N   UNL     1       3.499   2.484  19.445  0.00  0.00    +0.000 NA
ATOM     15  C   UNL     1       3.390   2.343  17.990  0.00  0.00    +0.000 C 
ATOM     16  H   UNL     1       4.096   1.746  19.817  0.00  0.00    +0.000 HD
ENDBRANCH   8  10
BRANCH   1  18
ATOM     17  O   UNL     1       5.794   3.013  15.491  0.00  0.00    +0.000 OA
ATOM     18  C   UNL     1       5.768   4.189  15.137  0.00  0.00    +0.000 C 
ATOM     19  N   UNL     1       5.986   4.578  13.829  0.00  0.00    +0.000 N 
ATOM     20  H   UNL     1       6.018   5.556  13.584  0.00  0.00    +0.000 HD
BRANCH  19  21
ATOM     21  C   UNL     1       6.367   3.603  12.814  0.00  0.00    +0.000 C 
BRANCH  21  22
ATOM     22  C   UNL     1       5.196   2.780  12.376  0.00  0.00    +0.000 C 
ATOM     23  C   UNL     1       4.367   3.123  11.160  0.00  0.00    +0.000 C 
ATOM     24  C   UNL     1       5.296   1.943  11.119  0.00  0.00    +0.000 C 
ENDBRANCH  21  22
ENDBRANCH  19  21
ENDBRANCH   1  18
BRANCH   3  25
ATOM     25  C   UNL     1       8.001   8.011  17.342  0.00  0.00    +0.000 C 
ATOM     26  C   UNL     1       7.924   9.405  17.918  0.00  0.00    +0.000 C 
ATOM     27  C   UNL     1       8.510   8.297  18.739  0.00  0.00    +0.000 C 
ENDBRANCH   3  25
TORSDOF 5
ENDMDL
MODEL 8
REMARK VINA RESULT:      -6.5      1.924      2.244
REMARK  Name = 
REMARK  5 active torsions:
REMARK  status: ('A' for Active; 'I' for Inactive)
REMARK    1  A    between atoms: C_2  and  C_8
REMARK    2  A    between atoms: N_3  and  C_4
REMARK    3  A    between atoms: C_4  and  C_5
REMARK    4  A    between atoms: C_10  and  C_11
REMARK    5  A    between atoms: C_18  and  C_19
REMARK                            x       y       z     vdW  Elec       q    Type
REMARK                         _______ _______ _______ _____ _____    ______ ____
ROOT
ATOM      1  C   UNL     1       3.689   6.119  17.422  0.00  0.00    +0.000 A 
ATOM      2  C   UNL     1       4.665   6.404  16.439  0.00  0.00    +0.000 A 
ATOM      3  C   UNL     1       5.475   5.412  15.902  0.00  0.00    +0.000 A 
ATOM      4  N   UNL     1       5.413   4.144  16.335  0.00  0.00    +0.000 NA
ATOM      5  C   UNL     1       4.468   3.890  17.252  0.00  0.00    +0.000 A 
ATOM      6  O   UNL     1       4.306   2.650  17.769  0.00  0.00    +0.000 OA
ATOM      7  N   UNL     1       3.251   2.651  18.638  0.00  0.00    +0.000 NA
ATOM      8  C   UNL     1       2.696   3.873  18.569  0.00  0.00    +0.000 A 
ATOM      9  C   UNL     1       3.537   4.768  17.817  0.00  0.00    +0.000 A 
ENDROOT
BRANCH   8  10
ATOM     10  C   UNL     1       1.337   4.018  19.237  0.00  0.00    +0.000 C 
ATOM     11  C   UNL     1       1.431   4.755  20.609  0.00  0.00    +0.000 C 
ATOM     12  C   UNL     1       2.091   3.878  21.684  0.00  0.00    +0.000 C 
ATOM     13  C   UNL     1       1.441   2.496  21.775  0.00  0.00    +0.000 C 
ATOM     14  N   UNL     1       1.367   1.856  20.462  0.00  0.00    +0.000 NA
ATOM     15  C   UNL     1       0.614   2.699  19.529  0.00  0.00    +0.000 C 
ATOM     16  H   UNL     1       0.916   0.944  20.542  0.00  0.00    +0.000 HD
ENDBRANCH   8  10
BRANCH   1  18
ATOM     17  O   UNL     1       2.936   8.305  17.205  0.00  0.00    +0.000 OA
ATOM     18  C   UNL     1       2.947   7.294  17.903  0.00  0.00    +0.000 C 
ATOM     19  N   UNL     1       2.400   7.258  19.170  0.00  0.00    +0.000 N 
ATOM     20  H   UNL     1       2.480   6.428  19.739  0.00  0.00    +0.000 HD
BRANCH  19  21
ATOM     21  C   UNL     1       1.868   8.466  19.788  0.00  0.00    +0.000 C 
BRANCH  21  22
ATOM     22  C   UNL     1       1.306   8.188  21.147  0.00  0.00    +0.000 C 
ATOM     23  C   UNL     1       1.087   9.272  22.177  0.00  0.00    +0.000 C 
ATOM     24  C   UNL     1      -0.094   8.648  21.489  0.00  0.00    +0.000 C 
ENDBRANCH  21  22
ENDBRANCH  19  21
ENDBRANCH   1  18
BRANCH   3  25
ATOM     25  C   UNL     1       6.435   5.717  14.772  0.00  0.00    +0.000 C 
ATOM     26  C   UNL     1       7.653   4.860  14.520  0.00  0.00    +0.000 C 
ATOM     27  C   UNL     1       6.489   4.786  13.579  0.00  0.00    +0.000 C 
ENDBRANCH   3  25
TORSDOF 5
ENDMDL
MODEL 9
REMARK VINA RESULT:      -6.4      2.073      5.419
REMARK  Name = 
REMARK  5 active torsions:
REMARK  status: ('A' for Active; 'I' for Inactive)
REMARK    1  A    between atoms: C_2  and  C_8
REMARK    2  A    between atoms: N_3  and  C_4
REMARK    3  A    between atoms: C_4  and  C_5
REMARK    4  A    between atoms: C_10  and  C_11
REMARK    5  A    between atoms: C_18  and  C_19
REMARK                            x       y       z     vdW  Elec       q    Type
REMARK                         _______ _______ _______ _____ _____    ______ ____
ROOT
ATOM      1  C   UNL     1       2.848   7.261  18.771  0.00  0.00    +0.000 A 
ATOM      2  C   UNL     1       2.192   8.464  19.123  0.00  0.00    +0.000 A 
ATOM      3  C   UNL     1       1.311   8.531  20.194  0.00  0.00    +0.000 A 
ATOM      4  N   UNL     1       0.992   7.443  20.910  0.00  0.00    +0.000 NA
ATOM      5  C   UNL     1       1.639   6.317  20.574  0.00  0.00    +0.000 A 
ATOM      6  O   UNL     1       1.404   5.153  21.220  0.00  0.00    +0.000 OA
ATOM      7  N   UNL     1       2.225   4.179  20.722  0.00  0.00    +0.000 NA
ATOM      8  C   UNL     1       3.043   4.779  19.841  0.00  0.00    +0.000 A 
ATOM      9  C   UNL     1       2.603   6.125  19.580  0.00  0.00    +0.000 A 
ENDROOT
BRANCH   8  10
ATOM     10  C   UNL     1       4.227   3.948  19.370  0.00  0.00    +0.000 C 
ATOM     11  C   UNL     1       4.219   3.734  17.825  0.00  0.00    +0.000 C 
ATOM     12  C   UNL     1       3.108   2.766  17.389  0.00  0.00    +0.000 C 
ATOM     13  C   UNL     1       3.138   1.461  18.187  0.00  0.00    +0.000 C 
ATOM     14  N   UNL     1       3.156   1.720  19.626  0.00  0.00    +0.000 NA
ATOM     15  C   UNL     1       4.316   2.544  19.978  0.00  0.00    +0.000 C 
ATOM     16  H   UNL     1       3.193   0.839  20.140  0.00  0.00    +0.000 HD
ENDBRANCH   8  10
BRANCH   1  18
ATOM     17  O   UNL     1       3.228   7.759  16.534  0.00  0.00    +0.000 OA
ATOM     18  C   UNL     1       3.718   7.365  17.589  0.00  0.00    +0.000 C 
ATOM     19  N   UNL     1       5.014   6.898  17.680  0.00  0.00    +0.000 N 
ATOM     20  H   UNL     1       5.365   6.524  18.550  0.00  0.00    +0.000 HD
BRANCH  19  21
ATOM     21  C   UNL     1       5.840   6.752  16.487  0.00  0.00    +0.000 C 
BRANCH  21  22
ATOM     22  C   UNL     1       7.200   6.224  16.820  0.00  0.00    +0.000 C 
ATOM     23  C   UNL     1       7.499   5.499  18.112  0.00  0.00    +0.000 C 
ATOM     24  C   UNL     1       7.445   4.731  16.822  0.00  0.00    +0.000 C 
ENDBRANCH  21  22
ENDBRANCH  19  21
ENDBRANCH   1  18
BRANCH   3  25
ATOM     25  C   UNL     1       0.705   9.850  20.623  0.00  0.00    +0.000 C 
ATOM     26  C   UNL     1       0.714  11.055  19.711  0.00  0.00    +0.000 C 
ATOM     27  C   UNL     1      -0.571  10.325  19.962  0.00  0.00    +0.000 C 
ENDBRANCH   3  25
TORSDOF 5
ENDMDL
