MODEL 1
REMARK VINA RESULT:      -8.5      0.000      0.000
REMARK  Name = 
REMARK  8 active torsions:
REMARK  status: ('A' for Active; 'I' for Inactive)
REMARK    1  A    between atoms: C_1  and  C_2
REMARK    2  A    between atoms: C_2  and  C_3
REMARK    3  A    between atoms: C_3  and  S_4
REMARK    4  A    between atoms: C_3  and  C_13
REMARK    5  A    between atoms: S_4  and  C_5
REMARK    6  A    between atoms: C_7  and  C_8
REMARK    7  A    between atoms: C_10  and  O_11
REMARK    8  A    between atoms: C_18  and  C_19
REMARK                            x       y       z     vdW  Elec       q    Type
REMARK                         _______ _______ _______ _____ _____    ______ ____
ROOT
ATOM      1  C   UNL     1       2.512   5.439  19.711  0.00  0.00    +0.000 C 
ATOM      2  O   UNL     1       1.820   5.481  20.730  0.00  0.00    +0.000 OA
ATOM      3  N   UNL     1       2.784   6.527  18.912  0.00  0.00    +0.000 N 
ATOM      4  C   UNL     1       2.174   7.732  19.134  0.00  0.00    +0.000 A 
ATOM      5  N   UNL     1       1.549   8.149  20.203  0.00  0.00    +0.000 NA
ATOM      6  C   UNL     1       0.986   9.395  19.978  0.00  0.00    +0.000 A 
ATOM      7  C   UNL     1       1.230   9.903  18.715  0.00  0.00    +0.000 A 
ATOM      8  S   UNL     1       2.228   8.819  17.824  0.00  0.00    +0.000 S 
ATOM      9  H   UNL     1       3.144   6.380  17.975  0.00  0.00    +0.000 HD
ENDROOT
BRANCH   6  10
ATOM     10  C   UNL     1       0.203  10.052  21.025  0.00  0.00    +0.000 A 
ATOM     11  C   UNL     1      -0.310  11.338  20.788  0.00  0.00    +0.000 A 
ATOM     12  C   UNL     1      -1.057  12.008  21.762  0.00  0.00    +0.000 A 
ATOM     13  C   UNL     1      -1.300  11.399  22.990  0.00  0.00    +0.000 A 
ATOM     14  C   UNL     1      -0.802  10.123  23.241  0.00  0.00    +0.000 A 
ATOM     15  C   UNL     1      -0.056   9.452  22.265  0.00  0.00    +0.000 A 
ENDBRANCH   6  10
BRANCH   1  16
ATOM     16  C   UNL     1       3.208   4.116  19.338  0.00  0.00    +0.000 C 
BRANCH  16  18
ATOM     17  C   UNL     1       1.637   2.086  19.737  0.00  0.00    +0.000 C 
ATOM     18  C   UNL     1       2.722   3.000  20.285  0.00  0.00    +0.000 C 
ENDBRANCH  16  18
BRANCH  16  19
ATOM     19  S   UNL     1       3.161   3.685  17.559  0.00  0.00    +0.000 S 
BRANCH  19  20
ATOM     20  C   UNL     1       4.809   4.112  17.084  0.00  0.00    +0.000 A 
ATOM     21  N   UNL     1       5.097   4.177  15.778  0.00  0.00    +0.000 NA
ATOM     22  C   UNL     1       6.374   4.464  15.454  0.00  0.00    +0.000 A 
ATOM     23  C   UNL     1       6.720   4.510  13.997  0.00  0.00    +0.000 C 
ATOM     24  C   UNL     1       7.344   4.695  16.407  0.00  0.00    +0.000 A 
ATOM     25  C   UNL     1       6.928   4.596  17.711  0.00  0.00    +0.000 A 
ATOM     26  N   UNL     1       5.680   4.296  18.083  0.00  0.00    +0.000 NA
BRANCH  25  27
ATOM     27  O   UNL     1       7.792   4.797  18.746  0.00  0.00    +0.000 OA
ATOM     28  H   UNL     1       7.851   5.748  18.923  0.00  0.00    +0.000 HD
ENDBRANCH  25  27
ENDBRANCH  19  20
ENDBRANCH  16  19
ENDBRANCH   1  16
TORSDOF 6
ENDMDL
MODEL 2
REMARK VINA RESULT:      -8.4      0.998      1.640
REMARK  Name = 
REMARK  8 active torsions:
REMARK  status: ('A' for Active; 'I' for Inactive)
REMARK    1  A    between atoms: C_1  and  C_2
REMARK    2  A    between atoms: C_2  and  C_3
REMARK    3  A    between atoms: C_3  and  S_4
REMARK    4  A    between atoms: C_3  and  C_13
REMARK    5  A    between atoms: S_4  and  C_5
REMARK    6  A    between atoms: C_7  and  C_8
REMARK    7  A    between atoms: C_10  and  O_11
REMARK    8  A    between atoms: C_18  and  C_19
REMARK                            x       y       z     vdW  Elec       q    Type
REMARK                         _______ _______ _______ _____ _____    ______ ____
ROOT
ATOM      1  C   UNL     1       2.543   5.397  19.957  0.00  0.00    +0.000 C 
ATOM      2  O   UNL     1       1.858   5.497  20.978  0.00  0.00    +0.000 OA
ATOM      3  N   UNL     1       2.801   6.435  19.091  0.00  0.00    +0.000 N 
ATOM      4  C   UNL     1       2.183   7.647  19.243  0.00  0.00    +0.000 A 
ATOM      5  N   UNL     1       1.563   8.125  20.290  0.00  0.00    +0.000 NA
ATOM      6  C   UNL     1       0.991   9.351  19.993  0.00  0.00    +0.000 A 
ATOM      7  C   UNL     1       1.222   9.782  18.699  0.00  0.00    +0.000 A 
ATOM      8  S   UNL     1       2.220   8.652  17.869  0.00  0.00    +0.000 S 
ATOM      9  H   UNL     1       3.154   6.234  18.162  0.00  0.00    +0.000 HD
ENDROOT
BRANCH   6  10
ATOM     10  C   UNL     1       0.210  10.067  21.004  0.00  0.00    +0.000 A 
ATOM     11  C   UNL     1      -0.271  11.353  20.711  0.00  0.00    +0.000 A 
ATOM     12  C   UNL     1      -1.013  12.077  21.648  0.00  0.00    +0.000 A 
ATOM     13  C   UNL     1      -1.283  11.523  22.896  0.00  0.00    +0.000 A 
ATOM     14  C   UNL     1      -0.817  10.247  23.203  0.00  0.00    +0.000 A 
ATOM     15  C   UNL     1      -0.076   9.522  22.263  0.00  0.00    +0.000 A 
ENDBRANCH   6  10
BRANCH   1  16
ATOM     16  C   UNL     1       3.245   4.058  19.661  0.00  0.00    +0.000 C 
BRANCH  16  18
ATOM     17  C   UNL     1       1.402   2.355  20.333  0.00  0.00    +0.000 C 
ATOM     18  C   UNL     1       2.746   2.989  20.655  0.00  0.00    +0.000 C 
ENDBRANCH  16  18
BRANCH  16  19
ATOM     19  S   UNL     1       3.224   3.539  17.905  0.00  0.00    +0.000 S 
BRANCH  19  20
ATOM     20  C   UNL     1       4.843   4.043  17.405  0.00  0.00    +0.000 A 
ATOM     21  N   UNL     1       5.624   4.652  18.306  0.00  0.00    +0.000 NA
ATOM     22  C   UNL     1       6.836   5.062  17.876  0.00  0.00    +0.000 A 
ATOM     23  C   UNL     1       7.711   5.773  18.863  0.00  0.00    +0.000 C 
ATOM     24  C   UNL     1       7.268   4.859  16.583  0.00  0.00    +0.000 A 
ATOM     25  C   UNL     1       6.377   4.227  15.753  0.00  0.00    +0.000 A 
ATOM     26  N   UNL     1       5.159   3.820  16.125  0.00  0.00    +0.000 NA
BRANCH  25  27
ATOM     27  O   UNL     1       6.682   3.972  14.449  0.00  0.00    +0.000 OA
ATOM     28  H   UNL     1       6.020   4.397  13.884  0.00  0.00    +0.000 HD
ENDBRANCH  25  27
ENDBRANCH  19  20
ENDBRANCH  16  19
ENDBRANCH   1  16
TORSDOF 6
ENDMDL
MODEL 3
REMARK VINA RESULT:      -8.3      0.444      1.092
REMARK  Name = 
REMARK  8 active torsions:
REMARK  status: ('A' for Active; 'I' for Inactive)
REMARK    1  A    between atoms: C_1  and  C_2
REMARK    2  A    between atoms: C_2  and  C_3
REMARK    3  A    between atoms: C_3  and  S_4
REMARK    4  A    between atoms: C_3  and  C_13
REMARK    5  A    between atoms: S_4  and  C_5
REMARK    6  A    between atoms: C_7  and  C_8
REMARK    7  A    between atoms: C_10  and  O_11
REMARK    8  A    between atoms: C_18  and  C_19
REMARK                            x       y       z     vdW  Elec       q    Type
REMARK                         _______ _______ _______ _____ _____    ______ ____
ROOT
ATOM      1  C   UNL     1       2.241   5.180  19.735  0.00  0.00    +0.000 C 
ATOM      2  O   UNL     1       1.508   5.274  20.722  0.00  0.00    +0.000 OA
ATOM      3  N   UNL     1       2.646   6.246  18.965  0.00  0.00    +0.000 N 
ATOM      4  C   UNL     1       2.136   7.499  19.175  0.00  0.00    +0.000 A 
ATOM      5  N   UNL     1       1.502   7.960  20.220  0.00  0.00    +0.000 NA
ATOM      6  C   UNL     1       1.065   9.255  19.987  0.00  0.00    +0.000 A 
ATOM      7  C   UNL     1       1.413   9.751  18.744  0.00  0.00    +0.000 A 
ATOM      8  S   UNL     1       2.349   8.590  17.885  0.00  0.00    +0.000 S 
ATOM      9  H   UNL     1       3.034   6.077  18.043  0.00  0.00    +0.000 HD
ENDROOT
BRANCH   6  10
ATOM     10  C   UNL     1       0.296   9.970  21.006  0.00  0.00    +0.000 A 
ATOM     11  C   UNL     1       0.024   9.333  22.228  0.00  0.00    +0.000 A 
ATOM     12  C   UNL     1      -0.714   9.974  23.227  0.00  0.00    +0.000 A 
ATOM     13  C   UNL     1      -1.193  11.264  23.017  0.00  0.00    +0.000 A 
ATOM     14  C   UNL     1      -0.930  11.913  21.812  0.00  0.00    +0.000 A 
ATOM     15  C   UNL     1      -0.189  11.271  20.813  0.00  0.00    +0.000 A 
ENDBRANCH   6  10
BRANCH   1  16
ATOM     16  C   UNL     1       2.832   3.803  19.375  0.00  0.00    +0.000 C 
BRANCH  16  18
ATOM     17  C   UNL     1       2.577   2.554  21.640  0.00  0.00    +0.000 C 
ATOM     18  C   UNL     1       2.117   2.711  20.199  0.00  0.00    +0.000 C 
ENDBRANCH  16  18
BRANCH  16  19
ATOM     19  S   UNL     1       2.955   3.452  17.583  0.00  0.00    +0.000 S 
BRANCH  19  20
ATOM     20  C   UNL     1       4.604   4.003  17.264  0.00  0.00    +0.000 A 
ATOM     21  N   UNL     1       5.016   4.071  15.992  0.00  0.00    +0.000 NA
ATOM     22  C   UNL     1       6.293   4.454  15.789  0.00  0.00    +0.000 A 
ATOM     23  C   UNL     1       6.779   4.505  14.372  0.00  0.00    +0.000 C 
ATOM     24  C   UNL     1       7.141   4.778  16.827  0.00  0.00    +0.000 A 
ATOM     25  C   UNL     1       6.605   4.666  18.086  0.00  0.00    +0.000 A 
ATOM     26  N   UNL     1       5.353   4.272  18.339  0.00  0.00    +0.000 NA
BRANCH  25  27
ATOM     27  O   UNL     1       7.342   4.952  19.196  0.00  0.00    +0.000 OA
ATOM     28  H   UNL     1       6.745   5.253  19.898  0.00  0.00    +0.000 HD
ENDBRANCH  25  27
ENDBRANCH  19  20
ENDBRANCH  16  19
ENDBRANCH   1  16
TORSDOF 6
ENDMDL
MODEL 4
REMARK VINA RESULT:      -8.3      1.388      2.089
REMARK  Name = 
REMARK  8 active torsions:
REMARK  status: ('A' for Active; 'I' for Inactive)
REMARK    1  A    between atoms: C_1  and  C_2
REMARK    2  A    between atoms: C_2  and  C_3
REMARK    3  A    between atoms: C_3  and  S_4
REMARK    4  A    between atoms: C_3  and  C_13
REMARK    5  A    between atoms: S_4  and  C_5
REMARK    6  A    between atoms: C_7  and  C_8
REMARK    7  A    between atoms: C_10  and  O_11
REMARK    8  A    between atoms: C_18  and  C_19
REMARK                            x       y       z     vdW  Elec       q    Type
REMARK                         _______ _______ _______ _____ _____    ______ ____
ROOT
ATOM      1  C   UNL     1       2.611   5.147  20.085  0.00  0.00    +0.000 C 
ATOM      2  O   UNL     1       1.910   5.286  21.090  0.00  0.00    +0.000 OA
ATOM      3  N   UNL     1       2.905   6.159  19.198  0.00  0.00    +0.000 N 
ATOM      4  C   UNL     1       2.309   7.386  19.310  0.00  0.00    +0.000 A 
ATOM      5  N   UNL     1       1.679   7.901  20.332  0.00  0.00    +0.000 NA
ATOM      6  C   UNL     1       1.136   9.130  19.995  0.00  0.00    +0.000 A 
ATOM      7  C   UNL     1       1.398   9.525  18.695  0.00  0.00    +0.000 A 
ATOM      8  S   UNL     1       2.390   8.355  17.912  0.00  0.00    +0.000 S 
ATOM      9  H   UNL     1       3.271   5.928  18.281  0.00  0.00    +0.000 HD
ENDROOT
BRANCH   6  10
ATOM     10  C   UNL     1       0.351   9.885  20.973  0.00  0.00    +0.000 A 
ATOM     11  C   UNL     1       0.089   9.311  22.227  0.00  0.00    +0.000 A 
ATOM     12  C   UNL     1      -0.662   9.991  23.190  0.00  0.00    +0.000 A 
ATOM     13  C   UNL     1      -1.165  11.259  22.909  0.00  0.00    +0.000 A 
ATOM     14  C   UNL     1      -0.912  11.846  21.671  0.00  0.00    +0.000 A 
ATOM     15  C   UNL     1      -0.158  11.165  20.709  0.00  0.00    +0.000 A 
ENDBRANCH   6  10
BRANCH   1  16
ATOM     16  C   UNL     1       3.293   3.789  19.834  0.00  0.00    +0.000 C 
BRANCH  16  18
ATOM     17  C   UNL     1       1.280   2.152  19.982  0.00  0.00    +0.000 C 
ATOM     18  C   UNL     1       2.549   2.692  20.624  0.00  0.00    +0.000 C 
ENDBRANCH  16  18
BRANCH  16  19
ATOM     19  S   UNL     1       3.606   3.386  18.076  0.00  0.00    +0.000 S 
BRANCH  19  20
ATOM     20  C   UNL     1       4.835   4.595  17.687  0.00  0.00    +0.000 A 
ATOM     21  N   UNL     1       5.872   4.738  18.522  0.00  0.00    +0.000 NA
ATOM     22  C   UNL     1       6.767   5.699  18.217  0.00  0.00    +0.000 A 
ATOM     23  C   UNL     1       7.917   5.893  19.158  0.00  0.00    +0.000 C 
ATOM     24  C   UNL     1       6.644   6.494  17.097  0.00  0.00    +0.000 A 
ATOM     25  C   UNL     1       5.538   6.255  16.320  0.00  0.00    +0.000 A 
ATOM     26  N   UNL     1       4.614   5.328  16.591  0.00  0.00    +0.000 NA
BRANCH  25  27
ATOM     27  O   UNL     1       5.299   6.976  15.189  0.00  0.00    +0.000 OA
ATOM     28  H   UNL     1       4.560   7.581  15.354  0.00  0.00    +0.000 HD
ENDBRANCH  25  27
ENDBRANCH  19  20
ENDBRANCH  16  19
ENDBRANCH   1  16
TORSDOF 6
ENDMDL
MODEL 5
REMARK VINA RESULT:      -8.2      1.616      1.762
REMARK  Name = 
REMARK  8 active torsions:
REMARK  status: ('A' for Active; 'I' for Inactive)
REMARK    1  A    between atoms: C_1  and  C_2
REMARK    2  A    between atoms: C_2  and  C_3
REMARK    3  A    between atoms: C_3  and  S_4
REMARK    4  A    between atoms: C_3  and  C_13
REMARK    5  A    between atoms: S_4  and  C_5
REMARK    6  A    between atoms: C_7  and  C_8
REMARK    7  A    between atoms: C_10  and  O_11
REMARK    8  A    between atoms: C_18  and  C_19
REMARK                            x       y       z     vdW  Elec       q    Type
REMARK                         _______ _______ _______ _____ _____    ______ ____
ROOT
ATOM      1  C   UNL     1       2.709   5.545  20.027  0.00  0.00    +0.000 C 
ATOM      2  O   UNL     1       2.017   5.628  21.044  0.00  0.00    +0.000 OA
ATOM      3  N   UNL     1       2.905   6.575  19.135  0.00  0.00    +0.000 N 
ATOM      4  C   UNL     1       2.214   7.750  19.256  0.00  0.00    +0.000 A 
ATOM      5  N   UNL     1       1.563   8.215  20.290  0.00  0.00    +0.000 NA
ATOM      6  C   UNL     1       0.917   9.396  19.961  0.00  0.00    +0.000 A 
ATOM      7  C   UNL     1       1.124   9.807  18.657  0.00  0.00    +0.000 A 
ATOM      8  S   UNL     1       2.192   8.720  17.857  0.00  0.00    +0.000 S 
ATOM      9  H   UNL     1       3.272   6.372  18.212  0.00  0.00    +0.000 HD
ENDROOT
BRANCH   6  10
ATOM     10  C   UNL     1       0.092  10.088  20.953  0.00  0.00    +0.000 A 
ATOM     11  C   UNL     1      -0.588  11.258  20.579  0.00  0.00    +0.000 A 
ATOM     12  C   UNL     1      -1.381  11.956  21.495  0.00  0.00    +0.000 A 
ATOM     13  C   UNL     1      -1.503  11.493  22.801  0.00  0.00    +0.000 A 
ATOM     14  C   UNL     1      -0.838  10.331  23.190  0.00  0.00    +0.000 A 
ATOM     15  C   UNL     1      -0.046   9.632  22.272  0.00  0.00    +0.000 A 
ENDBRANCH   6  10
BRANCH   1  16
ATOM     16  C   UNL     1       3.493   4.245  19.765  0.00  0.00    +0.000 C 
BRANCH  16  18
ATOM     17  C   UNL     1       2.628   2.494  21.479  0.00  0.00    +0.000 C 
ATOM     18  C   UNL     1       2.583   3.034  20.058  0.00  0.00    +0.000 C 
ENDBRANCH  16  18
BRANCH  16  19
ATOM     19  S   UNL     1       4.369   4.173  18.159  0.00  0.00    +0.000 S 
BRANCH  19  20
ATOM     20  C   UNL     1       5.797   5.145  18.532  0.00  0.00    +0.000 A 
ATOM     21  N   UNL     1       6.116   6.148  17.704  0.00  0.00    +0.000 NA
ATOM     22  C   UNL     1       7.236   6.840  17.996  0.00  0.00    +0.000 A 
ATOM     23  C   UNL     1       7.625   7.945  17.061  0.00  0.00    +0.000 C 
ATOM     24  C   UNL     1       8.016   6.553  19.096  0.00  0.00    +0.000 A 
ATOM     25  C   UNL     1       7.588   5.502  19.867  0.00  0.00    +0.000 A 
ATOM     26  N   UNL     1       6.498   4.773  19.608  0.00  0.00    +0.000 NA
BRANCH  25  27
ATOM     27  O   UNL     1       8.275   5.114  20.978  0.00  0.00    +0.000 OA
ATOM     28  H   UNL     1       8.405   5.886  21.550  0.00  0.00    +0.000 HD
ENDBRANCH  25  27
ENDBRANCH  19  20
ENDBRANCH  16  19
ENDBRANCH   1  16
TORSDOF 6
ENDMDL
MODEL 6
REMARK VINA RESULT:      -8.0      2.108      8.422
REMARK  Name = 
REMARK  8 active torsions:
REMARK  status: ('A' for Active; 'I' for Inactive)
REMARK    1  A    between atoms: C_1  and  C_2
REMARK    2  A    between atoms: C_2  and  C_3
REMARK    3  A    between atoms: C_3  and  S_4
REMARK    4  A    between atoms: C_3  and  C_13
REMARK    5  A    between atoms: S_4  and  C_5
REMARK    6  A    between atoms: C_7  and  C_8
REMARK    7  A    between atoms: C_10  and  O_11
REMARK    8  A    between atoms: C_18  and  C_19
REMARK                            x       y       z     vdW  Elec       q    Type
REMARK                         _______ _______ _______ _____ _____    ______ ____
ROOT
ATOM      1  C   UNL     1       2.850   4.599  18.317  0.00  0.00    +0.000 C 
ATOM      2  O   UNL     1       2.540   4.231  17.182  0.00  0.00    +0.000 OA
ATOM      3  N   UNL     1       4.097   5.067  18.668  0.00  0.00    +0.000 N 
ATOM      4  C   UNL     1       5.138   5.023  17.782  0.00  0.00    +0.000 A 
ATOM      5  N   UNL     1       5.105   4.868  16.485  0.00  0.00    +0.000 NA
ATOM      6  C   UNL     1       6.391   4.779  15.976  0.00  0.00    +0.000 A 
ATOM      7  C   UNL     1       7.384   4.896  16.931  0.00  0.00    +0.000 A 
ATOM      8  S   UNL     1       6.685   5.176  18.479  0.00  0.00    +0.000 S 
ATOM      9  H   UNL     1       4.353   5.116  19.648  0.00  0.00    +0.000 HD
ENDROOT
BRANCH   6  10
ATOM     10  C   UNL     1       6.605   4.567  14.543  0.00  0.00    +0.000 A 
ATOM     11  C   UNL     1       5.812   3.627  13.866  0.00  0.00    +0.000 A 
ATOM     12  C   UNL     1       5.986   3.385  12.500  0.00  0.00    +0.000 A 
ATOM     13  C   UNL     1       6.962   4.080  11.792  0.00  0.00    +0.000 A 
ATOM     14  C   UNL     1       7.758   5.019  12.447  0.00  0.00    +0.000 A 
ATOM     15  C   UNL     1       7.580   5.262  13.814  0.00  0.00    +0.000 A 
ENDBRANCH   6  10
BRANCH   1  16
ATOM     16  C   UNL     1       1.764   4.640  19.409  0.00  0.00    +0.000 C 
BRANCH  16  18
ATOM     17  C   UNL     1       1.281   2.802  21.182  0.00  0.00    +0.000 C 
ATOM     18  C   UNL     1       1.295   3.202  19.714  0.00  0.00    +0.000 C 
ENDBRANCH  16  18
BRANCH  16  19
ATOM     19  S   UNL     1       2.180   5.639  20.886  0.00  0.00    +0.000 S 
BRANCH  19  20
ATOM     20  C   UNL     1       1.744   7.252  20.311  0.00  0.00    +0.000 A 
ATOM     21  N   UNL     1       0.995   8.028  21.105  0.00  0.00    +0.000 NA
ATOM     22  C   UNL     1       0.645   9.235  20.616  0.00  0.00    +0.000 A 
ATOM     23  C   UNL     1      -0.219  10.103  21.479  0.00  0.00    +0.000 C 
ATOM     24  C   UNL     1       1.043   9.670  19.369  0.00  0.00    +0.000 A 
ATOM     25  C   UNL     1       1.804   8.785  18.648  0.00  0.00    +0.000 A 
ATOM     26  N   UNL     1       2.160   7.571  19.081  0.00  0.00    +0.000 NA
BRANCH  25  27
ATOM     27  O   UNL     1       2.256   9.093  17.400  0.00  0.00    +0.000 OA
ATOM     28  H   UNL     1       2.361   8.273  16.894  0.00  0.00    +0.000 HD
ENDBRANCH  25  27
ENDBRANCH  19  20
ENDBRANCH  16  19
ENDBRANCH   1  16
TORSDOF 6
ENDMDL
MODEL 7
REMARK VINA RESULT:      -8.0      2.999      8.904
REMARK  Name = 
REMARK  8 active torsions:
REMARK  status: ('A' for Active; 'I' for Inactive)
REMARK    1  A    between atoms: C_1  and  C_2
REMARK    2  A    between atoms: C_2  and  C_3
REMARK    3  A    between atoms: C_3  and  S_4
REMARK    4  A    between atoms: C_3  and  C_13
REMARK    5  A    between atoms: S_4  and  C_5
REMARK    6  A    between atoms: C_7  and  C_8
REMARK    7  A    between atoms: C_10  and  O_11
REMARK    8  A    between atoms: C_18  and  C_19
REMARK                            x       y       z     vdW  Elec       q    Type
REMARK                         _______ _______ _______ _____ _____    ______ ____
ROOT
ATOM      1  C   UNL     1       1.559   8.112  20.113  0.00  0.00    +0.000 C 
ATOM      2  O   UNL     1       2.179   8.433  19.098  0.00  0.00    +0.000 OA
ATOM      3  N   UNL     1       1.720   6.915  20.775  0.00  0.00    +0.000 N 
ATOM      4  C   UNL     1       2.505   5.923  20.251  0.00  0.00    +0.000 A 
ATOM      5  N   UNL     1       3.415   6.006  19.317  0.00  0.00    +0.000 NA
ATOM      6  C   UNL     1       3.906   4.747  19.010  0.00  0.00    +0.000 A 
ATOM      7  C   UNL     1       3.350   3.727  19.760  0.00  0.00    +0.000 A 
ATOM      8  S   UNL     1       2.237   4.373  20.903  0.00  0.00    +0.000 S 
ATOM      9  H   UNL     1       1.017   6.615  21.442  0.00  0.00    +0.000 HD
ENDROOT
BRANCH   6  10
ATOM     10  C   UNL     1       4.915   4.583  17.962  0.00  0.00    +0.000 A 
ATOM     11  C   UNL     1       6.266   4.808  18.274  0.00  0.00    +0.000 A 
ATOM     12  C   UNL     1       7.263   4.672  17.304  0.00  0.00    +0.000 A 
ATOM     13  C   UNL     1       6.921   4.309  16.004  0.00  0.00    +0.000 A 
ATOM     14  C   UNL     1       5.587   4.078  15.677  0.00  0.00    +0.000 A 
ATOM     15  C   UNL     1       4.589   4.213  16.650  0.00  0.00    +0.000 A 
ENDBRANCH   6  10
BRANCH   1  16
ATOM     16  C   UNL     1       0.607   9.136  20.760  0.00  0.00    +0.000 C 
BRANCH  16  18
ATOM     17  C   UNL     1      -0.358   9.787  23.083  0.00  0.00    +0.000 C 
ATOM     18  C   UNL     1       0.672   8.994  22.295  0.00  0.00    +0.000 C 
ENDBRANCH  16  18
BRANCH  16  19
ATOM     19  S   UNL     1       0.773  10.852  20.144  0.00  0.00    +0.000 S 
BRANCH  19  20
ATOM     20  C   UNL     1      -0.786  11.052  19.337  0.00  0.00    +0.000 A 
ATOM     21  N   UNL     1      -1.020  10.347  18.222  0.00  0.00    +0.000 NA
ATOM     22  C   UNL     1      -2.203  10.558  17.610  0.00  0.00    +0.000 A 
ATOM     23  C   UNL     1      -2.467   9.800  16.345  0.00  0.00    +0.000 C 
ATOM     24  C   UNL     1      -3.142  11.441  18.102  0.00  0.00    +0.000 A 
ATOM     25  C   UNL     1      -2.786  12.106  19.247  0.00  0.00    +0.000 A 
ATOM     26  N   UNL     1      -1.619  11.947  19.880  0.00  0.00    +0.000 NA
BRANCH  25  27
ATOM     27  O   UNL     1      -3.625  13.009  19.830  0.00  0.00    +0.000 OA
ATOM     28  H   UNL     1      -3.094  13.669  20.301  0.00  0.00    +0.000 HD
ENDBRANCH  25  27
ENDBRANCH  19  20
ENDBRANCH  16  19
ENDBRANCH   1  16
TORSDOF 6
ENDMDL
MODEL 8
REMARK VINA RESULT:      -7.9      1.680      2.246
REMARK  Name = 
REMARK  8 active torsions:
REMARK  status: ('A' for Active; 'I' for Inactive)
REMARK    1  A    between atoms: C_1  and  C_2
REMARK    2  A    between atoms: C_2  and  C_3
REMARK    3  A    between atoms: C_3  and  S_4
REMARK    4  A    between atoms: C_3  and  C_13
REMARK    5  A    between atoms: S_4  and  C_5
REMARK    6  A    between atoms: C_7  and  C_8
REMARK    7  A    between atoms: C_10  and  O_11
REMARK    8  A    between atoms: C_18  and  C_19
REMARK                            x       y       z     vdW  Elec       q    Type
REMARK                         _______ _______ _______ _____ _____    ______ ____
ROOT
ATOM      1  C   UNL     1       3.084   5.455  19.000  0.00  0.00    +0.000 C 
ATOM      2  O   UNL     1       2.498   5.342  20.079  0.00  0.00    +0.000 OA
ATOM      3  N   UNL     1       3.161   6.624  18.277  0.00  0.00    +0.000 N 
ATOM      4  C   UNL     1       2.457   7.734  18.659  0.00  0.00    +0.000 A 
ATOM      5  N   UNL     1       1.904   7.997  19.813  0.00  0.00    +0.000 NA
ATOM      6  C   UNL     1       1.198   9.187  19.750  0.00  0.00    +0.000 A 
ATOM      7  C   UNL     1       1.260   9.814  18.519  0.00  0.00    +0.000 A 
ATOM      8  S   UNL     1       2.267   8.917  17.449  0.00  0.00    +0.000 S 
ATOM      9  H   UNL     1       3.437   6.590  17.302  0.00  0.00    +0.000 HD
ENDROOT
BRANCH   6  10
ATOM     10  C   UNL     1       0.462   9.673  20.919  0.00  0.00    +0.000 A 
ATOM     11  C   UNL     1       0.498   8.925  22.107  0.00  0.00    +0.000 A 
ATOM     12  C   UNL     1      -0.196   9.346  23.245  0.00  0.00    +0.000 A 
ATOM     13  C   UNL     1      -0.939  10.522  23.209  0.00  0.00    +0.000 A 
ATOM     14  C   UNL     1      -0.984  11.278  22.040  0.00  0.00    +0.000 A 
ATOM     15  C   UNL     1      -0.287  10.858  20.901  0.00  0.00    +0.000 A 
ENDBRANCH   6  10
BRANCH   1  16
ATOM     16  C   UNL     1       3.870   4.249  18.451  0.00  0.00    +0.000 C 
BRANCH  16  18
ATOM     17  C   UNL     1       3.338   1.725  18.761  0.00  0.00    +0.000 C 
ATOM     18  C   UNL     1       2.899   3.074  18.214  0.00  0.00    +0.000 C 
ENDBRANCH  16  18
BRANCH  16  19
ATOM     19  S   UNL     1       4.981   4.618  17.043  0.00  0.00    +0.000 S 
BRANCH  19  20
ATOM     20  C   UNL     1       6.235   5.554  17.866  0.00  0.00    +0.000 A 
ATOM     21  N   UNL     1       6.586   6.738  17.348  0.00  0.00    +0.000 NA
ATOM     22  C   UNL     1       7.575   7.404  17.977  0.00  0.00    +0.000 A 
ATOM     23  C   UNL     1       8.001   8.716  17.393  0.00  0.00    +0.000 C 
ATOM     24  C   UNL     1       8.196   6.911  19.106  0.00  0.00    +0.000 A 
ATOM     25  C   UNL     1       7.752   5.687  19.539  0.00  0.00    +0.000 A 
ATOM     26  N   UNL     1       6.789   4.980  18.939  0.00  0.00    +0.000 NA
BRANCH  25  27
ATOM     27  O   UNL     1       8.288   5.089  20.640  0.00  0.00    +0.000 OA
ATOM     28  H   UNL     1       8.416   4.147  20.453  0.00  0.00    +0.000 HD
ENDBRANCH  25  27
ENDBRANCH  19  20
ENDBRANCH  16  19
ENDBRANCH   1  16
TORSDOF 6
ENDMDL
MODEL 9
REMARK VINA RESULT:      -7.9      3.044      8.918
REMARK  Name = 
REMARK  8 active torsions:
REMARK  status: ('A' for Active; 'I' for Inactive)
REMARK    1  A    between atoms: C_1  and  C_2
REMARK    2  A    between atoms: C_2  and  C_3
REMARK    3  A    between atoms: C_3  and  S_4
REMARK    4  A    between atoms: C_3  and  C_13
REMARK    5  A    between atoms: S_4  and  C_5
REMARK    6  A    between atoms: C_7  and  C_8
REMARK    7  A    between atoms: C_10  and  O_11
REMARK    8  A    between atoms: C_18  and  C_19
REMARK                            x       y       z     vdW  Elec       q    Type
REMARK                         _______ _______ _______ _____ _____    ______ ____
ROOT
ATOM      1  C   UNL     1       1.690   8.242  19.749  0.00  0.00    +0.000 C 
ATOM      2  O   UNL     1       2.317   8.535  18.729  0.00  0.00    +0.000 OA
ATOM      3  N   UNL     1       1.841   7.062  20.442  0.00  0.00    +0.000 N 
ATOM      4  C   UNL     1       2.626   6.055  19.950  0.00  0.00    +0.000 A 
ATOM      5  N   UNL     1       3.542   6.109  19.019  0.00  0.00    +0.000 NA
ATOM      6  C   UNL     1       4.031   4.841  18.749  0.00  0.00    +0.000 A 
ATOM      7  C   UNL     1       3.466   3.843  19.522  0.00  0.00    +0.000 A 
ATOM      8  S   UNL     1       2.348   4.523  20.640  0.00  0.00    +0.000 S 
ATOM      9  H   UNL     1       1.134   6.783  21.113  0.00  0.00    +0.000 HD
ENDROOT
BRANCH   6  10
ATOM     10  C   UNL     1       5.046   4.646  17.712  0.00  0.00    +0.000 A 
ATOM     11  C   UNL     1       4.638   4.295  16.415  0.00  0.00    +0.000 A 
ATOM     12  C   UNL     1       5.572   4.091  15.396  0.00  0.00    +0.000 A 
ATOM     13  C   UNL     1       6.931   4.233  15.661  0.00  0.00    +0.000 A 
ATOM     14  C   UNL     1       7.354   4.585  16.941  0.00  0.00    +0.000 A 
ATOM     15  C   UNL     1       6.418   4.791  17.961  0.00  0.00    +0.000 A 
ENDBRANCH   6  10
BRANCH   1  16
ATOM     16  C   UNL     1       0.738   9.287  20.362  0.00  0.00    +0.000 C 
BRANCH  16  18
ATOM     17  C   UNL     1      -0.391   9.342  22.702  0.00  0.00    +0.000 C 
ATOM     18  C   UNL     1       0.897   9.282  21.897  0.00  0.00    +0.000 C 
ENDBRANCH  16  18
BRANCH  16  19
ATOM     19  S   UNL     1       0.800  10.946  19.592  0.00  0.00    +0.000 S 
BRANCH  19  20
ATOM     20  C   UNL     1      -0.836  11.053  18.933  0.00  0.00    +0.000 A 
ATOM     21  N   UNL     1      -1.128  10.339  17.839  0.00  0.00    +0.000 NA
ATOM     22  C   UNL     1      -2.373  10.478  17.340  0.00  0.00    +0.000 A 
ATOM     23  C   UNL     1      -2.706   9.710  16.097  0.00  0.00    +0.000 C 
ATOM     24  C   UNL     1      -3.315  11.300  17.923  0.00  0.00    +0.000 A 
ATOM     25  C   UNL     1      -2.896  11.983  19.037  0.00  0.00    +0.000 A 
ATOM     26  N   UNL     1      -1.669  11.893  19.558  0.00  0.00    +0.000 NA
BRANCH  25  27
ATOM     27  O   UNL     1      -3.731  12.831  19.702  0.00  0.00    +0.000 OA
ATOM     28  H   UNL     1      -4.620  12.447  19.715  0.00  0.00    +0.000 HD
ENDBRANCH  25  27
ENDBRANCH  19  20
ENDBRANCH  16  19
ENDBRANCH   1  16
TORSDOF 6
ENDMDL
