MODEL 1
REMARK VINA RESULT:      -8.3      0.000      0.000
REMARK  Name = 
REMARK  8 active torsions:
REMARK  status: ('A' for Active; 'I' for Inactive)
REMARK    1  A    between atoms: C_2  and  C_3
REMARK    2  A    between atoms: C_3  and  N_4
REMARK    3  A    between atoms: N_4  and  C_5
REMARK    4  A    between atoms: C_5  and  C_6
REMARK    5  A    between atoms: C_11  and  C_13
REMARK    6  A    between atoms: C_13  and  N_14
REMARK    7  A    between atoms: C_17  and  C_18
REMARK    8  A    between atoms: N_26  and  C_27
REMARK                            x       y       z     vdW  Elec       q    Type
REMARK                         _______ _______ _______ _____ _____    ______ ____
ROOT
ATOM      1  N   UNL     1       5.240   6.031  18.213  0.00  0.00    +0.000 N 
ATOM      2  C   UNL     1       4.175   6.667  17.588  0.00  0.00    +0.000 C 
ATOM      3  O   UNL     1       4.384   7.474  16.674  0.00  0.00    +0.000 OA
ENDROOT
BRANCH   1   4
ATOM      4  C   UNL     1       6.585   6.198  17.642  0.00  0.00    +0.000 C 
BRANCH   4   6
ATOM      5  O   UNL     1       7.874   4.391  16.739  0.00  0.00    +0.000 OA
ATOM      6  C   UNL     1       7.049   5.276  16.506  0.00  0.00    +0.000 C 
ATOM      7  N   UNL     1       6.414   5.390  15.285  0.00  0.00    +0.000 N 
ATOM      8  H   UNL     1       5.492   5.814  15.311  0.00  0.00    +0.000 HD
BRANCH   7   9
ATOM      9  C   UNL     1       6.695   4.423  14.231  0.00  0.00    +0.000 C 
ATOM     10  C   UNL     1       5.444   3.881  13.541  0.00  0.00    +0.000 C 
ATOM     11  C   UNL     1       5.975   3.260  12.250  0.00  0.00    +0.000 C 
ATOM     12  C   UNL     1       7.221   4.062  11.883  0.00  0.00    +0.000 C 
ATOM     13  C   UNL     1       7.469   5.014  13.047  0.00  0.00    +0.000 C 
ENDBRANCH   7   9
ENDBRANCH   4   6
ENDBRANCH   1   4
BRANCH   1  14
ATOM     14  C   UNL     1       5.116   5.083  19.326  0.00  0.00    +0.000 C 
BRANCH  14  15
ATOM     15  C   UNL     1       4.413   3.847  18.909  0.00  0.00    +0.000 A 
ATOM     16  C   UNL     1       4.382   3.129  17.731  0.00  0.00    +0.000 A 
ATOM     17  C   UNL     1       3.446   2.085  17.926  0.00  0.00    +0.000 A 
ATOM     18  C   UNL     1       2.956   2.239  19.201  0.00  0.00    +0.000 A 
ATOM     19  O   UNL     1       3.541   3.304  19.807  0.00  0.00    +0.000 OA
ENDBRANCH  14  15
ENDBRANCH   1  14
BRANCH   2  20
ATOM     20  C   UNL     1       2.751   6.405  18.030  0.00  0.00    +0.000 C 
BRANCH  20  21
ATOM     21  N   UNL     1       2.233   7.486  18.838  0.00  0.00    +0.000 N 
ATOM     22  N   UNL     1       2.078   7.385  20.168  0.00  0.00    +0.000 NA
ATOM     23  N   UNL     1       1.491   8.518  20.529  0.00  0.00    +0.000 NA
ATOM     24  C   UNL     1       1.284   9.247  19.383  0.00  0.00    +0.000 A 
ATOM     25  N   UNL     1       1.722   8.607  18.285  0.00  0.00    +0.000 NA
BRANCH  24  26
ATOM     26  C   UNL     1       0.669  10.571  19.370  0.00  0.00    +0.000 A 
ATOM     27  C   UNL     1       1.149  11.590  20.212  0.00  0.00    +0.000 A 
ATOM     28  C   UNL     1       0.567  12.860  20.191  0.00  0.00    +0.000 A 
ATOM     29  C   UNL     1      -0.487  13.118  19.321  0.00  0.00    +0.000 A 
ATOM     30  F   UNL     1      -1.039  14.338  19.302  0.00  0.00    +0.000 F 
ATOM     31  C   UNL     1      -0.981  12.131  18.485  0.00  0.00    +0.000 A 
ATOM     32  C   UNL     1      -0.404  10.858  18.507  0.00  0.00    +0.000 A 
ENDBRANCH  24  26
ENDBRANCH  20  21
ENDBRANCH   2  20
TORSDOF 8
ENDMDL
MODEL 2
REMARK VINA RESULT:      -7.9      4.550      5.879
REMARK  Name = 
REMARK  8 active torsions:
REMARK  status: ('A' for Active; 'I' for Inactive)
REMARK    1  A    between atoms: C_2  and  C_3
REMARK    2  A    between atoms: C_3  and  N_4
REMARK    3  A    between atoms: N_4  and  C_5
REMARK    4  A    between atoms: C_5  and  C_6
REMARK    5  A    between atoms: C_11  and  C_13
REMARK    6  A    between atoms: C_13  and  N_14
REMARK    7  A    between atoms: C_17  and  C_18
REMARK    8  A    between atoms: N_26  and  C_27
REMARK                            x       y       z     vdW  Elec       q    Type
REMARK                         _______ _______ _______ _____ _____    ______ ____
ROOT
ATOM      1  N   UNL     1       5.878   4.831  18.270  0.00  0.00    +0.000 N 
ATOM      2  C   UNL     1       7.244   5.019  18.106  0.00  0.00    +0.000 C 
ATOM      3  O   UNL     1       7.846   4.433  17.198  0.00  0.00    +0.000 OA
ENDROOT
BRANCH   1   4
ATOM      4  C   UNL     1       5.148   4.077  17.240  0.00  0.00    +0.000 C 
BRANCH   4   6
ATOM      5  O   UNL     1       4.905   5.683  15.478  0.00  0.00    +0.000 OA
ATOM      6  C   UNL     1       5.218   4.528  15.775  0.00  0.00    +0.000 C 
ATOM      7  N   UNL     1       5.765   3.653  14.857  0.00  0.00    +0.000 N 
ATOM      8  H   UNL     1       6.373   2.939  15.244  0.00  0.00    +0.000 HD
BRANCH   7   9
ATOM      9  C   UNL     1       6.013   4.099  13.491  0.00  0.00    +0.000 C 
ATOM     10  C   UNL     1       7.340   4.837  13.315  0.00  0.00    +0.000 C 
ATOM     11  C   UNL     1       7.575   4.817  11.806  0.00  0.00    +0.000 C 
ATOM     12  C   UNL     1       6.903   3.546  11.296  0.00  0.00    +0.000 C 
ATOM     13  C   UNL     1       6.163   2.951  12.488  0.00  0.00    +0.000 C 
ENDBRANCH   7   9
ENDBRANCH   4   6
ENDBRANCH   1   4
BRANCH   1  14
ATOM     14  C   UNL     1       5.067   5.446  19.327  0.00  0.00    +0.000 C 
BRANCH  14  15
ATOM     15  C   UNL     1       3.846   4.654  19.603  0.00  0.00    +0.000 A 
ATOM     16  C   UNL     1       2.502   4.965  19.627  0.00  0.00    +0.000 A 
ATOM     17  C   UNL     1       1.829   3.794  20.050  0.00  0.00    +0.000 A 
ATOM     18  C   UNL     1       2.802   2.848  20.268  0.00  0.00    +0.000 A 
ATOM     19  O   UNL     1       4.030   3.359  19.995  0.00  0.00    +0.000 OA
ENDBRANCH  14  15
ENDBRANCH   1  14
BRANCH   2  20
ATOM     20  C   UNL     1       8.019   5.920  19.044  0.00  0.00    +0.000 C 
BRANCH  20  21
ATOM     21  N   UNL     1       8.056   7.284  18.567  0.00  0.00    +0.000 N 
ATOM     22  N   UNL     1       7.516   7.656  17.395  0.00  0.00    +0.000 NA
ATOM     23  N   UNL     1       7.840   8.935  17.261  0.00  0.00    +0.000 NA
ATOM     24  C   UNL     1       8.599   9.275  18.355  0.00  0.00    +0.000 A 
ATOM     25  N   UNL     1       8.777   8.239  19.193  0.00  0.00    +0.000 NA
BRANCH  24  26
ATOM     26  C   UNL     1       9.136  10.614  18.578  0.00  0.00    +0.000 A 
ATOM     27  C   UNL     1       8.781  11.677  17.729  0.00  0.00    +0.000 A 
ATOM     28  C   UNL     1       9.287  12.960  17.951  0.00  0.00    +0.000 A 
ATOM     29  C   UNL     1      10.137  13.186  19.028  0.00  0.00    +0.000 A 
ATOM     30  F   UNL     1      10.616  14.419  19.239  0.00  0.00    +0.000 F 
ATOM     31  C   UNL     1      10.505  12.156  19.876  0.00  0.00    +0.000 A 
ATOM     32  C   UNL     1      10.004  10.870  19.654  0.00  0.00    +0.000 A 
ENDBRANCH  24  26
ENDBRANCH  20  21
ENDBRANCH   2  20
TORSDOF 8
ENDMDL
MODEL 3
REMARK VINA RESULT:      -7.9      3.245      5.269
REMARK  Name = 
REMARK  8 active torsions:
REMARK  status: ('A' for Active; 'I' for Inactive)
REMARK    1  A    between atoms: C_2  and  C_3
REMARK    2  A    between atoms: C_3  and  N_4
REMARK    3  A    between atoms: N_4  and  C_5
REMARK    4  A    between atoms: C_5  and  C_6
REMARK    5  A    between atoms: C_11  and  C_13
REMARK    6  A    between atoms: C_13  and  N_14
REMARK    7  A    between atoms: C_17  and  C_18
REMARK    8  A    between atoms: N_26  and  C_27
REMARK                            x       y       z     vdW  Elec       q    Type
REMARK                         _______ _______ _______ _____ _____    ______ ____
ROOT
ATOM      1  N   UNL     1       6.094   6.334  17.598  0.00  0.00    +0.000 N 
ATOM      2  C   UNL     1       5.326   5.813  18.631  0.00  0.00    +0.000 C 
ATOM      3  O   UNL     1       5.843   5.576  19.730  0.00  0.00    +0.000 OA
ENDROOT
BRANCH   1   4
ATOM      4  C   UNL     1       7.469   6.764  17.898  0.00  0.00    +0.000 C 
BRANCH   4   6
ATOM      5  O   UNL     1       7.205   9.016  17.122  0.00  0.00    +0.000 OA
ATOM      6  C   UNL     1       7.820   8.257  17.875  0.00  0.00    +0.000 C 
ATOM      7  N   UNL     1       8.728   8.720  18.807  0.00  0.00    +0.000 N 
ATOM      8  H   UNL     1       8.840   8.139  19.631  0.00  0.00    +0.000 HD
BRANCH   7   9
ATOM      9  C   UNL     1       8.962  10.152  18.940  0.00  0.00    +0.000 C 
ATOM     10  C   UNL     1       9.524  10.562  20.301  0.00  0.00    +0.000 C 
ATOM     11  C   UNL     1      10.076  11.967  20.064  0.00  0.00    +0.000 C 
ATOM     12  C   UNL     1      10.499  12.007  18.598  0.00  0.00    +0.000 C 
ATOM     13  C   UNL     1      10.036  10.689  17.988  0.00  0.00    +0.000 C 
ENDBRANCH   7   9
ENDBRANCH   4   6
ENDBRANCH   1   4
BRANCH   1  14
ATOM     14  C   UNL     1       5.599   6.624  16.248  0.00  0.00    +0.000 C 
BRANCH  14  15
ATOM     15  C   UNL     1       5.893   5.513  15.313  0.00  0.00    +0.000 A 
ATOM     16  C   UNL     1       5.324   4.272  15.110  0.00  0.00    +0.000 A 
ATOM     17  C   UNL     1       6.115   3.627  14.128  0.00  0.00    +0.000 A 
ATOM     18  C   UNL     1       7.120   4.507  13.804  0.00  0.00    +0.000 A 
ATOM     19  O   UNL     1       6.991   5.657  14.515  0.00  0.00    +0.000 OA
ENDBRANCH  14  15
ENDBRANCH   1  14
BRANCH   2  20
ATOM     20  C   UNL     1       3.858   5.505  18.424  0.00  0.00    +0.000 C 
BRANCH  20  21
ATOM     21  N   UNL     1       3.032   6.673  18.627  0.00  0.00    +0.000 N 
ATOM     22  N   UNL     1       2.909   7.641  17.704  0.00  0.00    +0.000 NA
ATOM     23  N   UNL     1       2.170   8.576  18.287  0.00  0.00    +0.000 NA
ATOM     24  C   UNL     1       1.904   8.141  19.563  0.00  0.00    +0.000 A 
ATOM     25  N   UNL     1       2.461   6.945  19.820  0.00  0.00    +0.000 NA
BRANCH  24  26
ATOM     26  C   UNL     1       1.098   8.894  20.519  0.00  0.00    +0.000 A 
ATOM     27  C   UNL     1       1.096   8.547  21.882  0.00  0.00    +0.000 A 
ATOM     28  C   UNL     1       0.332   9.276  22.798  0.00  0.00    +0.000 A 
ATOM     29  C   UNL     1      -0.420  10.359  22.355  0.00  0.00    +0.000 A 
ATOM     30  F   UNL     1      -1.147  11.057  23.238  0.00  0.00    +0.000 F 
ATOM     31  C   UNL     1      -0.438  10.718  21.018  0.00  0.00    +0.000 A 
ATOM     32  C   UNL     1       0.321   9.989  20.100  0.00  0.00    +0.000 A 
ENDBRANCH  24  26
ENDBRANCH  20  21
ENDBRANCH   2  20
TORSDOF 8
ENDMDL
MODEL 4
REMARK VINA RESULT:      -7.7      3.126      5.222
REMARK  Name = 
REMARK  8 active torsions:
REMARK  status: ('A' for Active; 'I' for Inactive)
REMARK    1  A    between atoms: C_2  and  C_3
REMARK    2  A    between atoms: C_3  and  N_4
REMARK    3  A    between atoms: N_4  and  C_5
REMARK    4  A    between atoms: C_5  and  C_6
REMARK    5  A    between atoms: C_11  and  C_13
REMARK    6  A    between atoms: C_13  and  N_14
REMARK    7  A    between atoms: C_17  and  C_18
REMARK    8  A    between atoms: N_26  and  C_27
REMARK                            x       y       z     vdW  Elec       q    Type
REMARK                         _______ _______ _______ _____ _____    ______ ____
ROOT
ATOM      1  N   UNL     1       6.485   6.013  17.888  0.00  0.00    +0.000 N 
ATOM      2  C   UNL     1       5.879   5.208  18.844  0.00  0.00    +0.000 C 
ATOM      3  O   UNL     1       6.496   4.887  19.867  0.00  0.00    +0.000 OA
ENDROOT
BRANCH   1   4
ATOM      4  C   UNL     1       7.788   6.616  18.209  0.00  0.00    +0.000 C 
BRANCH   4   6
ATOM      5  O   UNL     1       7.274   8.763  17.276  0.00  0.00    +0.000 OA
ATOM      6  C   UNL     1       7.980   8.132  18.066  0.00  0.00    +0.000 C 
ATOM      7  N   UNL     1       8.853   8.755  18.936  0.00  0.00    +0.000 N 
ATOM      8  H   UNL     1       9.041   8.254  19.798  0.00  0.00    +0.000 HD
BRANCH   7   9
ATOM      9  C   UNL     1       8.938  10.210  18.956  0.00  0.00    +0.000 C 
ATOM     10  C   UNL     1       9.396  10.783  20.297  0.00  0.00    +0.000 C 
ATOM     11  C   UNL     1       9.816  12.213  19.962  0.00  0.00    +0.000 C 
ATOM     12  C   UNL     1      10.297  12.179  18.514  0.00  0.00    +0.000 C 
ATOM     13  C   UNL     1       9.994  10.776  18.001  0.00  0.00    +0.000 C 
ENDBRANCH   7   9
ENDBRANCH   4   6
ENDBRANCH   1   4
BRANCH   1  14
ATOM     14  C   UNL     1       5.865   6.430  16.626  0.00  0.00    +0.000 C 
BRANCH  14  15
ATOM     15  C   UNL     1       6.098   5.435  15.554  0.00  0.00    +0.000 A 
ATOM     16  C   UNL     1       7.189   5.134  14.764  0.00  0.00    +0.000 A 
ATOM     17  C   UNL     1       6.759   4.138  13.854  0.00  0.00    +0.000 A 
ATOM     18  C   UNL     1       5.434   3.904  14.137  0.00  0.00    +0.000 A 
ATOM     19  O   UNL     1       5.025   4.684  15.170  0.00  0.00    +0.000 OA
ENDBRANCH  14  15
ENDBRANCH   1  14
BRANCH   2  20
ATOM     20  C   UNL     1       4.470   4.692  18.639  0.00  0.00    +0.000 C 
BRANCH  20  21
ATOM     21  N   UNL     1       3.505   5.458  19.394  0.00  0.00    +0.000 N 
ATOM     22  N   UNL     1       2.742   4.914  20.356  0.00  0.00    +0.000 NA
ATOM     23  N   UNL     1       1.925   5.887  20.734  0.00  0.00    +0.000 NA
ATOM     24  C   UNL     1       2.210   6.980  19.951  0.00  0.00    +0.000 A 
ATOM     25  N   UNL     1       3.194   6.731  19.069  0.00  0.00    +0.000 NA
BRANCH  24  26
ATOM     26  C   UNL     1       1.526   8.263  20.078  0.00  0.00    +0.000 A 
ATOM     27  C   UNL     1       1.372   9.105  18.962  0.00  0.00    +0.000 A 
ATOM     28  C   UNL     1       0.706  10.328  19.084  0.00  0.00    +0.000 A 
ATOM     29  C   UNL     1       0.184  10.705  20.316  0.00  0.00    +0.000 A 
ATOM     30  F   UNL     1      -0.457  11.877  20.426  0.00  0.00    +0.000 F 
ATOM     31  C   UNL     1       0.325   9.896  21.430  0.00  0.00    +0.000 A 
ATOM     32  C   UNL     1       0.994   8.675  21.313  0.00  0.00    +0.000 A 
ENDBRANCH  24  26
ENDBRANCH  20  21
ENDBRANCH   2  20
TORSDOF 8
ENDMDL
MODEL 5
REMARK VINA RESULT:      -7.7      3.540      7.010
REMARK  Name = 
REMARK  8 active torsions:
REMARK  status: ('A' for Active; 'I' for Inactive)
REMARK    1  A    between atoms: C_2  and  C_3
REMARK    2  A    between atoms: C_3  and  N_4
REMARK    3  A    between atoms: N_4  and  C_5
REMARK    4  A    between atoms: C_5  and  C_6
REMARK    5  A    between atoms: C_11  and  C_13
REMARK    6  A    between atoms: C_13  and  N_14
REMARK    7  A    between atoms: C_17  and  C_18
REMARK    8  A    between atoms: N_26  and  C_27
REMARK                            x       y       z     vdW  Elec       q    Type
REMARK                         _______ _______ _______ _____ _____    ______ ____
ROOT
ATOM      1  N   UNL     1       4.351   5.210  17.421  0.00  0.00    +0.000 N 
ATOM      2  C   UNL     1       5.110   6.027  16.593  0.00  0.00    +0.000 C 
ATOM      3  O   UNL     1       4.570   6.943  15.960  0.00  0.00    +0.000 OA
ENDROOT
BRANCH   1   4
ATOM      4  C   UNL     1       2.946   5.575  17.664  0.00  0.00    +0.000 C 
BRANCH   4   6
ATOM      5  O   UNL     1       2.837   6.639  19.809  0.00  0.00    +0.000 OA
ATOM      6  C   UNL     1       2.617   6.745  18.600  0.00  0.00    +0.000 C 
ATOM      7  N   UNL     1       2.208   7.933  18.027  0.00  0.00    +0.000 N 
ATOM      8  H   UNL     1       2.471   8.061  17.055  0.00  0.00    +0.000 HD
BRANCH   7   9
ATOM      9  C   UNL     1       2.052   9.121  18.858  0.00  0.00    +0.000 C 
ATOM     10  C   UNL     1       1.690  10.380  18.071  0.00  0.00    +0.000 C 
ATOM     11  C   UNL     1       1.170  11.343  19.137  0.00  0.00    +0.000 C 
ATOM     12  C   UNL     1       0.562  10.468  20.230  0.00  0.00    +0.000 C 
ATOM     13  C   UNL     1       0.887   9.029  19.848  0.00  0.00    +0.000 C 
ENDBRANCH   7   9
ENDBRANCH   4   6
ENDBRANCH   1   4
BRANCH   1  14
ATOM     14  C   UNL     1       4.874   4.077  18.191  0.00  0.00    +0.000 C 
BRANCH  14  15
ATOM     15  C   UNL     1       3.785   3.185  18.651  0.00  0.00    +0.000 A 
ATOM     16  C   UNL     1       3.037   2.208  18.027  0.00  0.00    +0.000 A 
ATOM     17  C   UNL     1       2.080   1.772  18.975  0.00  0.00    +0.000 A 
ATOM     18  C   UNL     1       2.295   2.518  20.110  0.00  0.00    +0.000 A 
ATOM     19  O   UNL     1       3.332   3.374  19.924  0.00  0.00    +0.000 OA
ENDBRANCH  14  15
ENDBRANCH   1  14
BRANCH   2  20
ATOM     20  C   UNL     1       6.598   5.797  16.433  0.00  0.00    +0.000 C 
BRANCH  20  21
ATOM     21  N   UNL     1       7.369   6.655  17.303  0.00  0.00    +0.000 N 
ATOM     22  N   UNL     1       7.869   6.235  18.476  0.00  0.00    +0.000 NA
ATOM     23  N   UNL     1       8.410   7.316  19.022  0.00  0.00    +0.000 NA
ATOM     24  C   UNL     1       8.181   8.361  18.160  0.00  0.00    +0.000 A 
ATOM     25  N   UNL     1       7.498   7.978  17.067  0.00  0.00    +0.000 NA
BRANCH  24  26
ATOM     26  C   UNL     1       8.642   9.724  18.405  0.00  0.00    +0.000 A 
ATOM     27  C   UNL     1       8.296  10.765  17.526  0.00  0.00    +0.000 A 
ATOM     28  C   UNL     1       8.729  12.071  17.768  0.00  0.00    +0.000 A 
ATOM     29  C   UNL     1       9.498  12.341  18.895  0.00  0.00    +0.000 A 
ATOM     30  F   UNL     1       9.907  13.596  19.125  0.00  0.00    +0.000 F 
ATOM     31  C   UNL     1       9.856  11.333  19.774  0.00  0.00    +0.000 A 
ATOM     32  C   UNL     1       9.428  10.025  19.532  0.00  0.00    +0.000 A 
ENDBRANCH  24  26
ENDBRANCH  20  21
ENDBRANCH   2  20
TORSDOF 8
ENDMDL
MODEL 6
REMARK VINA RESULT:      -7.7      1.371      1.758
REMARK  Name = 
REMARK  8 active torsions:
REMARK  status: ('A' for Active; 'I' for Inactive)
REMARK    1  A    between atoms: C_2  and  C_3
REMARK    2  A    between atoms: C_3  and  N_4
REMARK    3  A    between atoms: N_4  and  C_5
REMARK    4  A    between atoms: C_5  and  C_6
REMARK    5  A    between atoms: C_11  and  C_13
REMARK    6  A    between atoms: C_13  and  N_14
REMARK    7  A    between atoms: C_17  and  C_18
REMARK    8  A    between atoms: N_26  and  C_27
REMARK                            x       y       z     vdW  Elec       q    Type
REMARK                         _______ _______ _______ _____ _____    ______ ____
ROOT
ATOM      1  N   UNL     1       4.983   5.925  18.578  0.00  0.00    +0.000 N 
ATOM      2  C   UNL     1       4.145   6.665  17.755  0.00  0.00    +0.000 C 
ATOM      3  O   UNL     1       4.623   7.398  16.880  0.00  0.00    +0.000 OA
ENDROOT
BRANCH   1   4
ATOM      4  C   UNL     1       6.420   5.893  18.263  0.00  0.00    +0.000 C 
BRANCH   4   6
ATOM      5  O   UNL     1       7.649   4.089  17.275  0.00  0.00    +0.000 OA
ATOM      6  C   UNL     1       6.919   5.062  17.074  0.00  0.00    +0.000 C 
ATOM      7  N   UNL     1       6.415   5.360  15.823  0.00  0.00    +0.000 N 
ATOM      8  H   UNL     1       5.530   5.857  15.817  0.00  0.00    +0.000 HD
BRANCH   7   9
ATOM      9  C   UNL     1       6.722   4.492  14.694  0.00  0.00    +0.000 C 
ATOM     10  C   UNL     1       5.486   3.959  13.971  0.00  0.00    +0.000 C 
ATOM     11  C   UNL     1       6.027   3.464  12.631  0.00  0.00    +0.000 C 
ATOM     12  C   UNL     1       7.239   4.338  12.321  0.00  0.00    +0.000 C 
ATOM     13  C   UNL     1       7.463   5.203  13.556  0.00  0.00    +0.000 C 
ENDBRANCH   7   9
ENDBRANCH   4   6
ENDBRANCH   1   4
BRANCH   1  14
ATOM     14  C   UNL     1       4.534   5.051  19.666  0.00  0.00    +0.000 C 
BRANCH  14  15
ATOM     15  C   UNL     1       4.293   3.670  19.187  0.00  0.00    +0.000 A 
ATOM     16  C   UNL     1       3.540   3.144  18.158  0.00  0.00    +0.000 A 
ATOM     17  C   UNL     1       3.642   1.736  18.268  0.00  0.00    +0.000 A 
ATOM     18  C   UNL     1       4.439   1.492  19.361  0.00  0.00    +0.000 A 
ATOM     19  O   UNL     1       4.843   2.660  19.923  0.00  0.00    +0.000 OA
ENDBRANCH  14  15
ENDBRANCH   1  14
BRANCH   2  20
ATOM     20  C   UNL     1       2.642   6.608  17.930  0.00  0.00    +0.000 C 
BRANCH  20  21
ATOM     21  N   UNL     1       2.091   7.904  18.254  0.00  0.00    +0.000 N 
ATOM     22  N   UNL     1       2.181   8.956  17.425  0.00  0.00    +0.000 NA
ATOM     23  N   UNL     1       1.664   9.970  18.104  0.00  0.00    +0.000 NA
ATOM     24  C   UNL     1       1.311   9.488  19.342  0.00  0.00    +0.000 A 
ATOM     25  N   UNL     1       1.594   8.181  19.478  0.00  0.00    +0.000 NA
BRANCH  24  26
ATOM     26  C   UNL     1       0.689  10.307  20.378  0.00  0.00    +0.000 A 
ATOM     27  C   UNL     1      -0.085   9.712  21.390  0.00  0.00    +0.000 A 
ATOM     28  C   UNL     1      -0.670  10.496  22.388  0.00  0.00    +0.000 A 
ATOM     29  C   UNL     1      -0.473  11.872  22.383  0.00  0.00    +0.000 A 
ATOM     30  F   UNL     1      -1.033  12.619  23.344  0.00  0.00    +0.000 F 
ATOM     31  C   UNL     1       0.281  12.483  21.395  0.00  0.00    +0.000 A 
ATOM     32  C   UNL     1       0.864  11.702  20.394  0.00  0.00    +0.000 A 
ENDBRANCH  24  26
ENDBRANCH  20  21
ENDBRANCH   2  20
TORSDOF 8
ENDMDL
MODEL 7
REMARK VINA RESULT:      -7.6      1.442      1.793
REMARK  Name = 
REMARK  8 active torsions:
REMARK  status: ('A' for Active; 'I' for Inactive)
REMARK    1  A    between atoms: C_2  and  C_3
REMARK    2  A    between atoms: C_3  and  N_4
REMARK    3  A    between atoms: N_4  and  C_5
REMARK    4  A    between atoms: C_5  and  C_6
REMARK    5  A    between atoms: C_11  and  C_13
REMARK    6  A    between atoms: C_13  and  N_14
REMARK    7  A    between atoms: C_17  and  C_18
REMARK    8  A    between atoms: N_26  and  C_27
REMARK                            x       y       z     vdW  Elec       q    Type
REMARK                         _______ _______ _______ _____ _____    ______ ____
ROOT
ATOM      1  N   UNL     1       4.420   5.257  17.945  0.00  0.00    +0.000 N 
ATOM      2  C   UNL     1       4.173   6.617  17.816  0.00  0.00    +0.000 C 
ATOM      3  O   UNL     1       5.096   7.431  17.950  0.00  0.00    +0.000 OA
ENDROOT
BRANCH   1   4
ATOM      4  C   UNL     1       5.816   4.808  18.056  0.00  0.00    +0.000 C 
BRANCH   4   6
ATOM      5  O   UNL     1       7.814   4.204  16.878  0.00  0.00    +0.000 OA
ATOM      6  C   UNL     1       6.630   4.533  16.784  0.00  0.00    +0.000 C 
ATOM      7  N   UNL     1       5.958   4.534  15.578  0.00  0.00    +0.000 N 
ATOM      8  H   UNL     1       4.957   4.381  15.636  0.00  0.00    +0.000 HD
BRANCH   7   9
ATOM      9  C   UNL     1       6.647   4.109  14.366  0.00  0.00    +0.000 C 
ATOM     10  C   UNL     1       5.714   3.568  13.283  0.00  0.00    +0.000 C 
ATOM     11  C   UNL     1       6.565   3.600  12.014  0.00  0.00    +0.000 C 
ATOM     12  C   UNL     1       7.547   4.753  12.199  0.00  0.00    +0.000 C 
ATOM     13  C   UNL     1       7.350   5.252  13.626  0.00  0.00    +0.000 C 
ENDBRANCH   7   9
ENDBRANCH   4   6
ENDBRANCH   1   4
BRANCH   1  14
ATOM     14  C   UNL     1       3.402   4.206  17.839  0.00  0.00    +0.000 C 
BRANCH  14  15
ATOM     15  C   UNL     1       2.771   3.929  19.151  0.00  0.00    +0.000 A 
ATOM     16  C   UNL     1       3.213   3.305  20.299  0.00  0.00    +0.000 A 
ATOM     17  C   UNL     1       2.109   3.271  21.185  0.00  0.00    +0.000 A 
ATOM     18  C   UNL     1       1.063   3.863  20.518  0.00  0.00    +0.000 A 
ATOM     19  O   UNL     1       1.457   4.271  19.284  0.00  0.00    +0.000 OA
ENDBRANCH  14  15
ENDBRANCH   1  14
BRANCH   2  20
ATOM     20  C   UNL     1       2.775   7.127  17.536  0.00  0.00    +0.000 C 
BRANCH  20  21
ATOM     21  N   UNL     1       2.217   7.813  18.679  0.00  0.00    +0.000 N 
ATOM     22  N   UNL     1       2.305   7.328  19.928  0.00  0.00    +0.000 NA
ATOM     23  N   UNL     1       1.596   8.167  20.670  0.00  0.00    +0.000 NA
ATOM     24  C   UNL     1       1.076   9.115  19.822  0.00  0.00    +0.000 A 
ATOM     25  N   UNL     1       1.432   8.903  18.543  0.00  0.00    +0.000 NA
BRANCH  24  26
ATOM     26  C   UNL     1       0.245  10.228  20.270  0.00  0.00    +0.000 A 
ATOM     27  C   UNL     1      -0.419  11.044  19.337  0.00  0.00    +0.000 A 
ATOM     28  C   UNL     1      -1.224  12.103  19.768  0.00  0.00    +0.000 A 
ATOM     29  C   UNL     1      -1.376  12.339  21.130  0.00  0.00    +0.000 A 
ATOM     30  F   UNL     1      -2.152  13.352  21.538  0.00  0.00    +0.000 F 
ATOM     31  C   UNL     1      -0.730  11.552  22.068  0.00  0.00    +0.000 A 
ATOM     32  C   UNL     1       0.079  10.496  21.641  0.00  0.00    +0.000 A 
ENDBRANCH  24  26
ENDBRANCH  20  21
ENDBRANCH   2  20
TORSDOF 8
ENDMDL
MODEL 8
REMARK VINA RESULT:      -7.6      4.012      5.941
REMARK  Name = 
REMARK  8 active torsions:
REMARK  status: ('A' for Active; 'I' for Inactive)
REMARK    1  A    between atoms: C_2  and  C_3
REMARK    2  A    between atoms: C_3  and  N_4
REMARK    3  A    between atoms: N_4  and  C_5
REMARK    4  A    between atoms: C_5  and  C_6
REMARK    5  A    between atoms: C_11  and  C_13
REMARK    6  A    between atoms: C_13  and  N_14
REMARK    7  A    between atoms: C_17  and  C_18
REMARK    8  A    between atoms: N_26  and  C_27
REMARK                            x       y       z     vdW  Elec       q    Type
REMARK                         _______ _______ _______ _____ _____    ______ ____
ROOT
ATOM      1  N   UNL     1       6.058   4.443  18.379  0.00  0.00    +0.000 N 
ATOM      2  C   UNL     1       7.387   4.781  18.156  0.00  0.00    +0.000 C 
ATOM      3  O   UNL     1       8.014   4.256  17.229  0.00  0.00    +0.000 OA
ENDROOT
BRANCH   1   4
ATOM      4  C   UNL     1       5.377   3.600  17.384  0.00  0.00    +0.000 C 
BRANCH   4   6
ATOM      5  O   UNL     1       4.477   4.961  15.628  0.00  0.00    +0.000 OA
ATOM      6  C   UNL     1       5.278   4.073  15.927  0.00  0.00    +0.000 C 
ATOM      7  N   UNL     1       6.197   3.574  15.025  0.00  0.00    +0.000 N 
ATOM      8  H   UNL     1       7.053   3.210  15.430  0.00  0.00    +0.000 HD
BRANCH   7   9
ATOM      9  C   UNL     1       6.255   4.121  13.675  0.00  0.00    +0.000 C 
ATOM     10  C   UNL     1       7.528   4.915  13.386  0.00  0.00    +0.000 C 
ATOM     11  C   UNL     1       7.568   5.007  11.862  0.00  0.00    +0.000 C 
ATOM     12  C   UNL     1       6.869   3.751  11.350  0.00  0.00    +0.000 C 
ATOM     13  C   UNL     1       6.305   3.050  12.580  0.00  0.00    +0.000 C 
ENDBRANCH   7   9
ENDBRANCH   4   6
ENDBRANCH   1   4
BRANCH   1  14
ATOM     14  C   UNL     1       5.226   4.975  19.464  0.00  0.00    +0.000 C 
BRANCH  14  15
ATOM     15  C   UNL     1       4.199   5.910  18.950  0.00  0.00    +0.000 A 
ATOM     16  C   UNL     1       4.229   6.929  18.019  0.00  0.00    +0.000 A 
ATOM     17  C   UNL     1       2.941   7.518  18.033  0.00  0.00    +0.000 A 
ATOM     18  C   UNL     1       2.213   6.832  18.976  0.00  0.00    +0.000 A 
ATOM     19  O   UNL     1       2.967   5.851  19.535  0.00  0.00    +0.000 OA
ENDBRANCH  14  15
ENDBRANCH   1  14
BRANCH   2  20
ATOM     20  C   UNL     1       8.093   5.774  19.056  0.00  0.00    +0.000 C 
BRANCH  20  21
ATOM     21  N   UNL     1       8.054   7.111  18.510  0.00  0.00    +0.000 N 
ATOM     22  N   UNL     1       7.501   7.392  17.320  0.00  0.00    +0.000 NA
ATOM     23  N   UNL     1       7.752   8.679  17.122  0.00  0.00    +0.000 NA
ATOM     24  C   UNL     1       8.484   9.117  18.199  0.00  0.00    +0.000 A 
ATOM     25  N   UNL     1       8.715   8.137  19.089  0.00  0.00    +0.000 NA
BRANCH  24  26
ATOM     26  C   UNL     1       8.941  10.494  18.356  0.00  0.00    +0.000 A 
ATOM     27  C   UNL     1       8.333  11.536  17.634  0.00  0.00    +0.000 A 
ATOM     28  C   UNL     1       8.764  12.856  17.794  0.00  0.00    +0.000 A 
ATOM     29  C   UNL     1       9.795  13.137  18.684  0.00  0.00    +0.000 A 
ATOM     30  F   UNL     1      10.202  14.404  18.837  0.00  0.00    +0.000 F 
ATOM     31  C   UNL     1      10.413  12.129  19.404  0.00  0.00    +0.000 A 
ATOM     32  C   UNL     1       9.987  10.808  19.243  0.00  0.00    +0.000 A 
ENDBRANCH  24  26
ENDBRANCH  20  21
ENDBRANCH   2  20
TORSDOF 8
ENDMDL
MODEL 9
REMARK VINA RESULT:      -7.5      4.811      7.467
REMARK  Name = 
REMARK  8 active torsions:
REMARK  status: ('A' for Active; 'I' for Inactive)
REMARK    1  A    between atoms: C_2  and  C_3
REMARK    2  A    between atoms: C_3  and  N_4
REMARK    3  A    between atoms: N_4  and  C_5
REMARK    4  A    between atoms: C_5  and  C_6
REMARK    5  A    between atoms: C_11  and  C_13
REMARK    6  A    between atoms: C_13  and  N_14
REMARK    7  A    between atoms: C_17  and  C_18
REMARK    8  A    between atoms: N_26  and  C_27
REMARK                            x       y       z     vdW  Elec       q    Type
REMARK                         _______ _______ _______ _____ _____    ______ ____
ROOT
ATOM      1  N   UNL     1       6.239   5.262  16.538  0.00  0.00    +0.000 N 
ATOM      2  C   UNL     1       6.368   5.790  17.816  0.00  0.00    +0.000 C 
ATOM      3  O   UNL     1       5.366   5.952  18.524  0.00  0.00    +0.000 OA
ENDROOT
BRANCH   1   4
ATOM      4  C   UNL     1       4.927   4.736  16.129  0.00  0.00    +0.000 C 
BRANCH   4   6
ATOM      5  O   UNL     1       4.504   2.637  17.204  0.00  0.00    +0.000 OA
ATOM      6  C   UNL     1       4.151   3.811  17.075  0.00  0.00    +0.000 C 
ATOM      7  N   UNL     1       3.160   4.374  17.855  0.00  0.00    +0.000 N 
ATOM      8  H   UNL     1       3.236   5.375  18.001  0.00  0.00    +0.000 HD
BRANCH   7   9
ATOM      9  C   UNL     1       2.515   3.576  18.891  0.00  0.00    +0.000 C 
ATOM     10  C   UNL     1       2.359   4.306  20.225  0.00  0.00    +0.000 C 
ATOM     11  C   UNL     1       1.318   3.481  20.978  0.00  0.00    +0.000 C 
ATOM     12  C   UNL     1       0.423   2.861  19.907  0.00  0.00    +0.000 C 
ATOM     13  C   UNL     1       1.062   3.210  18.568  0.00  0.00    +0.000 C 
ENDBRANCH   7   9
ENDBRANCH   4   6
ENDBRANCH   1   4
BRANCH   1  14
ATOM     14  C   UNL     1       7.348   5.056  15.600  0.00  0.00    +0.000 C 
BRANCH  14  15
ATOM     15  C   UNL     1       6.865   4.544  14.296  0.00  0.00    +0.000 A 
ATOM     16  C   UNL     1       5.893   3.632  13.940  0.00  0.00    +0.000 A 
ATOM     17  C   UNL     1       5.968   3.499  12.532  0.00  0.00    +0.000 A 
ATOM     18  C   UNL     1       6.986   4.326  12.121  0.00  0.00    +0.000 A 
ATOM     19  O   UNL     1       7.534   4.968  13.185  0.00  0.00    +0.000 OA
ENDBRANCH  14  15
ENDBRANCH   1  14
BRANCH   2  20
ATOM     20  C   UNL     1       7.724   6.197  18.352  0.00  0.00    +0.000 C 
BRANCH  20  21
ATOM     21  N   UNL     1       7.939   7.621  18.238  0.00  0.00    +0.000 N 
ATOM     22  N   UNL     1       7.403   8.357  17.252  0.00  0.00    +0.000 NA
ATOM     23  N   UNL     1       7.905   9.573  17.422  0.00  0.00    +0.000 NA
ATOM     24  C   UNL     1       8.759   9.509  18.497  0.00  0.00    +0.000 A 
ATOM     25  N   UNL     1       8.823   8.274  19.023  0.00  0.00    +0.000 NA
BRANCH  24  26
ATOM     26  C   UNL     1       9.498  10.659  19.008  0.00  0.00    +0.000 A 
ATOM     27  C   UNL     1       9.476  10.970  20.379  0.00  0.00    +0.000 A 
ATOM     28  C   UNL     1      10.193  12.065  20.869  0.00  0.00    +0.000 A 
ATOM     29  C   UNL     1      10.942  12.843  19.992  0.00  0.00    +0.000 A 
ATOM     30  F   UNL     1      11.630  13.889  20.468  0.00  0.00    +0.000 F 
ATOM     31  C   UNL     1      10.976  12.561  18.637  0.00  0.00    +0.000 A 
ATOM     32  C   UNL     1      10.256  11.469  18.144  0.00  0.00    +0.000 A 
ENDBRANCH  24  26
ENDBRANCH  20  21
ENDBRANCH   2  20
TORSDOF 8
ENDMDL
