MODEL 1
REMARK VINA RESULT:      -8.4      0.000      0.000
REMARK  Name = 
REMARK  4 active torsions:
REMARK  status: ('A' for Active; 'I' for Inactive)
REMARK    1  A    between atoms: C_2  and  C_5
REMARK    2  A    between atoms: C_12  and  C_13
REMARK    3  A    between atoms: N_19  and  C_20
REMARK    4  A    between atoms: C_20  and  C_21
REMARK                            x       y       z     vdW  Elec       q    Type
REMARK                         _______ _______ _______ _____ _____    ______ ____
ROOT
ATOM      1  C   UNL     1       2.224   7.294  19.339  0.00  0.00    +0.000 A 
ATOM      2  C   UNL     1       1.940   7.960  18.136  0.00  0.00    +0.000 A 
ATOM      3  C   UNL     1       1.210   9.147  18.121  0.00  0.00    +0.000 A 
ATOM      4  C   UNL     1       0.787   9.695  19.361  0.00  0.00    +0.000 A 
ATOM      5  C   UNL     1       1.048   9.085  20.570  0.00  0.00    +0.000 A 
ATOM      6  C   UNL     1       1.776   7.869  20.557  0.00  0.00    +0.000 A 
ATOM      7  N   UNL     1       0.538   9.838  21.615  0.00  0.00    +0.000 NA
ATOM      8  C   UNL     1      -0.072  10.925  21.124  0.00  0.00    +0.000 A 
ATOM      9  N   UNL     1       0.007  10.806  19.690  0.00  0.00    +0.000 N 
ENDROOT
BRANCH   8  10
ATOM     10  C   UNL     1      -0.843  11.920  22.077  0.00  0.00    +0.000 A 
ATOM     11  C   UNL     1      -1.864  11.421  22.915  0.00  0.00    +0.000 A 
ATOM     12  C   UNL     1      -2.783  12.279  23.601  0.00  0.00    +0.000 A 
ATOM     13  C   UNL     1      -2.766  13.660  23.406  0.00  0.00    +0.000 A 
ATOM     14  C   UNL     1      -1.718  14.189  22.681  0.00  0.00    +0.000 A 
ATOM     15  C   UNL     1      -0.707  13.332  22.164  0.00  0.00    +0.000 A 
ENDBRANCH   8  10
BRANCH   1  17
ATOM     16  F   UNL     1       2.846   5.242  20.450  0.00  0.00    +0.000 F 
ATOM     17  C   UNL     1       3.024   6.032  19.327  0.00  0.00    +0.000 C 
ATOM     18  F   UNL     1       4.371   6.250  19.264  0.00  0.00    +0.000 F 
ATOM     19  F   UNL     1       2.738   5.211  18.282  0.00  0.00    +0.000 F 
ENDBRANCH   1  17
BRANCH   9  20
ATOM     20  C   UNL     1      -0.675  11.508  18.568  0.00  0.00    +0.000 C 
BRANCH  20  21
ATOM     21  C   UNL     1      -1.966  10.837  18.202  0.00  0.00    +0.000 C 
ATOM     22  C   UNL     1      -1.835   9.935  16.971  0.00  0.00    +0.000 C 
ATOM     23  C   UNL     1      -2.710  10.352  15.828  0.00  0.00    +0.000 C 
ATOM     24  C   UNL     1      -4.087  10.866  16.256  0.00  0.00    +0.000 C 
ATOM     25  N   UNL     1      -4.085  11.859  17.357  0.00  0.00    +0.000 NA
ATOM     26  C   UNL     1      -5.505  12.074  17.757  0.00  0.00    +0.000 C 
ATOM     27  C   UNL     1      -5.655  13.024  18.947  0.00  0.00    +0.000 C 
ATOM     28  C   UNL     1      -4.831  12.567  20.145  0.00  0.00    +0.000 C 
ATOM     29  C   UNL     1      -3.389  12.336  19.713  0.00  0.00    +0.000 C 
ATOM     30  C   UNL     1      -3.357  11.360  18.520  0.00  0.00    +0.000 C 
ENDBRANCH  20  21
ENDBRANCH   9  20
TORSDOF 4
ENDMDL
MODEL 2
REMARK VINA RESULT:      -7.7      1.173      1.689
REMARK  Name = 
REMARK  4 active torsions:
REMARK  status: ('A' for Active; 'I' for Inactive)
REMARK    1  A    between atoms: C_2  and  C_5
REMARK    2  A    between atoms: C_12  and  C_13
REMARK    3  A    between atoms: N_19  and  C_20
REMARK    4  A    between atoms: C_20  and  C_21
REMARK                            x       y       z     vdW  Elec       q    Type
REMARK                         _______ _______ _______ _____ _____    ______ ____
ROOT
ATOM      1  C   UNL     1       1.614   8.481  18.989  0.00  0.00    +0.000 A 
ATOM      2  C   UNL     1       1.107   9.253  17.932  0.00  0.00    +0.000 A 
ATOM      3  C   UNL     1       0.264  10.337  18.167  0.00  0.00    +0.000 A 
ATOM      4  C   UNL     1      -0.045  10.673  19.512  0.00  0.00    +0.000 A 
ATOM      5  C   UNL     1       0.435   9.953  20.586  0.00  0.00    +0.000 A 
ATOM      6  C   UNL     1       1.275   8.843  20.320  0.00  0.00    +0.000 A 
ATOM      7  N   UNL     1      -0.006  10.504  21.777  0.00  0.00    +0.000 NA
ATOM      8  C   UNL     1      -0.784  11.564  21.516  0.00  0.00    +0.000 A 
ATOM      9  N   UNL     1      -0.883  11.634  20.081  0.00  0.00    +0.000 N 
ENDROOT
BRANCH   8  10
ATOM     10  C   UNL     1      -1.520  12.334  22.683  0.00  0.00    +0.000 A 
ATOM     11  C   UNL     1      -2.659  11.754  23.281  0.00  0.00    +0.000 A 
ATOM     12  C   UNL     1      -3.533  12.492  24.143  0.00  0.00    +0.000 A 
ATOM     13  C   UNL     1      -3.345  13.855  24.370  0.00  0.00    +0.000 A 
ATOM     14  C   UNL     1      -2.185  14.427  23.889  0.00  0.00    +0.000 A 
ATOM     15  C   UNL     1      -1.235  13.629  23.193  0.00  0.00    +0.000 A 
ENDBRANCH   8  10
BRANCH   1  17
ATOM     16  F   UNL     1       3.686   7.689  18.033  0.00  0.00    +0.000 F 
ATOM     17  C   UNL     1       2.530   7.335  18.708  0.00  0.00    +0.000 C 
ATOM     18  F   UNL     1       1.958   6.366  17.934  0.00  0.00    +0.000 F 
ATOM     19  F   UNL     1       2.969   6.697  19.826  0.00  0.00    +0.000 F 
ENDBRANCH   1  17
BRANCH   9  20
ATOM     20  C   UNL     1      -1.776  12.384  19.155  0.00  0.00    +0.000 C 
BRANCH  20  21
ATOM     21  C   UNL     1      -3.131  11.746  19.058  0.00  0.00    +0.000 C 
ATOM     22  C   UNL     1      -3.220  10.720  17.923  0.00  0.00    +0.000 C 
ATOM     23  C   UNL     1      -4.245  11.065  16.885  0.00  0.00    +0.000 C 
ATOM     24  C   UNL     1      -5.521  11.687  17.456  0.00  0.00    +0.000 C 
ATOM     25  N   UNL     1      -5.317  12.784  18.432  0.00  0.00    +0.000 NA
ATOM     26  C   UNL     1      -6.650  13.109  19.014  0.00  0.00    +0.000 C 
ATOM     27  C   UNL     1      -6.584  14.179  20.105  0.00  0.00    +0.000 C 
ATOM     28  C   UNL     1      -5.603  13.803  21.209  0.00  0.00    +0.000 C 
ATOM     29  C   UNL     1      -4.254  13.457  20.595  0.00  0.00    +0.000 C 
ATOM     30  C   UNL     1      -4.438  12.367  19.521  0.00  0.00    +0.000 C 
ENDBRANCH  20  21
ENDBRANCH   9  20
TORSDOF 4
ENDMDL
MODEL 3
REMARK VINA RESULT:      -7.5      4.211      9.402
REMARK  Name = 
REMARK  4 active torsions:
REMARK  status: ('A' for Active; 'I' for Inactive)
REMARK    1  A    between atoms: C_2  and  C_5
REMARK    2  A    between atoms: C_12  and  C_13
REMARK    3  A    between atoms: N_19  and  C_20
REMARK    4  A    between atoms: C_20  and  C_21
REMARK                            x       y       z     vdW  Elec       q    Type
REMARK                         _______ _______ _______ _____ _____    ______ ____
ROOT
ATOM      1  C   UNL     1       0.135   9.962  18.982  0.00  0.00    +0.000 A 
ATOM      2  C   UNL     1       0.251   9.196  20.152  0.00  0.00    +0.000 A 
ATOM      3  C   UNL     1       1.243   8.228  20.287  0.00  0.00    +0.000 A 
ATOM      4  C   UNL     1       2.166   8.053  19.222  0.00  0.00    +0.000 A 
ATOM      5  C   UNL     1       2.101   8.786  18.056  0.00  0.00    +0.000 A 
ATOM      6  C   UNL     1       1.071   9.752  17.935  0.00  0.00    +0.000 A 
ATOM      7  N   UNL     1       3.127   8.426  17.198  0.00  0.00    +0.000 NA
ATOM      8  C   UNL     1       3.860   7.457  17.762  0.00  0.00    +0.000 A 
ATOM      9  N   UNL     1       3.214   7.154  19.013  0.00  0.00    +0.000 N 
ENDROOT
BRANCH   8  10
ATOM     10  C   UNL     1       5.042   6.771  16.970  0.00  0.00    +0.000 A 
ATOM     11  C   UNL     1       4.816   6.316  15.652  0.00  0.00    +0.000 A 
ATOM     12  C   UNL     1       5.733   5.454  14.970  0.00  0.00    +0.000 A 
ATOM     13  C   UNL     1       6.865   4.949  15.609  0.00  0.00    +0.000 A 
ATOM     14  C   UNL     1       7.172   5.456  16.856  0.00  0.00    +0.000 A 
ATOM     15  C   UNL     1       6.345   6.456  17.439  0.00  0.00    +0.000 A 
ENDBRANCH   8  10
BRANCH   1  17
ATOM     16  F   UNL     1      -1.399  11.462  20.091  0.00  0.00    +0.000 F 
ATOM     17  C   UNL     1      -0.928  11.006  18.871  0.00  0.00    +0.000 C 
ATOM     18  F   UNL     1      -2.041  10.574  18.207  0.00  0.00    +0.000 F 
ATOM     19  F   UNL     1      -0.527  12.129  18.217  0.00  0.00    +0.000 F 
ENDBRANCH   1  17
BRANCH   9  20
ATOM     20  C   UNL     1       3.346   6.032  19.984  0.00  0.00    +0.000 C 
BRANCH  20  21
ATOM     21  C   UNL     1       2.415   4.904  19.653  0.00  0.00    +0.000 C 
ATOM     22  C   UNL     1       1.258   4.780  20.650  0.00  0.00    +0.000 C 
ATOM     23  C   UNL     1       1.230   3.466  21.371  0.00  0.00    +0.000 C 
ATOM     24  C   UNL     1       1.619   2.270  20.500  0.00  0.00    +0.000 C 
ATOM     25  N   UNL     1       2.850   2.443  19.691  0.00  0.00    +0.000 NA
ATOM     26  C   UNL     1       2.942   1.271  18.775  0.00  0.00    +0.000 C 
ATOM     27  C   UNL     1       4.131   1.351  17.816  0.00  0.00    +0.000 C 
ATOM     28  C   UNL     1       4.128   2.648  17.016  0.00  0.00    +0.000 C 
ATOM     29  C   UNL     1       4.015   3.832  17.967  0.00  0.00    +0.000 C 
ATOM     30  C   UNL     1       2.783   3.652  18.875  0.00  0.00    +0.000 C 
ENDBRANCH  20  21
ENDBRANCH   9  20
TORSDOF 4
ENDMDL
MODEL 4
REMARK VINA RESULT:      -7.3      9.689     12.355
REMARK  Name = 
REMARK  4 active torsions:
REMARK  status: ('A' for Active; 'I' for Inactive)
REMARK    1  A    between atoms: C_2  and  C_5
REMARK    2  A    between atoms: C_12  and  C_13
REMARK    3  A    between atoms: N_19  and  C_20
REMARK    4  A    between atoms: C_20  and  C_21
REMARK                            x       y       z     vdW  Elec       q    Type
REMARK                         _______ _______ _______ _____ _____    ______ ____
ROOT
ATOM      1  C   UNL     1       6.025  12.244  25.435  0.00  0.00    +0.000 A 
ATOM      2  C   UNL     1       5.738  13.524  24.938  0.00  0.00    +0.000 A 
ATOM      3  C   UNL     1       6.321  13.992  23.763  0.00  0.00    +0.000 A 
ATOM      4  C   UNL     1       7.192  13.125  23.050  0.00  0.00    +0.000 A 
ATOM      5  C   UNL     1       7.499  11.855  23.490  0.00  0.00    +0.000 A 
ATOM      6  C   UNL     1       6.908  11.410  24.699  0.00  0.00    +0.000 A 
ATOM      7  N   UNL     1       8.354  11.226  22.601  0.00  0.00    +0.000 NA
ATOM      8  C   UNL     1       8.635  12.058  21.589  0.00  0.00    +0.000 A 
ATOM      9  N   UNL     1       7.969  13.296  21.902  0.00  0.00    +0.000 N 
ENDROOT
BRANCH   8  10
ATOM     10  C   UNL     1       9.674  11.650  20.471  0.00  0.00    +0.000 A 
ATOM     11  C   UNL     1      11.040  11.957  20.654  0.00  0.00    +0.000 A 
ATOM     12  C   UNL     1      11.995  11.870  19.591  0.00  0.00    +0.000 A 
ATOM     13  C   UNL     1      11.604  11.554  18.290  0.00  0.00    +0.000 A 
ATOM     14  C   UNL     1      10.300  11.146  18.098  0.00  0.00    +0.000 A 
ATOM     15  C   UNL     1       9.412  11.059  19.206  0.00  0.00    +0.000 A 
ENDBRANCH   8  10
BRANCH   1  17
ATOM     16  F   UNL     1       6.263  11.364  27.672  0.00  0.00    +0.000 F 
ATOM     17  C   UNL     1       5.371  11.762  26.689  0.00  0.00    +0.000 C 
ATOM     18  F   UNL     1       4.564  10.678  26.493  0.00  0.00    +0.000 F 
ATOM     19  F   UNL     1       4.589  12.694  27.294  0.00  0.00    +0.000 F 
ENDBRANCH   1  17
BRANCH   9  20
ATOM     20  C   UNL     1       8.074  14.678  21.357  0.00  0.00    +0.000 C 
BRANCH  20  21
ATOM     21  C   UNL     1       9.504  15.105  21.209  0.00  0.00    +0.000 C 
ATOM     22  C   UNL     1      10.054  15.777  22.471  0.00  0.00    +0.000 C 
ATOM     23  C   UNL     1      10.496  17.192  22.251  0.00  0.00    +0.000 C 
ATOM     24  C   UNL     1      11.178  17.426  20.901  0.00  0.00    +0.000 C 
ATOM     25  N   UNL     1      10.474  16.865  19.723  0.00  0.00    +0.000 NA
ATOM     26  C   UNL     1      11.385  17.017  18.553  0.00  0.00    +0.000 C 
ATOM     27  C   UNL     1      10.821  16.406  17.270  0.00  0.00    +0.000 C 
ATOM     28  C   UNL     1      10.441  14.942  17.458  0.00  0.00    +0.000 C 
ATOM     29  C   UNL     1       9.526  14.805  18.666  0.00  0.00    +0.000 C 
ATOM     30  C   UNL     1      10.196  15.442  19.899  0.00  0.00    +0.000 C 
ENDBRANCH  20  21
ENDBRANCH   9  20
TORSDOF 4
ENDMDL
MODEL 5
REMARK VINA RESULT:      -7.1      5.312     10.007
REMARK  Name = 
REMARK  4 active torsions:
REMARK  status: ('A' for Active; 'I' for Inactive)
REMARK    1  A    between atoms: C_2  and  C_5
REMARK    2  A    between atoms: C_12  and  C_13
REMARK    3  A    between atoms: N_19  and  C_20
REMARK    4  A    between atoms: C_20  and  C_21
REMARK                            x       y       z     vdW  Elec       q    Type
REMARK                         _______ _______ _______ _____ _____    ______ ____
ROOT
ATOM      1  C   UNL     1       2.291   8.264  18.623  0.00  0.00    +0.000 A 
ATOM      2  C   UNL     1       2.555   7.278  19.585  0.00  0.00    +0.000 A 
ATOM      3  C   UNL     1       3.383   6.194  19.302  0.00  0.00    +0.000 A 
ATOM      4  C   UNL     1       3.991   6.126  18.020  0.00  0.00    +0.000 A 
ATOM      5  C   UNL     1       3.772   7.074  17.043  0.00  0.00    +0.000 A 
ATOM      6  C   UNL     1       2.910   8.157  17.349  0.00  0.00    +0.000 A 
ATOM      7  N   UNL     1       4.497   6.773  15.902  0.00  0.00    +0.000 NA
ATOM      8  C   UNL     1       5.178   5.635  16.094  0.00  0.00    +0.000 A 
ATOM      9  N   UNL     1       4.803   5.170  17.405  0.00  0.00    +0.000 N 
ENDROOT
BRANCH   8  10
ATOM     10  C   UNL     1       6.015   4.985  14.923  0.00  0.00    +0.000 A 
ATOM     11  C   UNL     1       7.212   5.606  14.504  0.00  0.00    +0.000 A 
ATOM     12  C   UNL     1       7.881   5.243  13.291  0.00  0.00    +0.000 A 
ATOM     13  C   UNL     1       7.333   4.307  12.414  0.00  0.00    +0.000 A 
ATOM     14  C   UNL     1       6.224   3.606  12.842  0.00  0.00    +0.000 A 
ATOM     15  C   UNL     1       5.684   3.850  14.135  0.00  0.00    +0.000 A 
ENDBRANCH   8  10
BRANCH   1  17
ATOM     16  F   UNL     1       0.229   9.464  18.242  0.00  0.00    +0.000 F 
ATOM     17  C   UNL     1       1.413   9.425  18.960  0.00  0.00    +0.000 C 
ATOM     18  F   UNL     1       2.003  10.634  18.722  0.00  0.00    +0.000 F 
ATOM     19  F   UNL     1       1.024   9.460  20.262  0.00  0.00    +0.000 F 
ENDBRANCH   1  17
BRANCH   9  20
ATOM     20  C   UNL     1       4.978   3.874  18.117  0.00  0.00    +0.000 C 
BRANCH  20  21
ATOM     21  C   UNL     1       3.702   3.085  18.147  0.00  0.00    +0.000 C 
ATOM     22  C   UNL     1       2.890   3.225  16.855  0.00  0.00    +0.000 C 
ATOM     23  C   UNL     1       1.531   3.821  17.066  0.00  0.00    +0.000 C 
ATOM     24  C   UNL     1       0.845   3.363  18.354  0.00  0.00    +0.000 C 
ATOM     25  N   UNL     1       1.680   3.417  19.578  0.00  0.00    +0.000 NA
ATOM     26  C   UNL     1       0.911   2.748  20.665  0.00  0.00    +0.000 C 
ATOM     27  C   UNL     1       1.687   2.658  21.981  0.00  0.00    +0.000 C 
ATOM     28  C   UNL     1       3.040   1.981  21.796  0.00  0.00    +0.000 C 
ATOM     29  C   UNL     1       3.803   2.665  20.670  0.00  0.00    +0.000 C 
ATOM     30  C   UNL     1       2.934   2.690  19.397  0.00  0.00    +0.000 C 
ENDBRANCH  20  21
ENDBRANCH   9  20
TORSDOF 4
ENDMDL
MODEL 6
REMARK VINA RESULT:      -7.1      3.039      4.623
REMARK  Name = 
REMARK  4 active torsions:
REMARK  status: ('A' for Active; 'I' for Inactive)
REMARK    1  A    between atoms: C_2  and  C_5
REMARK    2  A    between atoms: C_12  and  C_13
REMARK    3  A    between atoms: N_19  and  C_20
REMARK    4  A    between atoms: C_20  and  C_21
REMARK                            x       y       z     vdW  Elec       q    Type
REMARK                         _______ _______ _______ _____ _____    ______ ____
ROOT
ATOM      1  C   UNL     1       2.137   8.058  18.771  0.00  0.00    +0.000 A 
ATOM      2  C   UNL     1       2.373   9.090  17.850  0.00  0.00    +0.000 A 
ATOM      3  C   UNL     1       1.799  10.349  18.012  0.00  0.00    +0.000 A 
ATOM      4  C   UNL     1       0.992  10.581  19.157  0.00  0.00    +0.000 A 
ATOM      5  C   UNL     1       0.737   9.604  20.096  0.00  0.00    +0.000 A 
ATOM      6  C   UNL     1       1.317   8.326  19.899  0.00  0.00    +0.000 A 
ATOM      7  N   UNL     1      -0.061  10.103  21.112  0.00  0.00    +0.000 NA
ATOM      8  C   UNL     1      -0.356  11.385  20.858  0.00  0.00    +0.000 A 
ATOM      9  N   UNL     1       0.239  11.679  19.580  0.00  0.00    +0.000 N 
ENDROOT
BRANCH   8  10
ATOM     10  C   UNL     1      -1.343  12.189  21.793  0.00  0.00    +0.000 A 
ATOM     11  C   UNL     1      -2.657  12.450  21.348  0.00  0.00    +0.000 A 
ATOM     12  C   UNL     1      -3.517  13.388  22.002  0.00  0.00    +0.000 A 
ATOM     13  C   UNL     1      -3.066  14.159  23.074  0.00  0.00    +0.000 A 
ATOM     14  C   UNL     1      -1.828  13.854  23.602  0.00  0.00    +0.000 A 
ATOM     15  C   UNL     1      -1.065  12.787  23.052  0.00  0.00    +0.000 A 
ENDBRANCH   8  10
BRANCH   1  17
ATOM     16  F   UNL     1       3.901   6.746  17.770  0.00  0.00    +0.000 F 
ATOM     17  C   UNL     1       2.780   6.722  18.583  0.00  0.00    +0.000 C 
ATOM     18  F   UNL     1       1.951   5.803  18.005  0.00  0.00    +0.000 F 
ATOM     19  F   UNL     1       3.208   6.151  19.739  0.00  0.00    +0.000 F 
ENDBRANCH   1  17
BRANCH   9  20
ATOM     20  C   UNL     1       0.080  12.801  18.613  0.00  0.00    +0.000 C 
BRANCH  20  21
ATOM     21  C   UNL     1       0.562  14.099  19.191  0.00  0.00    +0.000 C 
ATOM     22  C   UNL     1      -0.587  15.021  19.612  0.00  0.00    +0.000 C 
ATOM     23  C   UNL     1      -0.602  16.329  18.881  0.00  0.00    +0.000 C 
ATOM     24  C   UNL     1       0.789  16.911  18.621  0.00  0.00    +0.000 C 
ATOM     25  N   UNL     1       1.784  15.964  18.063  0.00  0.00    +0.000 NA
ATOM     26  C   UNL     1       3.105  16.655  18.076  0.00  0.00    +0.000 C 
ATOM     27  C   UNL     1       4.253  15.766  17.596  0.00  0.00    +0.000 C 
ATOM     28  C   UNL     1       4.329  14.464  18.386  0.00  0.00    +0.000 C 
ATOM     29  C   UNL     1       2.968  13.782  18.377  0.00  0.00    +0.000 C 
ATOM     30  C   UNL     1       1.894  14.763  18.886  0.00  0.00    +0.000 C 
ENDBRANCH  20  21
ENDBRANCH   9  20
TORSDOF 4
ENDMDL
MODEL 7
REMARK VINA RESULT:      -7.0      3.039      4.607
REMARK  Name = 
REMARK  4 active torsions:
REMARK  status: ('A' for Active; 'I' for Inactive)
REMARK    1  A    between atoms: C_2  and  C_5
REMARK    2  A    between atoms: C_12  and  C_13
REMARK    3  A    between atoms: N_19  and  C_20
REMARK    4  A    between atoms: C_20  and  C_21
REMARK                            x       y       z     vdW  Elec       q    Type
REMARK                         _______ _______ _______ _____ _____    ______ ____
ROOT
ATOM      1  C   UNL     1       2.138   8.210  18.699  0.00  0.00    +0.000 A 
ATOM      2  C   UNL     1       2.449   9.300  17.872  0.00  0.00    +0.000 A 
ATOM      3  C   UNL     1       1.816  10.531  18.029  0.00  0.00    +0.000 A 
ATOM      4  C   UNL     1       0.869  10.675  19.077  0.00  0.00    +0.000 A 
ATOM      5  C   UNL     1       0.536   9.638  19.924  0.00  0.00    +0.000 A 
ATOM      6  C   UNL     1       1.179   8.390  19.731  0.00  0.00    +0.000 A 
ATOM      7  N   UNL     1      -0.397  10.055  20.859  0.00  0.00    +0.000 NA
ATOM      8  C   UNL     1      -0.703  11.341  20.640  0.00  0.00    +0.000 A 
ATOM      9  N   UNL     1       0.032  11.725  19.462  0.00  0.00    +0.000 N 
ENDROOT
BRANCH   8  10
ATOM     10  C   UNL     1      -1.823  12.062  21.489  0.00  0.00    +0.000 A 
ATOM     11  C   UNL     1      -1.781  11.980  22.898  0.00  0.00    +0.000 A 
ATOM     12  C   UNL     1      -2.885  12.366  23.722  0.00  0.00    +0.000 A 
ATOM     13  C   UNL     1      -4.099  12.769  23.166  0.00  0.00    +0.000 A 
ATOM     14  C   UNL     1      -4.140  12.963  21.800  0.00  0.00    +0.000 A 
ATOM     15  C   UNL     1      -2.971  12.753  21.017  0.00  0.00    +0.000 A 
ENDBRANCH   8  10
BRANCH   1  17
ATOM     16  F   UNL     1       3.294   6.341  19.702  0.00  0.00    +0.000 F 
ATOM     17  C   UNL     1       2.845   6.906  18.520  0.00  0.00    +0.000 C 
ATOM     18  F   UNL     1       3.960   7.002  17.736  0.00  0.00    +0.000 F 
ATOM     19  F   UNL     1       2.079   5.940  17.948  0.00  0.00    +0.000 F 
ENDBRANCH   1  17
BRANCH   9  20
ATOM     20  C   UNL     1      -0.048  12.895  18.545  0.00  0.00    +0.000 C 
BRANCH  20  21
ATOM     21  C   UNL     1       0.472  14.142  19.197  0.00  0.00    +0.000 C 
ATOM     22  C   UNL     1      -0.648  15.057  19.702  0.00  0.00    +0.000 C 
ATOM     23  C   UNL     1      -0.650  16.411  19.059  0.00  0.00    +0.000 C 
ATOM     24  C   UNL     1       0.748  16.981  18.809  0.00  0.00    +0.000 C 
ATOM     25  N   UNL     1       1.712  16.054  18.169  0.00  0.00    +0.000 NA
ATOM     26  C   UNL     1       3.047  16.717  18.200  0.00  0.00    +0.000 C 
ATOM     27  C   UNL     1       4.166  15.838  17.640  0.00  0.00    +0.000 C 
ATOM     28  C   UNL     1       4.230  14.486  18.340  0.00  0.00    +0.000 C 
ATOM     29  C   UNL     1       2.855  13.833  18.314  0.00  0.00    +0.000 C 
ATOM     30  C   UNL     1       1.812  14.799  18.909  0.00  0.00    +0.000 C 
ENDBRANCH  20  21
ENDBRANCH   9  20
TORSDOF 4
ENDMDL
MODEL 8
REMARK VINA RESULT:      -6.9      2.306      3.878
REMARK  Name = 
REMARK  4 active torsions:
REMARK  status: ('A' for Active; 'I' for Inactive)
REMARK    1  A    between atoms: C_2  and  C_5
REMARK    2  A    between atoms: C_12  and  C_13
REMARK    3  A    between atoms: N_19  and  C_20
REMARK    4  A    between atoms: C_20  and  C_21
REMARK                            x       y       z     vdW  Elec       q    Type
REMARK                         _______ _______ _______ _____ _____    ______ ____
ROOT
ATOM      1  C   UNL     1       1.940   7.774  19.342  0.00  0.00    +0.000 A 
ATOM      2  C   UNL     1       2.067   8.602  18.216  0.00  0.00    +0.000 A 
ATOM      3  C   UNL     1       1.498   9.873  18.185  0.00  0.00    +0.000 A 
ATOM      4  C   UNL     1       0.812  10.334  19.340  0.00  0.00    +0.000 A 
ATOM      5  C   UNL     1       0.667   9.564  20.474  0.00  0.00    +0.000 A 
ATOM      6  C   UNL     1       1.239   8.266  20.474  0.00  0.00    +0.000 A 
ATOM      7  N   UNL     1      -0.027  10.260  21.450  0.00  0.00    +0.000 NA
ATOM      8  C   UNL     1      -0.362  11.469  20.980  0.00  0.00    +0.000 A 
ATOM      9  N   UNL     1       0.093  11.500  19.614  0.00  0.00    +0.000 N 
ENDROOT
BRANCH   8  10
ATOM     10  C   UNL     1      -1.256  12.450  21.836  0.00  0.00    +0.000 A 
ATOM     11  C   UNL     1      -0.637  13.303  22.776  0.00  0.00    +0.000 A 
ATOM     12  C   UNL     1      -1.381  14.018  23.770  0.00  0.00    +0.000 A 
ATOM     13  C   UNL     1      -2.757  13.841  23.912  0.00  0.00    +0.000 A 
ATOM     14  C   UNL     1      -3.407  13.100  22.945  0.00  0.00    +0.000 A 
ATOM     15  C   UNL     1      -2.673  12.552  21.857  0.00  0.00    +0.000 A 
ENDBRANCH   8  10
BRANCH   1  17
ATOM     16  F   UNL     1       3.945   6.441  19.140  0.00  0.00    +0.000 F 
ATOM     17  C   UNL     1       2.576   6.422  19.354  0.00  0.00    +0.000 C 
ATOM     18  F   UNL     1       2.085   5.587  18.391  0.00  0.00    +0.000 F 
ATOM     19  F   UNL     1       2.423   5.754  20.528  0.00  0.00    +0.000 F 
ENDBRANCH   1  17
BRANCH   9  20
ATOM     20  C   UNL     1      -0.179  12.410  18.467  0.00  0.00    +0.000 C 
BRANCH  20  21
ATOM     21  C   UNL     1       0.662  13.650  18.536  0.00  0.00    +0.000 C 
ATOM     22  C   UNL     1       2.147  13.372  18.279  0.00  0.00    +0.000 C 
ATOM     23  C   UNL     1       3.031  13.732  19.434  0.00  0.00    +0.000 C 
ATOM     24  C   UNL     1       2.608  15.007  20.166  0.00  0.00    +0.000 C 
ATOM     25  N   UNL     1       1.168  15.101  20.507  0.00  0.00    +0.000 NA
ATOM     26  C   UNL     1       0.926  16.480  21.020  0.00  0.00    +0.000 C 
ATOM     27  C   UNL     1      -0.544  16.751  21.342  0.00  0.00    +0.000 C 
ATOM     28  C   UNL     1      -1.448  16.465  20.148  0.00  0.00    +0.000 C 
ATOM     29  C   UNL     1      -1.175  15.061  19.627  0.00  0.00    +0.000 C 
ATOM     30  C   UNL     1       0.329  14.904  19.328  0.00  0.00    +0.000 C 
ENDBRANCH  20  21
ENDBRANCH   9  20
TORSDOF 4
ENDMDL
MODEL 9
REMARK VINA RESULT:      -6.8      2.296      3.736
REMARK  Name = 
REMARK  4 active torsions:
REMARK  status: ('A' for Active; 'I' for Inactive)
REMARK    1  A    between atoms: C_2  and  C_5
REMARK    2  A    between atoms: C_12  and  C_13
REMARK    3  A    between atoms: N_19  and  C_20
REMARK    4  A    between atoms: C_20  and  C_21
REMARK                            x       y       z     vdW  Elec       q    Type
REMARK                         _______ _______ _______ _____ _____    ______ ____
ROOT
ATOM      1  C   UNL     1       1.871   7.701  19.580  0.00  0.00    +0.000 A 
ATOM      2  C   UNL     1       1.946   8.507  18.434  0.00  0.00    +0.000 A 
ATOM      3  C   UNL     1       1.365   9.772  18.399  0.00  0.00    +0.000 A 
ATOM      4  C   UNL     1       0.719  10.251  19.570  0.00  0.00    +0.000 A 
ATOM      5  C   UNL     1       0.626   9.503  20.725  0.00  0.00    +0.000 A 
ATOM      6  C   UNL     1       1.209   8.211  20.729  0.00  0.00    +0.000 A 
ATOM      7  N   UNL     1      -0.037  10.213  21.712  0.00  0.00    +0.000 NA
ATOM      8  C   UNL     1      -0.402  11.409  21.231  0.00  0.00    +0.000 A 
ATOM      9  N   UNL     1       0.000  11.416  19.847  0.00  0.00    +0.000 N 
ENDROOT
BRANCH   8  10
ATOM     10  C   UNL     1      -1.271  12.400  22.101  0.00  0.00    +0.000 A 
ATOM     11  C   UNL     1      -2.656  12.507  21.847  0.00  0.00    +0.000 A 
ATOM     12  C   UNL     1      -3.457  13.560  22.394  0.00  0.00    +0.000 A 
ATOM     13  C   UNL     1      -2.888  14.589  23.144  0.00  0.00    +0.000 A 
ATOM     14  C   UNL     1      -1.561  14.459  23.500  0.00  0.00    +0.000 A 
ATOM     15  C   UNL     1      -0.828  13.305  23.102  0.00  0.00    +0.000 A 
ENDBRANCH   8  10
BRANCH   1  17
ATOM     16  F   UNL     1       2.241   5.608  20.729  0.00  0.00    +0.000 F 
ATOM     17  C   UNL     1       2.520   6.355  19.596  0.00  0.00    +0.000 C 
ATOM     18  F   UNL     1       3.883   6.415  19.545  0.00  0.00    +0.000 F 
ATOM     19  F   UNL     1       2.151   5.556  18.560  0.00  0.00    +0.000 F 
ENDBRANCH   1  17
BRANCH   9  20
ATOM     20  C   UNL     1      -0.325  12.300  18.694  0.00  0.00    +0.000 C 
BRANCH  20  21
ATOM     21  C   UNL     1       0.552  13.517  18.667  0.00  0.00    +0.000 C 
ATOM     22  C   UNL     1       2.024  13.179  18.412  0.00  0.00    +0.000 C 
ATOM     23  C   UNL     1       2.934  13.591  19.530  0.00  0.00    +0.000 C 
ATOM     24  C   UNL     1       2.557  14.925  20.178  0.00  0.00    +0.000 C 
ATOM     25  N   UNL     1       1.125  15.083  20.529  0.00  0.00    +0.000 NA
ATOM     26  C   UNL     1       0.929  16.500  20.949  0.00  0.00    +0.000 C 
ATOM     27  C   UNL     1      -0.528  16.835  21.269  0.00  0.00    +0.000 C 
ATOM     28  C   UNL     1      -1.456  16.494  20.108  0.00  0.00    +0.000 C 
ATOM     29  C   UNL     1      -1.229  15.051  19.681  0.00  0.00    +0.000 C 
ATOM     30  C   UNL     1       0.265  14.830  19.376  0.00  0.00    +0.000 C 
ENDBRANCH  20  21
ENDBRANCH   9  20
TORSDOF 4
ENDMDL
