MODEL 1
REMARK VINA RESULT:      -7.4      0.000      0.000
REMARK  Name = 
REMARK  5 active torsions:
REMARK  status: ('A' for Active; 'I' for Inactive)
REMARK    1  A    between atoms: C_1  and  C_2
REMARK    2  A    between atoms: N_6  and  C_7
REMARK    3  A    between atoms: C_7  and  C_8
REMARK    4  A    between atoms: N_14  and  C_15
REMARK    5  A    between atoms: C_15  and  C_16
REMARK                            x       y       z     vdW  Elec       q    Type
REMARK                         _______ _______ _______ _____ _____    ______ ____
ROOT
ATOM      1  C   UNL     1       3.906   3.815  17.509  0.00  0.00    +0.000 A 
ATOM      2  N   UNL     1       3.384   2.592  17.161  0.00  0.00    +0.000 NA
ATOM      3  N   UNL     1       2.184   2.498  17.666  0.00  0.00    +0.000 NA
ATOM      4  N   UNL     1       2.002   3.578  18.443  0.00  0.00    +0.000 N 
ATOM      5  C   UNL     1       2.934   4.571  18.208  0.00  0.00    +0.000 A 
ATOM      6  C   UNL     1       2.738   6.075  18.494  0.00  0.00    +0.000 C 
ATOM      7  N   UNL     1       2.408   6.653  19.840  0.00  0.00    +0.000 NA
ATOM      8  C   UNL     1       1.378   5.994  20.669  0.00  0.00    +0.000 C 
ATOM      9  C   UNL     1       1.060   4.507  20.539  0.00  0.00    +0.000 C 
ATOM     10  C   UNL     1       1.091   3.375  19.529  0.00  0.00    +0.000 C 
ENDROOT
BRANCH   1  11
ATOM     11  C   UNL     1       5.319   3.985  17.118  0.00  0.00    +0.000 C 
BRANCH  11  17
ATOM     12  C   UNL     1       7.168   6.504  16.417  0.00  0.00    +0.000 C 
ATOM     13  C   UNL     1       6.991   5.829  17.730  0.00  0.00    +0.000 A 
ATOM     14  C   UNL     1       7.659   6.012  18.928  0.00  0.00    +0.000 A 
ATOM     15  N   UNL     1       7.168   5.145  19.858  0.00  0.00    +0.000 NA
ATOM     16  N   UNL     1       6.211   4.424  19.294  0.00  0.00    +0.000 NA
ATOM     17  N   UNL     1       6.102   4.812  18.010  0.00  0.00    +0.000 N 
ENDBRANCH  11  17
ENDBRANCH   1  11
BRANCH   7  18
ATOM     18  C   UNL     1       1.823   8.048  19.732  0.00  0.00    +0.000 C 
BRANCH  18  19
ATOM     19  C   UNL     1       1.212   8.831  20.852  0.00  0.00    +0.000 A 
ATOM     20  C   UNL     1       1.463   8.924  22.202  0.00  0.00    +0.000 A 
ATOM     21  C   UNL     1       0.402   9.603  22.905  0.00  0.00    +0.000 A 
ATOM     22  C   UNL     1      -0.605  10.016  22.078  0.00  0.00    +0.000 A 
ATOM     23  S   UNL     1      -0.277   9.647  20.449  0.00  0.00    +0.000 S 
ENDBRANCH  18  19
ENDBRANCH   7  18
TORSDOF 4
ENDMDL
MODEL 2
REMARK VINA RESULT:      -7.3      1.826      2.288
REMARK  Name = 
REMARK  5 active torsions:
REMARK  status: ('A' for Active; 'I' for Inactive)
REMARK    1  A    between atoms: C_1  and  C_2
REMARK    2  A    between atoms: N_6  and  C_7
REMARK    3  A    between atoms: C_7  and  C_8
REMARK    4  A    between atoms: N_14  and  C_15
REMARK    5  A    between atoms: C_15  and  C_16
REMARK                            x       y       z     vdW  Elec       q    Type
REMARK                         _______ _______ _______ _____ _____    ______ ____
ROOT
ATOM      1  C   UNL     1       3.137   3.848  17.872  0.00  0.00    +0.000 A 
ATOM      2  N   UNL     1       2.466   2.771  18.400  0.00  0.00    +0.000 NA
ATOM      3  N   UNL     1       1.524   3.218  19.186  0.00  0.00    +0.000 NA
ATOM      4  N   UNL     1       1.685   4.548  19.271  0.00  0.00    +0.000 N 
ATOM      5  C   UNL     1       2.518   5.052  18.289  0.00  0.00    +0.000 A 
ATOM      6  C   UNL     1       2.512   6.501  17.758  0.00  0.00    +0.000 C 
ATOM      7  N   UNL     1       2.715   7.723  18.608  0.00  0.00    +0.000 NA
ATOM      8  C   UNL     1       2.020   7.814  19.908  0.00  0.00    +0.000 C 
ATOM      9  C   UNL     1       1.605   6.574  20.696  0.00  0.00    +0.000 C 
ATOM     10  C   UNL     1       1.216   5.121  20.496  0.00  0.00    +0.000 C 
ENDROOT
BRANCH   1  11
ATOM     11  C   UNL     1       4.322   3.471  17.077  0.00  0.00    +0.000 C 
BRANCH  11  17
ATOM     12  C   UNL     1       6.697   4.508  15.195  0.00  0.00    +0.000 C 
ATOM     13  C   UNL     1       6.633   4.507  16.680  0.00  0.00    +0.000 A 
ATOM     14  C   UNL     1       7.603   4.813  17.618  0.00  0.00    +0.000 A 
ATOM     15  N   UNL     1       7.092   4.648  18.871  0.00  0.00    +0.000 NA
ATOM     16  N   UNL     1       5.833   4.253  18.759  0.00  0.00    +0.000 NA
ATOM     17  N   UNL     1       5.545   4.148  17.449  0.00  0.00    +0.000 N 
ENDBRANCH  11  17
ENDBRANCH   1  11
BRANCH   7  18
ATOM     18  C   UNL     1       2.199   8.978  17.931  0.00  0.00    +0.000 C 
BRANCH  18  19
ATOM     19  C   UNL     1       0.907   9.670  18.238  0.00  0.00    +0.000 A 
ATOM     20  C   UNL     1      -0.403   9.454  17.875  0.00  0.00    +0.000 A 
ATOM     21  C   UNL     1      -1.247  10.578  18.200  0.00  0.00    +0.000 A 
ATOM     22  C   UNL     1      -0.567  11.595  18.809  0.00  0.00    +0.000 A 
ATOM     23  S   UNL     1       1.073  11.207  19.047  0.00  0.00    +0.000 S 
ENDBRANCH  18  19
ENDBRANCH   7  18
TORSDOF 4
ENDMDL
MODEL 3
REMARK VINA RESULT:      -7.3      1.954      4.022
REMARK  Name = 
REMARK  5 active torsions:
REMARK  status: ('A' for Active; 'I' for Inactive)
REMARK    1  A    between atoms: C_1  and  C_2
REMARK    2  A    between atoms: N_6  and  C_7
REMARK    3  A    between atoms: C_7  and  C_8
REMARK    4  A    between atoms: N_14  and  C_15
REMARK    5  A    between atoms: C_15  and  C_16
REMARK                            x       y       z     vdW  Elec       q    Type
REMARK                         _______ _______ _______ _____ _____    ______ ____
ROOT
ATOM      1  C   UNL     1       4.328   3.893  18.574  0.00  0.00    +0.000 A 
ATOM      2  N   UNL     1       5.437   3.884  17.762  0.00  0.00    +0.000 NA
ATOM      3  N   UNL     1       5.715   5.117  17.434  0.00  0.00    +0.000 NA
ATOM      4  N   UNL     1       4.719   5.882  17.907  0.00  0.00    +0.000 N 
ATOM      5  C   UNL     1       3.937   5.228  18.841  0.00  0.00    +0.000 A 
ATOM      6  C   UNL     1       3.090   5.905  19.940  0.00  0.00    +0.000 C 
ATOM      7  N   UNL     1       2.005   6.912  19.684  0.00  0.00    +0.000 NA
ATOM      8  C   UNL     1       2.246   7.988  18.702  0.00  0.00    +0.000 C 
ATOM      9  C   UNL     1       3.227   7.828  17.544  0.00  0.00    +0.000 C 
ATOM     10  C   UNL     1       4.492   7.082  17.160  0.00  0.00    +0.000 C 
ENDROOT
BRANCH   1  11
ATOM     11  C   UNL     1       3.824   2.544  18.897  0.00  0.00    +0.000 C 
BRANCH  11  17
ATOM     12  C   UNL     1       0.622   2.625  18.884  0.00  0.00    +0.000 C 
ATOM     13  C   UNL     1       1.539   2.630  20.055  0.00  0.00    +0.000 A 
ATOM     14  C   UNL     1       1.270   2.807  21.401  0.00  0.00    +0.000 A 
ATOM     15  N   UNL     1       2.436   2.756  22.107  0.00  0.00    +0.000 NA
ATOM     16  N   UNL     1       3.430   2.550  21.257  0.00  0.00    +0.000 NA
ATOM     17  N   UNL     1       2.911   2.487  20.017  0.00  0.00    +0.000 N 
ENDBRANCH  11  17
ENDBRANCH   1  11
BRANCH   7  18
ATOM     18  C   UNL     1       1.688   7.731  20.920  0.00  0.00    +0.000 C 
BRANCH  18  19
ATOM     19  C   UNL     1       0.687   8.842  21.000  0.00  0.00    +0.000 A 
ATOM     20  C   UNL     1       0.123   9.690  20.074  0.00  0.00    +0.000 A 
ATOM     21  C   UNL     1      -0.575  10.787  20.699  0.00  0.00    +0.000 A 
ATOM     22  C   UNL     1      -0.538  10.733  22.064  0.00  0.00    +0.000 A 
ATOM     23  S   UNL     1       0.286   9.351  22.620  0.00  0.00    +0.000 S 
ENDBRANCH  18  19
ENDBRANCH   7  18
TORSDOF 4
ENDMDL
MODEL 4
REMARK VINA RESULT:      -7.2      1.114      1.601
REMARK  Name = 
REMARK  5 active torsions:
REMARK  status: ('A' for Active; 'I' for Inactive)
REMARK    1  A    between atoms: C_1  and  C_2
REMARK    2  A    between atoms: N_6  and  C_7
REMARK    3  A    between atoms: C_7  and  C_8
REMARK    4  A    between atoms: N_14  and  C_15
REMARK    5  A    between atoms: C_15  and  C_16
REMARK                            x       y       z     vdW  Elec       q    Type
REMARK                         _______ _______ _______ _____ _____    ______ ____
ROOT
ATOM      1  C   UNL     1       3.639   3.439  17.428  0.00  0.00    +0.000 A 
ATOM      2  N   UNL     1       3.061   2.211  17.205  0.00  0.00    +0.000 NA
ATOM      3  N   UNL     1       1.904   2.186  17.810  0.00  0.00    +0.000 NA
ATOM      4  N   UNL     1       1.812   3.319  18.524  0.00  0.00    +0.000 N 
ATOM      5  C   UNL     1       2.745   4.268  18.150  0.00  0.00    +0.000 A 
ATOM      6  C   UNL     1       2.610   5.792  18.348  0.00  0.00    +0.000 C 
ATOM      7  N   UNL     1       2.405   6.466  19.675  0.00  0.00    +0.000 NA
ATOM      8  C   UNL     1       1.431   5.893  20.626  0.00  0.00    +0.000 C 
ATOM      9  C   UNL     1       1.068   4.410  20.622  0.00  0.00    +0.000 C 
ATOM     10  C   UNL     1       0.988   3.214  19.691  0.00  0.00    +0.000 C 
ENDROOT
BRANCH   1  11
ATOM     11  C   UNL     1       5.019   3.541  16.915  0.00  0.00    +0.000 C 
BRANCH  11  17
ATOM     12  C   UNL     1       6.463   5.407  19.081  0.00  0.00    +0.000 C 
ATOM     13  C   UNL     1       6.036   5.759  17.700  0.00  0.00    +0.000 A 
ATOM     14  C   UNL     1       6.022   6.982  17.052  0.00  0.00    +0.000 A 
ATOM     15  N   UNL     1       5.522   6.823  15.794  0.00  0.00    +0.000 NA
ATOM     16  N   UNL     1       5.224   5.543  15.621  0.00  0.00    +0.000 NA
ATOM     17  N   UNL     1       5.513   4.892  16.763  0.00  0.00    +0.000 N 
ENDBRANCH  11  17
ENDBRANCH   1  11
BRANCH   7  18
ATOM     18  C   UNL     1       1.847   7.868  19.520  0.00  0.00    +0.000 C 
BRANCH  18  19
ATOM     19  C   UNL     1       1.297   8.718  20.622  0.00  0.00    +0.000 A 
ATOM     20  C   UNL     1       1.381   8.675  21.996  0.00  0.00    +0.000 A 
ATOM     21  C   UNL     1       0.429   9.558  22.624  0.00  0.00    +0.000 A 
ATOM     22  C   UNL     1      -0.330  10.251  21.722  0.00  0.00    +0.000 A 
ATOM     23  S   UNL     1       0.115   9.898  20.118  0.00  0.00    +0.000 S 
ENDBRANCH  18  19
ENDBRANCH   7  18
TORSDOF 4
ENDMDL
MODEL 5
REMARK VINA RESULT:      -7.0      2.235      3.021
REMARK  Name = 
REMARK  5 active torsions:
REMARK  status: ('A' for Active; 'I' for Inactive)
REMARK    1  A    between atoms: C_1  and  C_2
REMARK    2  A    between atoms: N_6  and  C_7
REMARK    3  A    between atoms: C_7  and  C_8
REMARK    4  A    between atoms: N_14  and  C_15
REMARK    5  A    between atoms: C_15  and  C_16
REMARK                            x       y       z     vdW  Elec       q    Type
REMARK                         _______ _______ _______ _____ _____    ______ ____
ROOT
ATOM      1  C   UNL     1       5.049   4.721  18.826  0.00  0.00    +0.000 A 
ATOM      2  N   UNL     1       4.860   3.488  19.403  0.00  0.00    +0.000 NA
ATOM      3  N   UNL     1       3.658   3.454  19.913  0.00  0.00    +0.000 NA
ATOM      4  N   UNL     1       3.147   4.689  19.792  0.00  0.00    +0.000 N 
ATOM      5  C   UNL     1       3.855   5.479  18.905  0.00  0.00    +0.000 A 
ATOM      6  C   UNL     1       3.296   6.695  18.137  0.00  0.00    +0.000 C 
ATOM      7  N   UNL     1       2.684   7.905  18.782  0.00  0.00    +0.000 NA
ATOM      8  C   UNL     1       1.734   7.718  19.897  0.00  0.00    +0.000 C 
ATOM      9  C   UNL     1       1.774   6.489  20.801  0.00  0.00    +0.000 C 
ATOM     10  C   UNL     1       2.179   5.026  20.791  0.00  0.00    +0.000 C 
ENDROOT
BRANCH   1  11
ATOM     11  C   UNL     1       6.426   4.938  18.338  0.00  0.00    +0.000 C 
BRANCH  11  17
ATOM     12  C   UNL     1       4.906   3.335  16.019  0.00  0.00    +0.000 C 
ATOM     13  C   UNL     1       5.995   4.339  15.883  0.00  0.00    +0.000 A 
ATOM     14  C   UNL     1       6.715   4.733  14.770  0.00  0.00    +0.000 A 
ATOM     15  N   UNL     1       7.634   5.672  15.133  0.00  0.00    +0.000 NA
ATOM     16  N   UNL     1       7.519   5.888  16.435  0.00  0.00    +0.000 NA
ATOM     17  N   UNL     1       6.548   5.084  16.905  0.00  0.00    +0.000 N 
ENDBRANCH  11  17
ENDBRANCH   1  11
BRANCH   7  18
ATOM     18  C   UNL     1       1.820   8.690  17.813  0.00  0.00    +0.000 C 
BRANCH  18  19
ATOM     19  C   UNL     1       0.800   9.720  18.186  0.00  0.00    +0.000 A 
ATOM     20  C   UNL     1      -0.560   9.828  18.006  0.00  0.00    +0.000 A 
ATOM     21  C   UNL     1      -1.041  11.157  18.295  0.00  0.00    +0.000 A 
ATOM     22  C   UNL     1      -0.048  12.006  18.697  0.00  0.00    +0.000 A 
ATOM     23  S   UNL     1       1.459  11.220  18.786  0.00  0.00    +0.000 S 
ENDBRANCH  18  19
ENDBRANCH   7  18
TORSDOF 4
ENDMDL
MODEL 6
REMARK VINA RESULT:      -7.0      1.459      1.875
REMARK  Name = 
REMARK  5 active torsions:
REMARK  status: ('A' for Active; 'I' for Inactive)
REMARK    1  A    between atoms: C_1  and  C_2
REMARK    2  A    between atoms: N_6  and  C_7
REMARK    3  A    between atoms: C_7  and  C_8
REMARK    4  A    between atoms: N_14  and  C_15
REMARK    5  A    between atoms: C_15  and  C_16
REMARK                            x       y       z     vdW  Elec       q    Type
REMARK                         _______ _______ _______ _____ _____    ______ ____
ROOT
ATOM      1  C   UNL     1       4.204   5.027  17.274  0.00  0.00    +0.000 A 
ATOM      2  N   UNL     1       3.951   3.825  16.657  0.00  0.00    +0.000 NA
ATOM      3  N   UNL     1       2.827   3.352  17.125  0.00  0.00    +0.000 NA
ATOM      4  N   UNL     1       2.446   4.164  18.124  0.00  0.00    +0.000 N 
ATOM      5  C   UNL     1       3.122   5.370  18.122  0.00  0.00    +0.000 A 
ATOM      6  C   UNL     1       2.611   6.689  18.738  0.00  0.00    +0.000 C 
ATOM      7  N   UNL     1       2.225   6.866  20.179  0.00  0.00    +0.000 NA
ATOM      8  C   UNL     1       1.409   5.824  20.834  0.00  0.00    +0.000 C 
ATOM      9  C   UNL     1       1.423   4.370  20.372  0.00  0.00    +0.000 C 
ATOM     10  C   UNL     1       1.656   3.525  19.133  0.00  0.00    +0.000 C 
ENDROOT
BRANCH   1  11
ATOM     11  C   UNL     1       5.523   5.595  16.937  0.00  0.00    +0.000 C 
BRANCH  11  17
ATOM     12  C   UNL     1       7.744   7.870  17.326  0.00  0.00    +0.000 C 
ATOM     13  C   UNL     1       7.430   6.727  18.224  0.00  0.00    +0.000 A 
ATOM     14  C   UNL     1       8.081   6.274  19.357  0.00  0.00    +0.000 A 
ATOM     15  N   UNL     1       7.439   5.173  19.840  0.00  0.00    +0.000 NA
ATOM     16  N   UNL     1       6.404   4.915  19.055  0.00  0.00    +0.000 NA
ATOM     17  N   UNL     1       6.392   5.831  18.069  0.00  0.00    +0.000 N 
ENDBRANCH  11  17
ENDBRANCH   1  11
BRANCH   7  18
ATOM     18  C   UNL     1       1.341   8.081  20.385  0.00  0.00    +0.000 C 
BRANCH  18  19
ATOM     19  C   UNL     1       1.339   9.316  19.540  0.00  0.00    +0.000 A 
ATOM     20  C   UNL     1       1.858   9.630  18.304  0.00  0.00    +0.000 A 
ATOM     21  C   UNL     1       1.837  11.050  18.052  0.00  0.00    +0.000 A 
ATOM     22  C   UNL     1       1.293  11.765  19.083  0.00  0.00    +0.000 A 
ATOM     23  S   UNL     1       0.755  10.752  20.341  0.00  0.00    +0.000 S 
ENDBRANCH  18  19
ENDBRANCH   7  18
TORSDOF 4
ENDMDL
MODEL 7
REMARK VINA RESULT:      -7.0      1.974      4.311
REMARK  Name = 
REMARK  5 active torsions:
REMARK  status: ('A' for Active; 'I' for Inactive)
REMARK    1  A    between atoms: C_1  and  C_2
REMARK    2  A    between atoms: N_6  and  C_7
REMARK    3  A    between atoms: C_7  and  C_8
REMARK    4  A    between atoms: N_14  and  C_15
REMARK    5  A    between atoms: C_15  and  C_16
REMARK                            x       y       z     vdW  Elec       q    Type
REMARK                         _______ _______ _______ _____ _____    ______ ____
ROOT
ATOM      1  C   UNL     1       4.597   3.650  18.854  0.00  0.00    +0.000 A 
ATOM      2  N   UNL     1       5.904   3.439  18.485  0.00  0.00    +0.000 NA
ATOM      3  N   UNL     1       6.436   4.592  18.182  0.00  0.00    +0.000 NA
ATOM      4  N   UNL     1       5.448   5.499  18.215  0.00  0.00    +0.000 N 
ATOM      5  C   UNL     1       4.317   5.038  18.863  0.00  0.00    +0.000 A 
ATOM      6  C   UNL     1       3.245   5.918  19.540  0.00  0.00    +0.000 C 
ATOM      7  N   UNL     1       2.453   6.987  18.843  0.00  0.00    +0.000 NA
ATOM      8  C   UNL     1       3.151   7.913  17.928  0.00  0.00    +0.000 C 
ATOM      9  C   UNL     1       4.437   7.523  17.204  0.00  0.00    +0.000 C 
ATOM     10  C   UNL     1       5.648   6.619  17.346  0.00  0.00    +0.000 C 
ENDROOT
BRANCH   1  11
ATOM     11  C   UNL     1       3.841   2.402  19.083  0.00  0.00    +0.000 C 
BRANCH  11  17
ATOM     12  C   UNL     1       0.649   2.585  18.893  0.00  0.00    +0.000 C 
ATOM     13  C   UNL     1       1.505   2.656  20.107  0.00  0.00    +0.000 A 
ATOM     14  C   UNL     1       1.176   2.951  21.419  0.00  0.00    +0.000 A 
ATOM     15  N   UNL     1       2.302   2.920  22.187  0.00  0.00    +0.000 NA
ATOM     16  N   UNL     1       3.330   2.613  21.410  0.00  0.00    +0.000 NA
ATOM     17  N   UNL     1       2.871   2.466  20.154  0.00  0.00    +0.000 N 
ENDBRANCH  11  17
ENDBRANCH   1  11
BRANCH   7  18
ATOM     18  C   UNL     1       1.845   7.973  19.822  0.00  0.00    +0.000 C 
BRANCH  18  19
ATOM     19  C   UNL     1       0.843   9.034  19.488  0.00  0.00    +0.000 A 
ATOM     20  C   UNL     1       0.583   9.783  18.363  0.00  0.00    +0.000 A 
ATOM     21  C   UNL     1      -0.307  10.884  18.639  0.00  0.00    +0.000 A 
ATOM     22  C   UNL     1      -0.707  10.929  19.946  0.00  0.00    +0.000 A 
ATOM     23  S   UNL     1      -0.069   9.635  20.848  0.00  0.00    +0.000 S 
ENDBRANCH  18  19
ENDBRANCH   7  18
TORSDOF 4
ENDMDL
MODEL 8
REMARK VINA RESULT:      -6.9      1.923      2.618
REMARK  Name = 
REMARK  5 active torsions:
REMARK  status: ('A' for Active; 'I' for Inactive)
REMARK    1  A    between atoms: C_1  and  C_2
REMARK    2  A    between atoms: N_6  and  C_7
REMARK    3  A    between atoms: C_7  and  C_8
REMARK    4  A    between atoms: N_14  and  C_15
REMARK    5  A    between atoms: C_15  and  C_16
REMARK                            x       y       z     vdW  Elec       q    Type
REMARK                         _______ _______ _______ _____ _____    ______ ____
ROOT
ATOM      1  C   UNL     1       3.391   4.019  18.029  0.00  0.00    +0.000 A 
ATOM      2  N   UNL     1       2.803   2.908  18.584  0.00  0.00    +0.000 NA
ATOM      3  N   UNL     1       1.807   3.301  19.332  0.00  0.00    +0.000 NA
ATOM      4  N   UNL     1       1.852   4.642  19.369  0.00  0.00    +0.000 N 
ATOM      5  C   UNL     1       2.662   5.180  18.386  0.00  0.00    +0.000 A 
ATOM      6  C   UNL     1       2.543   6.602  17.799  0.00  0.00    +0.000 C 
ATOM      7  N   UNL     1       2.621   7.868  18.605  0.00  0.00    +0.000 NA
ATOM      8  C   UNL     1       1.891   7.946  19.886  0.00  0.00    +0.000 C 
ATOM      9  C   UNL     1       1.564   6.705  20.713  0.00  0.00    +0.000 C 
ATOM     10  C   UNL     1       1.306   5.217  20.562  0.00  0.00    +0.000 C 
ENDROOT
BRANCH   1  11
ATOM     11  C   UNL     1       4.623   3.717  17.274  0.00  0.00    +0.000 C 
BRANCH  11  17
ATOM     12  C   UNL     1       6.552   5.356  19.236  0.00  0.00    +0.000 C 
ATOM     13  C   UNL     1       6.206   5.658  17.821  0.00  0.00    +0.000 A 
ATOM     14  C   UNL     1       6.501   6.763  17.044  0.00  0.00    +0.000 A 
ATOM     15  N   UNL     1       5.952   6.608  15.806  0.00  0.00    +0.000 NA
ATOM     16  N   UNL     1       5.324   5.442  15.771  0.00  0.00    +0.000 NA
ATOM     17  N   UNL     1       5.453   4.865  16.980  0.00  0.00    +0.000 N 
ENDBRANCH  11  17
ENDBRANCH   1  11
BRANCH   7  18
ATOM     18  C   UNL     1       2.015   9.047  17.870  0.00  0.00    +0.000 C 
BRANCH  18  19
ATOM     19  C   UNL     1       0.780   9.790  18.273  0.00  0.00    +0.000 A 
ATOM     20  C   UNL     1      -0.557   9.659  17.970  0.00  0.00    +0.000 A 
ATOM     21  C   UNL     1      -1.322  10.809  18.388  0.00  0.00    +0.000 A 
ATOM     22  C   UNL     1      -0.558  11.760  19.004  0.00  0.00    +0.000 A 
ATOM     23  S   UNL     1       1.068  11.277  19.139  0.00  0.00    +0.000 S 
ENDBRANCH  18  19
ENDBRANCH   7  18
TORSDOF 4
ENDMDL
MODEL 9
REMARK VINA RESULT:      -6.9      1.986      2.399
REMARK  Name = 
REMARK  5 active torsions:
REMARK  status: ('A' for Active; 'I' for Inactive)
REMARK    1  A    between atoms: C_1  and  C_2
REMARK    2  A    between atoms: N_6  and  C_7
REMARK    3  A    between atoms: C_7  and  C_8
REMARK    4  A    between atoms: N_14  and  C_15
REMARK    5  A    between atoms: C_15  and  C_16
REMARK                            x       y       z     vdW  Elec       q    Type
REMARK                         _______ _______ _______ _____ _____    ______ ____
ROOT
ATOM      1  C   UNL     1       4.063   4.232  18.716  0.00  0.00    +0.000 A 
ATOM      2  N   UNL     1       3.648   3.092  19.361  0.00  0.00    +0.000 NA
ATOM      3  N   UNL     1       2.527   3.354  19.977  0.00  0.00    +0.000 NA
ATOM      4  N   UNL     1       2.308   4.672  19.848  0.00  0.00    +0.000 N 
ATOM      5  C   UNL     1       3.093   5.253  18.869  0.00  0.00    +0.000 A 
ATOM      6  C   UNL     1       2.761   6.550  18.100  0.00  0.00    +0.000 C 
ATOM      7  N   UNL     1       2.514   7.884  18.744  0.00  0.00    +0.000 NA
ATOM      8  C   UNL     1       1.659   7.951  19.947  0.00  0.00    +0.000 C 
ATOM      9  C   UNL     1       1.498   6.767  20.896  0.00  0.00    +0.000 C 
ATOM     10  C   UNL     1       1.547   5.250  20.914  0.00  0.00    +0.000 C 
ENDROOT
BRANCH   1  11
ATOM     11  C   UNL     1       5.399   4.107  18.100  0.00  0.00    +0.000 C 
BRANCH  11  17
ATOM     12  C   UNL     1       5.595   6.526  16.010  0.00  0.00    +0.000 C 
ATOM     13  C   UNL     1       6.405   6.301  17.237  0.00  0.00    +0.000 A 
ATOM     14  C   UNL     1       7.515   6.976  17.713  0.00  0.00    +0.000 A 
ATOM     15  N   UNL     1       7.937   6.395  18.871  0.00  0.00    +0.000 NA
ATOM     16  N   UNL     1       7.133   5.379  19.147  0.00  0.00    +0.000 NA
ATOM     17  N   UNL     1       6.215   5.299  18.167  0.00  0.00    +0.000 N 
ENDBRANCH  11  17
ENDBRANCH   1  11
BRANCH   7  18
ATOM     18  C   UNL     1       1.768   8.830  17.822  0.00  0.00    +0.000 C 
BRANCH  18  19
ATOM     19  C   UNL     1       0.833   9.917  18.254  0.00  0.00    +0.000 A 
ATOM     20  C   UNL     1      -0.535  10.064  18.236  0.00  0.00    +0.000 A 
ATOM     21  C   UNL     1      -0.937  11.425  18.499  0.00  0.00    +0.000 A 
ATOM     22  C   UNL     1       0.124  12.258  18.724  0.00  0.00    +0.000 A 
ATOM     23  S   UNL     1       1.606  11.423  18.675  0.00  0.00    +0.000 S 
ENDBRANCH  18  19
ENDBRANCH   7  18
TORSDOF 4
ENDMDL
