MODEL 1
REMARK VINA RESULT:      -5.5      0.000      0.000
REMARK  Name = 
REMARK  14 active torsions:
REMARK  status: ('A' for Active; 'I' for Inactive)
REMARK    1  A    between atoms: C_1  and  O_2
REMARK    2  A    between atoms: O_2  and  C_3
REMARK    3  A    between atoms: C_5  and  C_6
REMARK    4  A    between atoms: C_15  and  C_16
REMARK    5  A    between atoms: C_18  and  O_19
REMARK    6  A    between atoms: O_19  and  C_20
REMARK    7  A    between atoms: C_21  and  O_22
REMARK    8  A    between atoms: O_22  and  C_23
REMARK    9  A    between atoms: C_24  and  O_25
REMARK   10  A    between atoms: O_25  and  C_26
REMARK   11  A    between atoms: C_31  and  O_32
REMARK   12  A    between atoms: O_32  and  C_33
REMARK   13  A    between atoms: C_34  and  O_35
REMARK   14  A    between atoms: O_35  and  C_36
REMARK                            x       y       z     vdW  Elec       q    Type
REMARK                         _______ _______ _______ _____ _____    ______ ____
ROOT
ATOM      1  C   UNL     1      -2.910  13.106  24.156  0.00  0.00    +0.000 C 
ATOM      2  C   UNL     1      -4.314  12.697  24.365  0.00  0.00    +0.000 C 
ATOM      3  C   UNL     1      -4.040  14.161  23.976  0.00  0.00    +0.000 C 
ATOM      4  C   UNL     1      -3.683  15.344  24.863  0.00  0.00    +0.000 C 
ATOM      5  C   UNL     1      -4.532  16.619  24.762  0.00  0.00    +0.000 C 
ATOM      6  C   UNL     1      -4.634  17.227  23.355  0.00  0.00    +0.000 C 
ATOM      7  C   UNL     1      -5.831  16.711  22.548  0.00  0.00    +0.000 C 
ATOM      8  C   UNL     1      -6.009  15.210  22.724  0.00  0.00    +0.000 C 
ATOM      9  C   UNL     1      -7.305  14.906  23.401  0.00  0.00    +0.000 C 
ATOM     10  C   UNL     1      -7.135  14.301  22.068  0.00  0.00    +0.000 C 
ATOM     11  C   UNL     1      -4.713  14.466  22.682  0.00  0.00    +0.000 C 
ATOM     12  O   UNL     1      -4.219  14.207  21.597  0.00  0.00    +0.000 OA
ENDROOT
BRANCH   1  15
ATOM     13  C   UNL     1      -1.272  12.104  20.809  0.00  0.00    +0.000 A 
ATOM     14  C   UNL     1      -2.084  12.029  21.963  0.00  0.00    +0.000 A 
ATOM     15  C   UNL     1      -1.949  12.940  23.005  0.00  0.00    +0.000 A 
ATOM     16  C   UNL     1      -0.854  13.820  22.926  0.00  0.00    +0.000 A 
ATOM     17  C   UNL     1       0.036  13.848  21.831  0.00  0.00    +0.000 A 
ATOM     18  C   UNL     1      -0.176  12.985  20.743  0.00  0.00    +0.000 A 
BRANCH  13  20
ATOM     19  C   UNL     1      -2.598  11.810  18.888  0.00  0.00    +0.000 C 
ATOM     20  O   UNL     1      -1.561  11.308  19.727  0.00  0.00    +0.000 OA
ENDBRANCH  13  20
BRANCH  17  21
ATOM     21  O   UNL     1       1.009  14.798  22.009  0.00  0.00    +0.000 OA
ATOM     22  C   UNL     1       0.682  16.170  21.835  0.00  0.00    +0.000 C 
ENDBRANCH  17  21
BRANCH  18  23
ATOM     23  O   UNL     1       0.688  13.122  19.691  0.00  0.00    +0.000 OA
ATOM     24  C   UNL     1       0.419  14.044  18.646  0.00  0.00    +0.000 C 
ENDBRANCH  18  23
ENDBRANCH   1  15
BRANCH  10  25
ATOM     25  C   UNL     1      -7.255  14.599  20.594  0.00  0.00    +0.000 A 
ATOM     26  C   UNL     1      -7.202  13.469  19.749  0.00  0.00    +0.000 A 
ATOM     27  C   UNL     1      -7.069  13.549  18.366  0.00  0.00    +0.000 A 
ATOM     28  C   UNL     1      -6.964  14.811  17.769  0.00  0.00    +0.000 A 
ATOM     29  C   UNL     1      -7.034  15.966  18.577  0.00  0.00    +0.000 A 
ATOM     30  C   UNL     1      -7.222  15.849  19.971  0.00  0.00    +0.000 A 
BRANCH  27  31
ATOM     31  O   UNL     1      -6.963  12.438  17.563  0.00  0.00    +0.000 OA
ATOM     32  C   UNL     1      -6.819  11.192  18.236  0.00  0.00    +0.000 C 
ENDBRANCH  27  31
BRANCH  28  33
ATOM     33  O   UNL     1      -6.730  14.810  16.413  0.00  0.00    +0.000 OA
ATOM     34  C   UNL     1      -7.867  15.048  15.592  0.00  0.00    +0.000 C 
ENDBRANCH  28  33
BRANCH  29  35
ATOM     35  O   UNL     1      -6.792  17.172  17.967  0.00  0.00    +0.000 OA
ATOM     36  C   UNL     1      -6.403  18.252  18.801  0.00  0.00    +0.000 C 
ENDBRANCH  29  35
ENDBRANCH  10  25
TORSDOF 8
ENDMDL
MODEL 2
REMARK VINA RESULT:      -5.4      8.445     13.525
REMARK  Name = 
REMARK  14 active torsions:
REMARK  status: ('A' for Active; 'I' for Inactive)
REMARK    1  A    between atoms: C_1  and  O_2
REMARK    2  A    between atoms: O_2  and  C_3
REMARK    3  A    between atoms: C_5  and  C_6
REMARK    4  A    between atoms: C_15  and  C_16
REMARK    5  A    between atoms: C_18  and  O_19
REMARK    6  A    between atoms: O_19  and  C_20
REMARK    7  A    between atoms: C_21  and  O_22
REMARK    8  A    between atoms: O_22  and  C_23
REMARK    9  A    between atoms: C_24  and  O_25
REMARK   10  A    between atoms: O_25  and  C_26
REMARK   11  A    between atoms: C_31  and  O_32
REMARK   12  A    between atoms: O_32  and  C_33
REMARK   13  A    between atoms: C_34  and  O_35
REMARK   14  A    between atoms: O_35  and  C_36
REMARK                            x       y       z     vdW  Elec       q    Type
REMARK                         _______ _______ _______ _____ _____    ______ ____
ROOT
ATOM      1  C   UNL     1       7.633  13.742  17.304  0.00  0.00    +0.000 C 
ATOM      2  C   UNL     1       7.856  12.341  17.716  0.00  0.00    +0.000 C 
ATOM      3  C   UNL     1       8.771  13.422  18.317  0.00  0.00    +0.000 C 
ATOM      4  C   UNL     1      10.045  14.030  17.753  0.00  0.00    +0.000 C 
ATOM      5  C   UNL     1      11.309  14.024  18.624  0.00  0.00    +0.000 C 
ATOM      6  C   UNL     1      11.158  14.690  20.000  0.00  0.00    +0.000 C 
ATOM      7  C   UNL     1      10.736  13.719  21.109  0.00  0.00    +0.000 C 
ATOM      8  C   UNL     1       9.657  12.762  20.623  0.00  0.00    +0.000 C 
ATOM      9  C   UNL     1      10.157  11.354  20.629  0.00  0.00    +0.000 C 
ATOM     10  C   UNL     1       8.966  11.602  21.461  0.00  0.00    +0.000 C 
ATOM     11  C   UNL     1       8.612  13.441  19.799  0.00  0.00    +0.000 C 
ATOM     12  O   UNL     1       7.717  14.046  20.365  0.00  0.00    +0.000 OA
ENDROOT
BRANCH   1  15
ATOM     13  C   UNL     1       4.401  15.576  18.343  0.00  0.00    +0.000 A 
ATOM     14  C   UNL     1       5.249  14.636  17.716  0.00  0.00    +0.000 A 
ATOM     15  C   UNL     1       6.631  14.790  17.719  0.00  0.00    +0.000 A 
ATOM     16  C   UNL     1       7.121  16.012  18.219  0.00  0.00    +0.000 A 
ATOM     17  C   UNL     1       6.288  17.014  18.758  0.00  0.00    +0.000 A 
ATOM     18  C   UNL     1       4.902  16.797  18.835  0.00  0.00    +0.000 A 
BRANCH  13  20
ATOM     19  C   UNL     1       2.772  13.909  18.660  0.00  0.00    +0.000 C 
ATOM     20  O   UNL     1       3.064  15.293  18.481  0.00  0.00    +0.000 OA
ENDBRANCH  13  20
BRANCH  17  21
ATOM     21  O   UNL     1       7.021  18.096  19.173  0.00  0.00    +0.000 OA
ATOM     22  C   UNL     1       8.403  18.165  18.851  0.00  0.00    +0.000 C 
ENDBRANCH  17  21
BRANCH  18  23
ATOM     23  O   UNL     1       4.171  17.786  19.435  0.00  0.00    +0.000 OA
ATOM     24  C   UNL     1       3.991  17.804  20.842  0.00  0.00    +0.000 C 
ENDBRANCH  18  23
ENDBRANCH   1  15
BRANCH  10  25
ATOM     25  C   UNL     1       8.536  12.118  22.812  0.00  0.00    +0.000 A 
ATOM     26  C   UNL     1       7.266  11.677  23.244  0.00  0.00    +0.000 A 
ATOM     27  C   UNL     1       6.599  12.211  24.342  0.00  0.00    +0.000 A 
ATOM     28  C   UNL     1       7.202  13.254  25.058  0.00  0.00    +0.000 A 
ATOM     29  C   UNL     1       8.481  13.708  24.670  0.00  0.00    +0.000 A 
ATOM     30  C   UNL     1       9.151  13.108  23.582  0.00  0.00    +0.000 A 
BRANCH  27  31
ATOM     31  O   UNL     1       5.339  11.809  24.716  0.00  0.00    +0.000 OA
ATOM     32  C   UNL     1       5.276  10.712  25.622  0.00  0.00    +0.000 C 
ENDBRANCH  27  31
BRANCH  28  33
ATOM     33  O   UNL     1       6.441  13.802  26.065  0.00  0.00    +0.000 OA
ATOM     34  C   UNL     1       5.622  14.901  25.687  0.00  0.00    +0.000 C 
ENDBRANCH  28  33
BRANCH  29  35
ATOM     35  O   UNL     1       8.972  14.817  25.314  0.00  0.00    +0.000 OA
ATOM     36  C   UNL     1       9.063  16.015  24.558  0.00  0.00    +0.000 C 
ENDBRANCH  29  35
ENDBRANCH  10  25
TORSDOF 8
ENDMDL
MODEL 3
REMARK VINA RESULT:      -5.2      7.425     12.939
REMARK  Name = 
REMARK  14 active torsions:
REMARK  status: ('A' for Active; 'I' for Inactive)
REMARK    1  A    between atoms: C_1  and  O_2
REMARK    2  A    between atoms: O_2  and  C_3
REMARK    3  A    between atoms: C_5  and  C_6
REMARK    4  A    between atoms: C_15  and  C_16
REMARK    5  A    between atoms: C_18  and  O_19
REMARK    6  A    between atoms: O_19  and  C_20
REMARK    7  A    between atoms: C_21  and  O_22
REMARK    8  A    between atoms: O_22  and  C_23
REMARK    9  A    between atoms: C_24  and  O_25
REMARK   10  A    between atoms: O_25  and  C_26
REMARK   11  A    between atoms: C_31  and  O_32
REMARK   12  A    between atoms: O_32  and  C_33
REMARK   13  A    between atoms: C_34  and  O_35
REMARK   14  A    between atoms: O_35  and  C_36
REMARK                            x       y       z     vdW  Elec       q    Type
REMARK                         _______ _______ _______ _____ _____    ______ ____
ROOT
ATOM      1  C   UNL     1       4.880  15.989  23.560  0.00  0.00    +0.000 C 
ATOM      2  C   UNL     1       6.202  16.387  24.083  0.00  0.00    +0.000 C 
ATOM      3  C   UNL     1       5.965  14.896  23.785  0.00  0.00    +0.000 C 
ATOM      4  C   UNL     1       5.335  13.825  24.662  0.00  0.00    +0.000 C 
ATOM      5  C   UNL     1       6.117  12.528  24.911  0.00  0.00    +0.000 C 
ATOM      6  C   UNL     1       6.544  11.768  23.646  0.00  0.00    +0.000 C 
ATOM      7  C   UNL     1       7.931  12.167  23.128  0.00  0.00    +0.000 C 
ATOM      8  C   UNL     1       8.132  13.674  23.195  0.00  0.00    +0.000 C 
ATOM      9  C   UNL     1       9.227  14.020  24.151  0.00  0.00    +0.000 C 
ATOM     10  C   UNL     1       9.432  14.480  22.765  0.00  0.00    +0.000 C 
ATOM     11  C   UNL     1       6.929  14.437  22.745  0.00  0.00    +0.000 C 
ATOM     12  O   UNL     1       6.741  14.588  21.549  0.00  0.00    +0.000 OA
ENDROOT
BRANCH   1  15
ATOM     13  C   UNL     1       2.409  15.813  20.601  0.00  0.00    +0.000 A 
ATOM     14  C   UNL     1       3.025  15.505  21.834  0.00  0.00    +0.000 A 
ATOM     15  C   UNL     1       4.254  16.051  22.189  0.00  0.00    +0.000 A 
ATOM     16  C   UNL     1       4.925  16.776  21.187  0.00  0.00    +0.000 A 
ATOM     17  C   UNL     1       4.379  17.014  19.908  0.00  0.00    +0.000 A 
ATOM     18  C   UNL     1       3.092  16.536  19.604  0.00  0.00    +0.000 A 
BRANCH  13  20
ATOM     19  C   UNL     1       0.992  14.046  19.963  0.00  0.00    +0.000 C 
ATOM     20  O   UNL     1       1.117  15.407  20.370  0.00  0.00    +0.000 OA
ENDBRANCH  13  20
BRANCH  17  21
ATOM     21  O   UNL     1       5.238  17.746  19.131  0.00  0.00    +0.000 OA
ATOM     22  C   UNL     1       6.531  17.229  18.845  0.00  0.00    +0.000 C 
ENDBRANCH  17  21
BRANCH  18  23
ATOM     23  O   UNL     1       2.605  16.868  18.370  0.00  0.00    +0.000 OA
ATOM     24  C   UNL     1       3.072  16.210  17.204  0.00  0.00    +0.000 C 
ENDBRANCH  18  23
ENDBRANCH   1  15
BRANCH  10  25
ATOM     25  C   UNL     1       9.909  14.021  21.409  0.00  0.00    +0.000 A 
ATOM     26  C   UNL     1       9.808  14.984  20.383  0.00  0.00    +0.000 A 
ATOM     27  C   UNL     1       9.980  14.690  19.033  0.00  0.00    +0.000 A 
ATOM     28  C   UNL     1      10.253  13.368  18.659  0.00  0.00    +0.000 A 
ATOM     29  C   UNL     1      10.382  12.380  19.658  0.00  0.00    +0.000 A 
ATOM     30  C   UNL     1      10.253  12.724  21.021  0.00  0.00    +0.000 A 
BRANCH  27  31
ATOM     31  O   UNL     1       9.825  15.628  18.041  0.00  0.00    +0.000 OA
ATOM     32  C   UNL     1      10.785  16.680  18.019  0.00  0.00    +0.000 C 
ENDBRANCH  27  31
BRANCH  28  33
ATOM     33  O   UNL     1      10.307  13.133  17.304  0.00  0.00    +0.000 OA
ATOM     34  C   UNL     1      11.604  13.172  16.725  0.00  0.00    +0.000 C 
ENDBRANCH  28  33
BRANCH  29  35
ATOM     35  O   UNL     1      10.514  11.079  19.238  0.00  0.00    +0.000 OA
ATOM     36  C   UNL     1       9.350  10.268  19.271  0.00  0.00    +0.000 C 
ENDBRANCH  29  35
ENDBRANCH  10  25
TORSDOF 8
ENDMDL
MODEL 4
REMARK VINA RESULT:      -5.2      5.420      9.680
REMARK  Name = 
REMARK  14 active torsions:
REMARK  status: ('A' for Active; 'I' for Inactive)
REMARK    1  A    between atoms: C_1  and  O_2
REMARK    2  A    between atoms: O_2  and  C_3
REMARK    3  A    between atoms: C_5  and  C_6
REMARK    4  A    between atoms: C_15  and  C_16
REMARK    5  A    between atoms: C_18  and  O_19
REMARK    6  A    between atoms: O_19  and  C_20
REMARK    7  A    between atoms: C_21  and  O_22
REMARK    8  A    between atoms: O_22  and  C_23
REMARK    9  A    between atoms: C_24  and  O_25
REMARK   10  A    between atoms: O_25  and  C_26
REMARK   11  A    between atoms: C_31  and  O_32
REMARK   12  A    between atoms: O_32  and  C_33
REMARK   13  A    between atoms: C_34  and  O_35
REMARK   14  A    between atoms: O_35  and  C_36
REMARK                            x       y       z     vdW  Elec       q    Type
REMARK                         _______ _______ _______ _____ _____    ______ ____
ROOT
ATOM      1  C   UNL     1      -0.765  11.836  19.089  0.00  0.00    +0.000 C 
ATOM      2  C   UNL     1      -0.653  12.867  18.038  0.00  0.00    +0.000 C 
ATOM      3  C   UNL     1      -0.287  13.265  19.479  0.00  0.00    +0.000 C 
ATOM      4  C   UNL     1      -1.189  13.739  20.607  0.00  0.00    +0.000 C 
ATOM      5  C   UNL     1      -0.846  15.055  21.318  0.00  0.00    +0.000 C 
ATOM      6  C   UNL     1       0.566  15.125  21.918  0.00  0.00    +0.000 C 
ATOM      7  C   UNL     1       1.614  15.703  20.958  0.00  0.00    +0.000 C 
ATOM      8  C   UNL     1       1.430  15.160  19.549  0.00  0.00    +0.000 C 
ATOM      9  C   UNL     1       1.066  16.256  18.602  0.00  0.00    +0.000 C 
ATOM     10  C   UNL     1       2.299  15.520  18.269  0.00  0.00    +0.000 C 
ATOM     11  C   UNL     1       1.140  13.694  19.529  0.00  0.00    +0.000 C 
ATOM     12  O   UNL     1       2.068  12.909  19.633  0.00  0.00    +0.000 OA
ENDROOT
BRANCH   1  15
ATOM     13  C   UNL     1       0.965   9.021  21.082  0.00  0.00    +0.000 A 
ATOM     14  C   UNL     1       0.312  10.243  20.809  0.00  0.00    +0.000 A 
ATOM     15  C   UNL     1       0.122  10.688  19.505  0.00  0.00    +0.000 A 
ATOM     16  C   UNL     1       0.766   9.951  18.494  0.00  0.00    +0.000 A 
ATOM     17  C   UNL     1       1.513   8.781  18.749  0.00  0.00    +0.000 A 
ATOM     18  C   UNL     1       1.610   8.294  20.063  0.00  0.00    +0.000 A 
BRANCH  13  20
ATOM     19  C   UNL     1       0.216   9.306  23.294  0.00  0.00    +0.000 C 
ATOM     20  O   UNL     1       0.966   8.528  22.364  0.00  0.00    +0.000 OA
ENDBRANCH  13  20
BRANCH  17  21
ATOM     21  O   UNL     1       2.029   8.262  17.590  0.00  0.00    +0.000 OA
ATOM     22  C   UNL     1       3.379   7.818  17.567  0.00  0.00    +0.000 C 
ENDBRANCH  17  21
BRANCH  18  23
ATOM     23  O   UNL     1       2.291   7.117  20.218  0.00  0.00    +0.000 OA
ATOM     24  C   UNL     1       1.595   5.893  20.389  0.00  0.00    +0.000 C 
ENDBRANCH  18  23
ENDBRANCH   1  15
BRANCH  10  25
ATOM     25  C   UNL     1       3.770  15.439  18.595  0.00  0.00    +0.000 A 
ATOM     26  C   UNL     1       4.228  16.391  19.531  0.00  0.00    +0.000 A 
ATOM     27  C   UNL     1       5.575  16.628  19.792  0.00  0.00    +0.000 A 
ATOM     28  C   UNL     1       6.538  15.899  19.082  0.00  0.00    +0.000 A 
ATOM     29  C   UNL     1       6.120  14.923  18.153  0.00  0.00    +0.000 A 
ATOM     30  C   UNL     1       4.745  14.673  17.952  0.00  0.00    +0.000 A 
BRANCH  27  31
ATOM     31  O   UNL     1       6.005  17.597  20.666  0.00  0.00    +0.000 OA
ATOM     32  C   UNL     1       5.072  18.630  20.963  0.00  0.00    +0.000 C 
ENDBRANCH  27  31
BRANCH  28  33
ATOM     33  O   UNL     1       7.846  16.258  19.315  0.00  0.00    +0.000 OA
ATOM     34  C   UNL     1       8.431  17.113  18.341  0.00  0.00    +0.000 C 
ENDBRANCH  28  33
BRANCH  29  35
ATOM     35  O   UNL     1       7.093  14.331  17.386  0.00  0.00    +0.000 OA
ATOM     36  C   UNL     1       7.684  13.145  17.894  0.00  0.00    +0.000 C 
ENDBRANCH  29  35
ENDBRANCH  10  25
TORSDOF 8
ENDMDL
MODEL 5
REMARK VINA RESULT:      -5.2      1.505      2.042
REMARK  Name = 
REMARK  14 active torsions:
REMARK  status: ('A' for Active; 'I' for Inactive)
REMARK    1  A    between atoms: C_1  and  O_2
REMARK    2  A    between atoms: O_2  and  C_3
REMARK    3  A    between atoms: C_5  and  C_6
REMARK    4  A    between atoms: C_15  and  C_16
REMARK    5  A    between atoms: C_18  and  O_19
REMARK    6  A    between atoms: O_19  and  C_20
REMARK    7  A    between atoms: C_21  and  O_22
REMARK    8  A    between atoms: O_22  and  C_23
REMARK    9  A    between atoms: C_24  and  O_25
REMARK   10  A    between atoms: O_25  and  C_26
REMARK   11  A    between atoms: C_31  and  O_32
REMARK   12  A    between atoms: O_32  and  C_33
REMARK   13  A    between atoms: C_34  and  O_35
REMARK   14  A    between atoms: O_35  and  C_36
REMARK                            x       y       z     vdW  Elec       q    Type
REMARK                         _______ _______ _______ _____ _____    ______ ____
ROOT
ATOM      1  C   UNL     1      -1.767  14.559  24.256  0.00  0.00    +0.000 C 
ATOM      2  C   UNL     1      -3.072  14.333  24.910  0.00  0.00    +0.000 C 
ATOM      3  C   UNL     1      -2.997  15.400  23.804  0.00  0.00    +0.000 C 
ATOM      4  C   UNL     1      -2.589  16.862  23.901  0.00  0.00    +0.000 C 
ATOM      5  C   UNL     1      -3.547  17.928  23.351  0.00  0.00    +0.000 C 
ATOM      6  C   UNL     1      -3.948  17.751  21.879  0.00  0.00    +0.000 C 
ATOM      7  C   UNL     1      -5.221  16.919  21.685  0.00  0.00    +0.000 C 
ATOM      8  C   UNL     1      -5.237  15.712  22.611  0.00  0.00    +0.000 C 
ATOM      9  C   UNL     1      -6.363  15.809  23.589  0.00  0.00    +0.000 C 
ATOM     10  C   UNL     1      -6.381  14.615  22.725  0.00  0.00    +0.000 C 
ATOM     11  C   UNL     1      -3.912  15.026  22.689  0.00  0.00    +0.000 C 
ATOM     12  O   UNL     1      -3.598  14.250  21.802  0.00  0.00    +0.000 OA
ENDROOT
BRANCH   1  15
ATOM     13  C   UNL     1      -0.501  11.873  21.792  0.00  0.00    +0.000 A 
ATOM     14  C   UNL     1      -1.038  12.448  22.966  0.00  0.00    +0.000 A 
ATOM     15  C   UNL     1      -1.016  13.823  23.175  0.00  0.00    +0.000 A 
ATOM     16  C   UNL     1      -0.277  14.583  22.248  0.00  0.00    +0.000 A 
ATOM     17  C   UNL     1       0.357  14.021  21.121  0.00  0.00    +0.000 A 
ATOM     18  C   UNL     1       0.240  12.642  20.875  0.00  0.00    +0.000 A 
BRANCH  13  20
ATOM     19  C   UNL     1      -0.584   9.695  22.680  0.00  0.00    +0.000 C 
ATOM     20  O   UNL     1      -0.710  10.539  21.538  0.00  0.00    +0.000 OA
ENDBRANCH  13  20
BRANCH  17  21
ATOM     21  O   UNL     1       1.003  14.981  20.386  0.00  0.00    +0.000 OA
ATOM     22  C   UNL     1       2.371  15.260  20.652  0.00  0.00    +0.000 C 
ENDBRANCH  17  21
BRANCH  18  23
ATOM     23  O   UNL     1       0.823  12.186  19.724  0.00  0.00    +0.000 OA
ATOM     24  C   UNL     1       0.098  12.154  18.506  0.00  0.00    +0.000 C 
ENDBRANCH  18  23
ENDBRANCH   1  15
BRANCH  10  25
ATOM     25  C   UNL     1      -6.786  14.135  21.353  0.00  0.00    +0.000 A 
ATOM     26  C   UNL     1      -6.984  12.742  21.241  0.00  0.00    +0.000 A 
ATOM     27  C   UNL     1      -7.137  12.083  20.024  0.00  0.00    +0.000 A 
ATOM     28  C   UNL     1      -7.077  12.828  18.840  0.00  0.00    +0.000 A 
ATOM     29  C   UNL     1      -6.900  14.226  18.911  0.00  0.00    +0.000 A 
ATOM     30  C   UNL     1      -6.801  14.869  20.164  0.00  0.00    +0.000 A 
BRANCH  27  31
ATOM     31  O   UNL     1      -7.275  10.719  19.929  0.00  0.00    +0.000 OA
ATOM     32  C   UNL     1      -7.915  10.077  21.027  0.00  0.00    +0.000 C 
ENDBRANCH  27  31
BRANCH  28  33
ATOM     33  O   UNL     1      -7.131  12.097  17.675  0.00  0.00    +0.000 OA
ATOM     34  C   UNL     1      -5.874  11.773  17.094  0.00  0.00    +0.000 C 
ENDBRANCH  28  33
BRANCH  29  35
ATOM     35  O   UNL     1      -6.712  14.894  17.726  0.00  0.00    +0.000 OA
ATOM     36  C   UNL     1      -6.909  16.299  17.738  0.00  0.00    +0.000 C 
ENDBRANCH  29  35
ENDBRANCH  10  25
TORSDOF 8
ENDMDL
MODEL 6
REMARK VINA RESULT:      -5.2      7.360     11.485
REMARK  Name = 
REMARK  14 active torsions:
REMARK  status: ('A' for Active; 'I' for Inactive)
REMARK    1  A    between atoms: C_1  and  O_2
REMARK    2  A    between atoms: O_2  and  C_3
REMARK    3  A    between atoms: C_5  and  C_6
REMARK    4  A    between atoms: C_15  and  C_16
REMARK    5  A    between atoms: C_18  and  O_19
REMARK    6  A    between atoms: O_19  and  C_20
REMARK    7  A    between atoms: C_21  and  O_22
REMARK    8  A    between atoms: O_22  and  C_23
REMARK    9  A    between atoms: C_24  and  O_25
REMARK   10  A    between atoms: O_25  and  C_26
REMARK   11  A    between atoms: C_31  and  O_32
REMARK   12  A    between atoms: O_32  and  C_33
REMARK   13  A    between atoms: C_34  and  O_35
REMARK   14  A    between atoms: O_35  and  C_36
REMARK                            x       y       z     vdW  Elec       q    Type
REMARK                         _______ _______ _______ _____ _____    ______ ____
ROOT
ATOM      1  C   UNL     1       9.431  13.446  22.452  0.00  0.00    +0.000 C 
ATOM      2  C   UNL     1       8.291  12.833  23.163  0.00  0.00    +0.000 C 
ATOM      3  C   UNL     1       8.361  14.369  23.103  0.00  0.00    +0.000 C 
ATOM      4  C   UNL     1       9.107  15.337  24.008  0.00  0.00    +0.000 C 
ATOM      5  C   UNL     1       8.324  16.488  24.655  0.00  0.00    +0.000 C 
ATOM      6  C   UNL     1       7.572  17.401  23.675  0.00  0.00    +0.000 C 
ATOM      7  C   UNL     1       6.131  16.955  23.401  0.00  0.00    +0.000 C 
ATOM      8  C   UNL     1       6.044  15.446  23.228  0.00  0.00    +0.000 C 
ATOM      9  C   UNL     1       5.221  14.835  24.315  0.00  0.00    +0.000 C 
ATOM     10  C   UNL     1       4.733  14.594  22.945  0.00  0.00    +0.000 C 
ATOM     11  C   UNL     1       7.157  14.895  22.398  0.00  0.00    +0.000 C 
ATOM     12  O   UNL     1       7.075  14.966  21.182  0.00  0.00    +0.000 OA
ENDROOT
BRANCH   1  15
ATOM     13  C   UNL     1      10.874  14.772  19.128  0.00  0.00    +0.000 A 
ATOM     14  C   UNL     1      10.437  14.756  20.471  0.00  0.00    +0.000 A 
ATOM     15  C   UNL     1       9.729  13.678  20.991  0.00  0.00    +0.000 A 
ATOM     16  C   UNL     1       9.322  12.697  20.069  0.00  0.00    +0.000 A 
ATOM     17  C   UNL     1       9.656  12.739  18.699  0.00  0.00    +0.000 A 
ATOM     18  C   UNL     1      10.456  13.787  18.212  0.00  0.00    +0.000 A 
BRANCH  13  20
ATOM     19  C   UNL     1      11.076  16.944  18.246  0.00  0.00    +0.000 C 
ATOM     20  O   UNL     1      11.728  15.763  18.707  0.00  0.00    +0.000 OA
ENDBRANCH  13  20
BRANCH  17  21
ATOM     21  O   UNL     1       9.136  11.662  18.029  0.00  0.00    +0.000 OA
ATOM     22  C   UNL     1       9.126  10.388  18.660  0.00  0.00    +0.000 C 
ENDBRANCH  17  21
BRANCH  18  23
ATOM     23  O   UNL     1      10.796  13.718  16.889  0.00  0.00    +0.000 OA
ATOM     24  C   UNL     1      12.041  13.172  16.487  0.00  0.00    +0.000 C 
ENDBRANCH  18  23
ENDBRANCH   1  15
BRANCH  10  25
ATOM     25  C   UNL     1       3.931  15.223  21.832  0.00  0.00    +0.000 A 
ATOM     26  C   UNL     1       2.892  16.080  22.255  0.00  0.00    +0.000 A 
ATOM     27  C   UNL     1       1.906  16.572  21.403  0.00  0.00    +0.000 A 
ATOM     28  C   UNL     1       1.927  16.191  20.055  0.00  0.00    +0.000 A 
ATOM     29  C   UNL     1       2.962  15.352  19.590  0.00  0.00    +0.000 A 
ATOM     30  C   UNL     1       3.974  14.914  20.471  0.00  0.00    +0.000 A 
BRANCH  27  31
ATOM     31  O   UNL     1       0.870  17.360  21.841  0.00  0.00    +0.000 OA
ATOM     32  C   UNL     1       1.233  18.631  22.373  0.00  0.00    +0.000 C 
ENDBRANCH  27  31
BRANCH  28  33
ATOM     33  O   UNL     1       0.865  16.630  19.297  0.00  0.00    +0.000 OA
ATOM     34  C   UNL     1       1.073  17.850  18.598  0.00  0.00    +0.000 C 
ENDBRANCH  28  33
BRANCH  29  35
ATOM     35  O   UNL     1       2.865  14.898  18.298  0.00  0.00    +0.000 OA
ATOM     36  C   UNL     1       3.641  15.568  17.317  0.00  0.00    +0.000 C 
ENDBRANCH  29  35
ENDBRANCH  10  25
TORSDOF 8
ENDMDL
MODEL 7
REMARK VINA RESULT:      -5.1      4.871      8.811
REMARK  Name = 
REMARK  14 active torsions:
REMARK  status: ('A' for Active; 'I' for Inactive)
REMARK    1  A    between atoms: C_1  and  O_2
REMARK    2  A    between atoms: O_2  and  C_3
REMARK    3  A    between atoms: C_5  and  C_6
REMARK    4  A    between atoms: C_15  and  C_16
REMARK    5  A    between atoms: C_18  and  O_19
REMARK    6  A    between atoms: O_19  and  C_20
REMARK    7  A    between atoms: C_21  and  O_22
REMARK    8  A    between atoms: O_22  and  C_23
REMARK    9  A    between atoms: C_24  and  O_25
REMARK   10  A    between atoms: O_25  and  C_26
REMARK   11  A    between atoms: C_31  and  O_32
REMARK   12  A    between atoms: O_32  and  C_33
REMARK   13  A    between atoms: C_34  and  O_35
REMARK   14  A    between atoms: O_35  and  C_36
REMARK                            x       y       z     vdW  Elec       q    Type
REMARK                         _______ _______ _______ _____ _____    ______ ____
ROOT
ATOM      1  C   UNL     1       5.687  15.948  21.580  0.00  0.00    +0.000 C 
ATOM      2  C   UNL     1       4.677  16.997  21.333  0.00  0.00    +0.000 C 
ATOM      3  C   UNL     1       4.636  15.736  20.453  0.00  0.00    +0.000 C 
ATOM      4  C   UNL     1       5.410  15.421  19.183  0.00  0.00    +0.000 C 
ATOM      5  C   UNL     1       4.628  14.991  17.934  0.00  0.00    +0.000 C 
ATOM      6  C   UNL     1       3.712  13.772  18.122  0.00  0.00    +0.000 C 
ATOM      7  C   UNL     1       2.283  14.135  18.542  0.00  0.00    +0.000 C 
ATOM      8  C   UNL     1       2.280  15.238  19.591  0.00  0.00    +0.000 C 
ATOM      9  C   UNL     1       1.625  16.472  19.060  0.00  0.00    +0.000 C 
ATOM     10  C   UNL     1       1.006  15.901  20.270  0.00  0.00    +0.000 C 
ATOM     11  C   UNL     1       3.329  15.043  20.636  0.00  0.00    +0.000 C 
ATOM     12  O   UNL     1       3.108  14.269  21.554  0.00  0.00    +0.000 OA
ENDROOT
BRANCH   1  15
ATOM     13  C   UNL     1       6.760  12.805  23.544  0.00  0.00    +0.000 A 
ATOM     14  C   UNL     1       6.502  13.661  22.451  0.00  0.00    +0.000 A 
ATOM     15  C   UNL     1       5.805  14.854  22.612  0.00  0.00    +0.000 A 
ATOM     16  C   UNL     1       5.224  15.070  23.875  0.00  0.00    +0.000 A 
ATOM     17  C   UNL     1       5.379  14.181  24.959  0.00  0.00    +0.000 A 
ATOM     18  C   UNL     1       6.169  13.029  24.803  0.00  0.00    +0.000 A 
BRANCH  13  20
ATOM     19  C   UNL     1       8.374  11.773  22.178  0.00  0.00    +0.000 C 
ATOM     20  O   UNL     1       7.609  11.737  23.381  0.00  0.00    +0.000 OA
ENDBRANCH  13  20
BRANCH  17  21
ATOM     21  O   UNL     1       4.713  14.632  26.069  0.00  0.00    +0.000 OA
ATOM     22  C   UNL     1       5.206  15.771  26.762  0.00  0.00    +0.000 C 
ENDBRANCH  17  21
BRANCH  18  23
ATOM     23  O   UNL     1       6.329  12.255  25.919  0.00  0.00    +0.000 OA
ATOM     24  C   UNL     1       7.337  12.552  26.871  0.00  0.00    +0.000 C 
ENDBRANCH  18  23
ENDBRANCH   1  15
BRANCH  10  25
ATOM     25  C   UNL     1       0.045  14.835  20.734  0.00  0.00    +0.000 A 
ATOM     26  C   UNL     1      -0.238  14.845  22.117  0.00  0.00    +0.000 A 
ATOM     27  C   UNL     1      -0.912  13.818  22.772  0.00  0.00    +0.000 A 
ATOM     28  C   UNL     1      -1.324  12.702  22.033  0.00  0.00    +0.000 A 
ATOM     29  C   UNL     1      -1.079  12.664  20.644  0.00  0.00    +0.000 A 
ATOM     30  C   UNL     1      -0.438  13.746  20.004  0.00  0.00    +0.000 A 
BRANCH  27  31
ATOM     31  O   UNL     1      -1.131  13.818  24.129  0.00  0.00    +0.000 OA
ATOM     32  C   UNL     1      -1.209  15.098  24.750  0.00  0.00    +0.000 C 
ENDBRANCH  27  31
BRANCH  28  33
ATOM     33  O   UNL     1      -1.890  11.682  22.764  0.00  0.00    +0.000 OA
ATOM     34  C   UNL     1      -1.013  10.621  23.119  0.00  0.00    +0.000 C 
ENDBRANCH  28  33
BRANCH  29  35
ATOM     35  O   UNL     1      -1.378  11.495  19.989  0.00  0.00    +0.000 OA
ATOM     36  C   UNL     1      -0.294  10.775  19.423  0.00  0.00    +0.000 C 
ENDBRANCH  29  35
ENDBRANCH  10  25
TORSDOF 8
ENDMDL
MODEL 8
REMARK VINA RESULT:      -5.1      5.228     11.397
REMARK  Name = 
REMARK  14 active torsions:
REMARK  status: ('A' for Active; 'I' for Inactive)
REMARK    1  A    between atoms: C_1  and  O_2
REMARK    2  A    between atoms: O_2  and  C_3
REMARK    3  A    between atoms: C_5  and  C_6
REMARK    4  A    between atoms: C_15  and  C_16
REMARK    5  A    between atoms: C_18  and  O_19
REMARK    6  A    between atoms: O_19  and  C_20
REMARK    7  A    between atoms: C_21  and  O_22
REMARK    8  A    between atoms: O_22  and  C_23
REMARK    9  A    between atoms: C_24  and  O_25
REMARK   10  A    between atoms: O_25  and  C_26
REMARK   11  A    between atoms: C_31  and  O_32
REMARK   12  A    between atoms: O_32  and  C_33
REMARK   13  A    between atoms: C_34  and  O_35
REMARK   14  A    between atoms: O_35  and  C_36
REMARK                            x       y       z     vdW  Elec       q    Type
REMARK                         _______ _______ _______ _____ _____    ______ ____
ROOT
ATOM      1  C   UNL     1       1.856  14.031  18.929  0.00  0.00    +0.000 C 
ATOM      2  C   UNL     1       3.217  14.121  18.362  0.00  0.00    +0.000 C 
ATOM      3  C   UNL     1       2.861  15.057  19.531  0.00  0.00    +0.000 C 
ATOM      4  C   UNL     1       2.173  16.413  19.506  0.00  0.00    +0.000 C 
ATOM      5  C   UNL     1       2.860  17.597  20.200  0.00  0.00    +0.000 C 
ATOM      6  C   UNL     1       3.199  17.379  21.682  0.00  0.00    +0.000 C 
ATOM      7  C   UNL     1       4.599  16.800  21.915  0.00  0.00    +0.000 C 
ATOM      8  C   UNL     1       4.915  15.702  20.910  0.00  0.00    +0.000 C 
ATOM      9  C   UNL     1       6.056  16.100  20.031  0.00  0.00    +0.000 C 
ATOM     10  C   UNL     1       6.262  14.864  20.808  0.00  0.00    +0.000 C 
ATOM     11  C   UNL     1       3.763  14.778  20.684  0.00  0.00    +0.000 C 
ATOM     12  O   UNL     1       3.559  13.883  21.488  0.00  0.00    +0.000 OA
ENDROOT
BRANCH   1  15
ATOM     13  C   UNL     1      -0.365  12.470  21.671  0.00  0.00    +0.000 A 
ATOM     14  C   UNL     1       0.393  13.432  20.967  0.00  0.00    +0.000 A 
ATOM     15  C   UNL     1       1.204  13.074  19.895  0.00  0.00    +0.000 A 
ATOM     16  C   UNL     1       1.365  11.694  19.669  0.00  0.00    +0.000 A 
ATOM     17  C   UNL     1       0.699  10.706  20.424  0.00  0.00    +0.000 A 
ATOM     18  C   UNL     1      -0.193  11.092  21.439  0.00  0.00    +0.000 A 
BRANCH  13  20
ATOM     19  C   UNL     1      -2.502  13.386  22.029  0.00  0.00    +0.000 C 
ATOM     20  O   UNL     1      -1.293  12.886  22.594  0.00  0.00    +0.000 OA
ENDBRANCH  13  20
BRANCH  17  21
ATOM     21  O   UNL     1       1.032   9.447  19.994  0.00  0.00    +0.000 OA
ATOM     22  C   UNL     1       1.390   9.248  18.633  0.00  0.00    +0.000 C 
ENDBRANCH  17  21
BRANCH  18  23
ATOM     23  O   UNL     1      -0.852  10.077  22.077  0.00  0.00    +0.000 OA
ATOM     24  C   UNL     1      -0.360   9.546  23.296  0.00  0.00    +0.000 C 
ENDBRANCH  18  23
ENDBRANCH   1  15
BRANCH  10  25
ATOM     25  C   UNL     1       6.670  14.361  22.170  0.00  0.00    +0.000 A 
ATOM     26  C   UNL     1       7.614  15.164  22.846  0.00  0.00    +0.000 A 
ATOM     27  C   UNL     1       8.281  14.761  24.000  0.00  0.00    +0.000 A 
ATOM     28  C   UNL     1       8.022  13.487  24.520  0.00  0.00    +0.000 A 
ATOM     29  C   UNL     1       7.069  12.662  23.885  0.00  0.00    +0.000 A 
ATOM     30  C   UNL     1       6.373  13.123  22.746  0.00  0.00    +0.000 A 
BRANCH  27  31
ATOM     31  O   UNL     1       9.238  15.533  24.614  0.00  0.00    +0.000 OA
ATOM     32  C   UNL     1       8.858  16.870  24.925  0.00  0.00    +0.000 C 
ENDBRANCH  27  31
BRANCH  28  33
ATOM     33  O   UNL     1       8.792  13.117  25.599  0.00  0.00    +0.000 OA
ATOM     34  C   UNL     1       8.250  13.428  26.876  0.00  0.00    +0.000 C 
ENDBRANCH  28  33
BRANCH  29  35
ATOM     35  O   UNL     1       6.947  11.376  24.349  0.00  0.00    +0.000 OA
ATOM     36  C   UNL     1       5.859  11.102  25.217  0.00  0.00    +0.000 C 
ENDBRANCH  29  35
ENDBRANCH  10  25
TORSDOF 8
ENDMDL
MODEL 9
REMARK VINA RESULT:      -5.1      3.435      6.164
REMARK  Name = 
REMARK  14 active torsions:
REMARK  status: ('A' for Active; 'I' for Inactive)
REMARK    1  A    between atoms: C_1  and  O_2
REMARK    2  A    between atoms: O_2  and  C_3
REMARK    3  A    between atoms: C_5  and  C_6
REMARK    4  A    between atoms: C_15  and  C_16
REMARK    5  A    between atoms: C_18  and  O_19
REMARK    6  A    between atoms: O_19  and  C_20
REMARK    7  A    between atoms: C_21  and  O_22
REMARK    8  A    between atoms: O_22  and  C_23
REMARK    9  A    between atoms: C_24  and  O_25
REMARK   10  A    between atoms: O_25  and  C_26
REMARK   11  A    between atoms: C_31  and  O_32
REMARK   12  A    between atoms: O_32  and  C_33
REMARK   13  A    between atoms: C_34  and  O_35
REMARK   14  A    between atoms: O_35  and  C_36
REMARK                            x       y       z     vdW  Elec       q    Type
REMARK                         _______ _______ _______ _____ _____    ______ ____
ROOT
ATOM      1  C   UNL     1       1.022  13.099  18.706  0.00  0.00    +0.000 C 
ATOM      2  C   UNL     1      -0.357  13.016  18.183  0.00  0.00    +0.000 C 
ATOM      3  C   UNL     1      -0.111  12.579  19.638  0.00  0.00    +0.000 C 
ATOM      4  C   UNL     1       0.345  11.233  20.176  0.00  0.00    +0.000 C 
ATOM      5  C   UNL     1      -0.498  10.554  21.265  0.00  0.00    +0.000 C 
ATOM      6  C   UNL     1      -0.737  11.397  22.527  0.00  0.00    +0.000 C 
ATOM      7  C   UNL     1      -2.015  12.243  22.468  0.00  0.00    +0.000 C 
ATOM      8  C   UNL     1      -2.187  12.886  21.100  0.00  0.00    +0.000 C 
ATOM      9  C   UNL     1      -3.411  12.364  20.420  0.00  0.00    +0.000 C 
ATOM     10  C   UNL     1      -3.383  13.822  20.632  0.00  0.00    +0.000 C 
ATOM     11  C   UNL     1      -0.910  13.439  20.557  0.00  0.00    +0.000 C 
ATOM     12  O   UNL     1      -0.531  14.533  20.943  0.00  0.00    +0.000 OA
ENDROOT
BRANCH   1  15
ATOM     13  C   UNL     1       3.729  15.206  20.472  0.00  0.00    +0.000 A 
ATOM     14  C   UNL     1       2.834  14.144  20.215  0.00  0.00    +0.000 A 
ATOM     15  C   UNL     1       1.858  14.241  19.229  0.00  0.00    +0.000 A 
ATOM     16  C   UNL     1       1.699  15.505  18.631  0.00  0.00    +0.000 A 
ATOM     17  C   UNL     1       2.513  16.614  18.943  0.00  0.00    +0.000 A 
ATOM     18  C   UNL     1       3.557  16.468  19.872  0.00  0.00    +0.000 A 
BRANCH  13  20
ATOM     19  C   UNL     1       4.450  14.993  22.702  0.00  0.00    +0.000 C 
ATOM     20  O   UNL     1       4.793  15.003  21.318  0.00  0.00    +0.000 OA
ENDBRANCH  13  20
BRANCH  17  21
ATOM     21  O   UNL     1       2.145  17.718  18.217  0.00  0.00    +0.000 OA
ATOM     22  C   UNL     1       0.777  17.906  17.883  0.00  0.00    +0.000 C 
ENDBRANCH  17  21
BRANCH  18  23
ATOM     23  O   UNL     1       4.345  17.569  20.067  0.00  0.00    +0.000 OA
ATOM     24  C   UNL     1       4.068  18.484  21.115  0.00  0.00    +0.000 C 
ENDBRANCH  18  23
ENDBRANCH   1  15
BRANCH  10  25
ATOM     25  C   UNL     1      -3.650  14.887  21.668  0.00  0.00    +0.000 A 
ATOM     26  C   UNL     1      -4.822  14.697  22.432  0.00  0.00    +0.000 A 
ATOM     27  C   UNL     1      -5.359  15.670  23.270  0.00  0.00    +0.000 A 
ATOM     28  C   UNL     1      -4.721  16.913  23.358  0.00  0.00    +0.000 A 
ATOM     29  C   UNL     1      -3.535  17.134  22.626  0.00  0.00    +0.000 A 
ATOM     30  C   UNL     1      -2.989  16.107  21.826  0.00  0.00    +0.000 A 
BRANCH  27  31
ATOM     31  O   UNL     1      -6.532  15.489  23.964  0.00  0.00    +0.000 OA
ATOM     32  C   UNL     1      -7.021  14.153  24.028  0.00  0.00    +0.000 C 
ENDBRANCH  27  31
BRANCH  28  33
ATOM     33  O   UNL     1      -5.365  17.859  24.123  0.00  0.00    +0.000 OA
ATOM     34  C   UNL     1      -4.863  18.027  25.443  0.00  0.00    +0.000 C 
ENDBRANCH  28  33
BRANCH  29  35
ATOM     35  O   UNL     1      -3.021  18.407  22.638  0.00  0.00    +0.000 OA
ATOM     36  C   UNL     1      -1.635  18.548  22.367  0.00  0.00    +0.000 C 
ENDBRANCH  29  35
ENDBRANCH  10  25
TORSDOF 8
ENDMDL
