MODEL 1
REMARK VINA RESULT:      -7.0      0.000      0.000
REMARK  Name = 
REMARK  9 active torsions:
REMARK  status: ('A' for Active; 'I' for Inactive)
REMARK    1  A    between atoms: C_1  and  O_2
REMARK    2  A    between atoms: O_2  and  C_3
REMARK    3  A    between atoms: C_6  and  C_7
REMARK    4  A    between atoms: C_15  and  C_16
REMARK    5  A    between atoms: N_18  and  C_19
REMARK    6  A    between atoms: C_19  and  C_20
REMARK    7  A    between atoms: C_20  and  C_21
REMARK    8  A    between atoms: C_21  and  N_22
REMARK    9  A    between atoms: N_25  and  C_26
REMARK                            x       y       z     vdW  Elec       q    Type
REMARK                         _______ _______ _______ _____ _____    ______ ____
ROOT
ATOM      1  C   UNL     1       1.831   9.214  18.232  0.00  0.00    +0.000 A 
ATOM      2  C   UNL     1       0.438   9.365  18.627  0.00  0.00    +0.000 A 
ATOM      3  N   UNL     1      -0.329  10.522  18.274  0.00  0.00    +0.000 N 
ATOM      4  C   UNL     1      -1.668  10.654  18.635  0.00  0.00    +0.000 A 
ATOM      5  N   UNL     1       2.394  10.255  17.538  0.00  0.00    +0.000 NA
ATOM      6  S   UNL     1      -2.496  12.126  18.336  0.00  0.00    +0.000 S 
ATOM      7  C   UNL     1      -2.508  11.160  16.498  0.00  0.00    +0.000 A 
ATOM      8  C   UNL     1      -4.064  11.610  16.342  0.00  0.00    +0.000 A 
ATOM      9  C   UNL     1      -5.097  11.324  17.268  0.00  0.00    +0.000 A 
ATOM     10  C   UNL     1      -4.674  10.186  18.065  0.00  0.00    +0.000 A 
ATOM     11  C   UNL     1      -3.234   9.381  17.912  0.00  0.00    +0.000 A 
ATOM     12  C   UNL     1      -1.795   9.998  17.196  0.00  0.00    +0.000 A 
ENDROOT
BRANCH   1  16
ATOM     13  C   UNL     1       3.912   5.548  18.995  0.00  0.00    +0.000 A 
ATOM     14  C   UNL     1       2.914   5.991  19.852  0.00  0.00    +0.000 A 
ATOM     15  C   UNL     1       2.212   7.181  19.585  0.00  0.00    +0.000 A 
ATOM     16  C   UNL     1       2.508   7.971  18.452  0.00  0.00    +0.000 A 
ATOM     17  C   UNL     1       3.529   7.511  17.597  0.00  0.00    +0.000 A 
ATOM     18  C   UNL     1       4.262   6.336  17.857  0.00  0.00    +0.000 A 
BRANCH  13  20
ATOM     19  C   UNL     1       4.876   3.505  18.303  0.00  0.00    +0.000 C 
ATOM     20  O   UNL     1       4.525   4.382  19.357  0.00  0.00    +0.000 OA
ENDBRANCH  13  20
ENDBRANCH   1  16
BRANCH   9  21
ATOM     21  C   UNL     1      -6.355  12.405  17.615  0.00  0.00    +0.000 C 
ATOM     22  O   UNL     1      -7.234  12.060  18.412  0.00  0.00    +0.000 OA
ATOM     23  N   UNL     1      -6.397  13.742  17.045  0.00  0.00    +0.000 N 
ATOM     24  H   UNL     1      -5.572  13.997  16.533  0.00  0.00    +0.000 HD
BRANCH  23  25
ATOM     25  C   UNL     1      -7.238  14.996  17.472  0.00  0.00    +0.000 C 
BRANCH  25  26
ATOM     26  C   UNL     1      -7.333  15.459  19.022  0.00  0.00    +0.000 C 
BRANCH  26  27
ATOM     27  C   UNL     1      -5.987  15.728  19.754  0.00  0.00    +0.000 C 
BRANCH  27  28
ATOM     28  N   UNL     1      -5.892  15.521  21.243  0.00  0.00    +0.000 NA
ATOM     29  C   UNL     1      -5.407  14.187  21.692  0.00  0.00    +0.000 C 
ATOM     30  C   UNL     1      -5.510  13.963  23.248  0.00  0.00    +0.000 C 
ATOM     31  N   UNL     1      -6.818  14.237  23.874  0.00  0.00    +0.000 NA
ATOM     32  C   UNL     1      -7.776  13.149  23.695  0.00  0.00    +0.000 C 
ATOM     33  C   UNL     1      -7.325  15.523  23.374  0.00  0.00    +0.000 C 
ATOM     34  C   UNL     1      -7.249  15.707  21.835  0.00  0.00    +0.000 C 
ENDBRANCH  27  28
ENDBRANCH  26  27
ENDBRANCH  25  26
ENDBRANCH  23  25
ENDBRANCH   9  21
TORSDOF 7
ENDMDL
MODEL 2
REMARK VINA RESULT:      -6.8      4.325      5.938
REMARK  Name = 
REMARK  9 active torsions:
REMARK  status: ('A' for Active; 'I' for Inactive)
REMARK    1  A    between atoms: C_1  and  O_2
REMARK    2  A    between atoms: O_2  and  C_3
REMARK    3  A    between atoms: C_6  and  C_7
REMARK    4  A    between atoms: C_15  and  C_16
REMARK    5  A    between atoms: N_18  and  C_19
REMARK    6  A    between atoms: C_19  and  C_20
REMARK    7  A    between atoms: C_20  and  C_21
REMARK    8  A    between atoms: C_21  and  N_22
REMARK    9  A    between atoms: N_25  and  C_26
REMARK                            x       y       z     vdW  Elec       q    Type
REMARK                         _______ _______ _______ _____ _____    ______ ____
ROOT
ATOM      1  C   UNL     1       2.176   7.695  18.824  0.00  0.00    +0.000 A 
ATOM      2  C   UNL     1       1.786   8.466  19.995  0.00  0.00    +0.000 A 
ATOM      3  N   UNL     1       1.341   9.824  19.895  0.00  0.00    +0.000 N 
ATOM      4  C   UNL     1       0.948  10.553  21.015  0.00  0.00    +0.000 A 
ATOM      5  N   UNL     1       2.140   8.344  17.615  0.00  0.00    +0.000 NA
ATOM      6  S   UNL     1       0.584  12.222  20.869  0.00  0.00    +0.000 S 
ATOM      7  C   UNL     1      -1.134  11.272  20.192  0.00  0.00    +0.000 A 
ATOM      8  C   UNL     1      -1.995  12.355  21.047  0.00  0.00    +0.000 A 
ATOM      9  C   UNL     1      -1.856  12.603  22.434  0.00  0.00    +0.000 A 
ATOM     10  C   UNL     1      -1.229  11.436  23.030  0.00  0.00    +0.000 A 
ATOM     11  C   UNL     1      -0.760  10.070  22.217  0.00  0.00    +0.000 A 
ATOM     12  C   UNL     1      -0.438   9.950  20.531  0.00  0.00    +0.000 A 
ENDROOT
BRANCH   1  16
ATOM     13  C   UNL     1       3.070   3.530  19.274  0.00  0.00    +0.000 A 
ATOM     14  C   UNL     1       2.475   4.245  20.304  0.00  0.00    +0.000 A 
ATOM     15  C   UNL     1       2.156   5.606  20.144  0.00  0.00    +0.000 A 
ATOM     16  C   UNL     1       2.445   6.294  18.944  0.00  0.00    +0.000 A 
ATOM     17  C   UNL     1       3.056   5.555  17.912  0.00  0.00    +0.000 A 
ATOM     18  C   UNL     1       3.408   4.198  18.058  0.00  0.00    +0.000 A 
BRANCH  13  20
ATOM     19  C   UNL     1       3.606   1.390  18.428  0.00  0.00    +0.000 C 
ATOM     20  O   UNL     1       3.335   2.217  19.545  0.00  0.00    +0.000 OA
ENDBRANCH  13  20
ENDBRANCH   1  16
BRANCH   9  21
ATOM     21  C   UNL     1      -2.009  14.144  23.121  0.00  0.00    +0.000 C 
ATOM     22  O   UNL     1      -3.119  14.512  23.517  0.00  0.00    +0.000 OA
ATOM     23  N   UNL     1      -0.862  15.020  23.305  0.00  0.00    +0.000 N 
ATOM     24  H   UNL     1       0.021  14.589  23.099  0.00  0.00    +0.000 HD
BRANCH  23  25
ATOM     25  C   UNL     1      -0.701  16.298  24.198  0.00  0.00    +0.000 C 
BRANCH  25  26
ATOM     26  C   UNL     1      -0.728  17.786  23.555  0.00  0.00    +0.000 C 
BRANCH  26  27
ATOM     27  C   UNL     1      -0.552  17.882  22.012  0.00  0.00    +0.000 C 
BRANCH  27  28
ATOM     28  N   UNL     1       0.197  16.803  21.276  0.00  0.00    +0.000 NA
ATOM     29  C   UNL     1       1.676  16.962  21.203  0.00  0.00    +0.000 C 
ATOM     30  C   UNL     1       2.383  15.912  20.265  0.00  0.00    +0.000 C 
ATOM     31  N   UNL     1       1.845  15.775  18.897  0.00  0.00    +0.000 NA
ATOM     32  C   UNL     1       2.300  16.829  17.994  0.00  0.00    +0.000 C 
ATOM     33  C   UNL     1       0.378  15.689  18.970  0.00  0.00    +0.000 C 
ATOM     34  C   UNL     1      -0.300  16.755  19.870  0.00  0.00    +0.000 C 
ENDBRANCH  27  28
ENDBRANCH  26  27
ENDBRANCH  25  26
ENDBRANCH  23  25
ENDBRANCH   9  21
TORSDOF 7
ENDMDL
MODEL 3
REMARK VINA RESULT:      -6.7      4.136      5.753
REMARK  Name = 
REMARK  9 active torsions:
REMARK  status: ('A' for Active; 'I' for Inactive)
REMARK    1  A    between atoms: C_1  and  O_2
REMARK    2  A    between atoms: O_2  and  C_3
REMARK    3  A    between atoms: C_6  and  C_7
REMARK    4  A    between atoms: C_15  and  C_16
REMARK    5  A    between atoms: N_18  and  C_19
REMARK    6  A    between atoms: C_19  and  C_20
REMARK    7  A    between atoms: C_20  and  C_21
REMARK    8  A    between atoms: C_21  and  N_22
REMARK    9  A    between atoms: N_25  and  C_26
REMARK                            x       y       z     vdW  Elec       q    Type
REMARK                         _______ _______ _______ _____ _____    ______ ____
ROOT
ATOM      1  C   UNL     1       2.165   7.743  18.818  0.00  0.00    +0.000 A 
ATOM      2  C   UNL     1       1.776   8.518  19.988  0.00  0.00    +0.000 A 
ATOM      3  N   UNL     1       1.319   9.872  19.883  0.00  0.00    +0.000 N 
ATOM      4  C   UNL     1       0.928  10.603  21.001  0.00  0.00    +0.000 A 
ATOM      5  N   UNL     1       2.115   8.384  17.606  0.00  0.00    +0.000 NA
ATOM      6  S   UNL     1       0.549  12.269  20.847  0.00  0.00    +0.000 S 
ATOM      7  C   UNL     1      -1.165  11.300  20.189  0.00  0.00    +0.000 A 
ATOM      8  C   UNL     1      -2.029  12.381  21.043  0.00  0.00    +0.000 A 
ATOM      9  C   UNL     1      -1.883  12.638  22.428  0.00  0.00    +0.000 A 
ATOM     10  C   UNL     1      -1.242  11.480  23.027  0.00  0.00    +0.000 A 
ATOM     11  C   UNL     1      -0.767  10.114  22.219  0.00  0.00    +0.000 A 
ATOM     12  C   UNL     1      -0.456   9.987  20.530  0.00  0.00    +0.000 A 
ENDROOT
BRANCH   1  16
ATOM     13  C   UNL     1       3.092   3.587  19.293  0.00  0.00    +0.000 A 
ATOM     14  C   UNL     1       2.435   4.288  20.294  0.00  0.00    +0.000 A 
ATOM     15  C   UNL     1       2.106   5.646  20.126  0.00  0.00    +0.000 A 
ATOM     16  C   UNL     1       2.447   6.345  18.946  0.00  0.00    +0.000 A 
ATOM     17  C   UNL     1       3.120   5.620  17.942  0.00  0.00    +0.000 A 
ATOM     18  C   UNL     1       3.482   4.267  18.099  0.00  0.00    +0.000 A 
BRANCH  13  20
ATOM     19  C   UNL     1       3.503   1.417  18.454  0.00  0.00    +0.000 C 
ATOM     20  O   UNL     1       3.361   2.277  19.570  0.00  0.00    +0.000 OA
ENDBRANCH  13  20
ENDBRANCH   1  16
BRANCH   9  21
ATOM     21  C   UNL     1      -2.044  14.182  23.106  0.00  0.00    +0.000 C 
ATOM     22  O   UNL     1      -1.614  14.380  24.247  0.00  0.00    +0.000 OA
ATOM     23  N   UNL     1      -2.623  15.291  22.363  0.00  0.00    +0.000 N 
ATOM     24  H   UNL     1      -2.805  15.088  21.397  0.00  0.00    +0.000 HD
BRANCH  23  25
ATOM     25  C   UNL     1      -2.562  16.833  22.640  0.00  0.00    +0.000 C 
BRANCH  25  26
ATOM     26  C   UNL     1      -2.236  17.891  21.456  0.00  0.00    +0.000 C 
BRANCH  26  27
ATOM     27  C   UNL     1      -1.643  17.306  20.142  0.00  0.00    +0.000 C 
BRANCH  27  28
ATOM     28  N   UNL     1      -0.153  17.312  19.926  0.00  0.00    +0.000 NA
ATOM     29  C   UNL     1       0.307  17.256  18.510  0.00  0.00    +0.000 C 
ATOM     30  C   UNL     1       1.864  17.073  18.354  0.00  0.00    +0.000 C 
ATOM     31  N   UNL     1       2.481  15.962  19.105  0.00  0.00    +0.000 NA
ATOM     32  C   UNL     1       2.304  14.665  18.457  0.00  0.00    +0.000 C 
ATOM     33  C   UNL     1       1.970  15.980  20.484  0.00  0.00    +0.000 C 
ATOM     34  C   UNL     1       0.431  16.123  20.614  0.00  0.00    +0.000 C 
ENDBRANCH  27  28
ENDBRANCH  26  27
ENDBRANCH  25  26
ENDBRANCH  23  25
ENDBRANCH   9  21
TORSDOF 7
ENDMDL
MODEL 4
REMARK VINA RESULT:      -6.5      4.381      6.300
REMARK  Name = 
REMARK  9 active torsions:
REMARK  status: ('A' for Active; 'I' for Inactive)
REMARK    1  A    between atoms: C_1  and  O_2
REMARK    2  A    between atoms: O_2  and  C_3
REMARK    3  A    between atoms: C_6  and  C_7
REMARK    4  A    between atoms: C_15  and  C_16
REMARK    5  A    between atoms: N_18  and  C_19
REMARK    6  A    between atoms: C_19  and  C_20
REMARK    7  A    between atoms: C_20  and  C_21
REMARK    8  A    between atoms: C_21  and  N_22
REMARK    9  A    between atoms: N_25  and  C_26
REMARK                            x       y       z     vdW  Elec       q    Type
REMARK                         _______ _______ _______ _____ _____    ______ ____
ROOT
ATOM      1  C   UNL     1       2.043   7.929  19.286  0.00  0.00    +0.000 A 
ATOM      2  C   UNL     1       1.664   8.855  20.343  0.00  0.00    +0.000 A 
ATOM      3  N   UNL     1       1.156  10.164  20.059  0.00  0.00    +0.000 N 
ATOM      4  C   UNL     1       0.775  11.040  21.072  0.00  0.00    +0.000 A 
ATOM      5  N   UNL     1       1.932   8.382  17.996  0.00  0.00    +0.000 NA
ATOM      6  S   UNL     1       0.332  12.652  20.691  0.00  0.00    +0.000 S 
ATOM      7  C   UNL     1      -1.366  11.545  20.243  0.00  0.00    +0.000 A 
ATOM      8  C   UNL     1      -2.241  12.714  20.962  0.00  0.00    +0.000 A 
ATOM      9  C   UNL     1      -2.060  13.176  22.288  0.00  0.00    +0.000 A 
ATOM     10  C   UNL     1      -1.359  12.139  23.026  0.00  0.00    +0.000 A 
ATOM     11  C   UNL     1      -0.862  10.683  22.409  0.00  0.00    +0.000 A 
ATOM     12  C   UNL     1      -0.600  10.319  20.747  0.00  0.00    +0.000 A 
ENDROOT
BRANCH   1  16
ATOM     13  C   UNL     1       3.000   3.838  20.127  0.00  0.00    +0.000 A 
ATOM     14  C   UNL     1       3.681   4.540  19.142  0.00  0.00    +0.000 A 
ATOM     15  C   UNL     1       3.385   5.891  18.886  0.00  0.00    +0.000 A 
ATOM     16  C   UNL     1       2.378   6.573  19.606  0.00  0.00    +0.000 A 
ATOM     17  C   UNL     1       1.692   5.844  20.598  0.00  0.00    +0.000 A 
ATOM     18  C   UNL     1       1.954   4.483  20.853  0.00  0.00    +0.000 A 
BRANCH  13  20
ATOM     19  C   UNL     1       4.018   1.928  19.178  0.00  0.00    +0.000 C 
ATOM     20  O   UNL     1       3.371   2.533  20.283  0.00  0.00    +0.000 OA
ENDBRANCH  13  20
ENDBRANCH   1  16
BRANCH   9  21
ATOM     21  C   UNL     1      -2.254  14.797  22.739  0.00  0.00    +0.000 C 
ATOM     22  O   UNL     1      -2.764  15.054  23.834  0.00  0.00    +0.000 OA
ATOM     23  N   UNL     1      -1.787  15.889  21.899  0.00  0.00    +0.000 N 
ATOM     24  H   UNL     1      -1.249  15.595  21.104  0.00  0.00    +0.000 HD
BRANCH  23  25
ATOM     25  C   UNL     1      -1.548  17.400  22.247  0.00  0.00    +0.000 C 
BRANCH  25  26
ATOM     26  C   UNL     1      -0.253  18.199  21.691  0.00  0.00    +0.000 C 
BRANCH  26  27
ATOM     27  C   UNL     1       1.134  17.538  21.939  0.00  0.00    +0.000 C 
BRANCH  27  28
ATOM     28  N   UNL     1       1.558  16.356  21.108  0.00  0.00    +0.000 NA
ATOM     29  C   UNL     1       2.978  15.929  21.248  0.00  0.00    +0.000 C 
ATOM     30  C   UNL     1       3.413  14.817  20.220  0.00  0.00    +0.000 C 
ATOM     31  N   UNL     1       3.126  15.080  18.796  0.00  0.00    +0.000 NA
ATOM     32  C   UNL     1       4.096  15.977  18.173  0.00  0.00    +0.000 C 
ATOM     33  C   UNL     1       1.744  15.567  18.672  0.00  0.00    +0.000 C 
ATOM     34  C   UNL     1       1.349  16.688  19.668  0.00  0.00    +0.000 C 
ENDBRANCH  27  28
ENDBRANCH  26  27
ENDBRANCH  25  26
ENDBRANCH  23  25
ENDBRANCH   9  21
TORSDOF 7
ENDMDL
MODEL 5
REMARK VINA RESULT:      -6.5      4.458      6.144
REMARK  Name = 
REMARK  9 active torsions:
REMARK  status: ('A' for Active; 'I' for Inactive)
REMARK    1  A    between atoms: C_1  and  O_2
REMARK    2  A    between atoms: O_2  and  C_3
REMARK    3  A    between atoms: C_6  and  C_7
REMARK    4  A    between atoms: C_15  and  C_16
REMARK    5  A    between atoms: N_18  and  C_19
REMARK    6  A    between atoms: C_19  and  C_20
REMARK    7  A    between atoms: C_20  and  C_21
REMARK    8  A    between atoms: C_21  and  N_22
REMARK    9  A    between atoms: N_25  and  C_26
REMARK                            x       y       z     vdW  Elec       q    Type
REMARK                         _______ _______ _______ _____ _____    ______ ____
ROOT
ATOM      1  C   UNL     1       2.184   7.807  18.752  0.00  0.00    +0.000 A 
ATOM      2  C   UNL     1       1.794   8.578  19.923  0.00  0.00    +0.000 A 
ATOM      3  N   UNL     1       1.345   9.934  19.823  0.00  0.00    +0.000 N 
ATOM      4  C   UNL     1       0.953  10.662  20.944  0.00  0.00    +0.000 A 
ATOM      5  N   UNL     1       2.143   8.454  17.543  0.00  0.00    +0.000 NA
ATOM      6  S   UNL     1       0.583  12.331  20.797  0.00  0.00    +0.000 S 
ATOM      7  C   UNL     1      -1.133  11.375  20.126  0.00  0.00    +0.000 A 
ATOM      8  C   UNL     1      -1.995  12.456  20.982  0.00  0.00    +0.000 A 
ATOM      9  C   UNL     1      -1.854  12.705  22.369  0.00  0.00    +0.000 A 
ATOM     10  C   UNL     1      -1.222  11.541  22.964  0.00  0.00    +0.000 A 
ATOM     11  C   UNL     1      -0.751  10.176  22.151  0.00  0.00    +0.000 A 
ATOM     12  C   UNL     1      -0.433  10.056  20.464  0.00  0.00    +0.000 A 
ENDROOT
BRANCH   1  16
ATOM     13  C   UNL     1       3.086   3.644  19.210  0.00  0.00    +0.000 A 
ATOM     14  C   UNL     1       2.421   4.341  20.208  0.00  0.00    +0.000 A 
ATOM     15  C   UNL     1       2.100   5.702  20.045  0.00  0.00    +0.000 A 
ATOM     16  C   UNL     1       2.458   6.406  18.873  0.00  0.00    +0.000 A 
ATOM     17  C   UNL     1       3.138   5.685  17.872  0.00  0.00    +0.000 A 
ATOM     18  C   UNL     1       3.492   4.329  18.025  0.00  0.00    +0.000 A 
BRANCH  13  20
ATOM     19  C   UNL     1       4.559   2.058  20.158  0.00  0.00    +0.000 C 
ATOM     20  O   UNL     1       3.345   2.330  19.481  0.00  0.00    +0.000 OA
ENDBRANCH  13  20
ENDBRANCH   1  16
BRANCH   9  21
ATOM     21  C   UNL     1      -2.009  14.246  23.054  0.00  0.00    +0.000 C 
ATOM     22  O   UNL     1      -2.148  14.343  24.278  0.00  0.00    +0.000 OA
ATOM     23  N   UNL     1      -1.928  15.456  22.250  0.00  0.00    +0.000 N 
ATOM     24  H   UNL     1      -1.662  15.298  21.295  0.00  0.00    +0.000 HD
BRANCH  23  25
ATOM     25  C   UNL     1      -1.703  16.945  22.687  0.00  0.00    +0.000 C 
BRANCH  25  26
ATOM     26  C   UNL     1      -1.085  18.040  21.664  0.00  0.00    +0.000 C 
BRANCH  26  27
ATOM     27  C   UNL     1       0.466  18.138  21.600  0.00  0.00    +0.000 C 
BRANCH  27  28
ATOM     28  N   UNL     1       1.203  17.568  20.417  0.00  0.00    +0.000 NA
ATOM     29  C   UNL     1       0.816  16.191  20.003  0.00  0.00    +0.000 C 
ATOM     30  C   UNL     1       1.745  15.576  18.889  0.00  0.00    +0.000 C 
ATOM     31  N   UNL     1       3.199  15.611  19.143  0.00  0.00    +0.000 NA
ATOM     32  C   UNL     1       3.648  14.554  20.045  0.00  0.00    +0.000 C 
ATOM     33  C   UNL     1       3.565  16.954  19.619  0.00  0.00    +0.000 C 
ATOM     34  C   UNL     1       2.659  17.525  20.741  0.00  0.00    +0.000 C 
ENDBRANCH  27  28
ENDBRANCH  26  27
ENDBRANCH  25  26
ENDBRANCH  23  25
ENDBRANCH   9  21
TORSDOF 7
ENDMDL
MODEL 6
REMARK VINA RESULT:      -6.5      3.278      4.231
REMARK  Name = 
REMARK  9 active torsions:
REMARK  status: ('A' for Active; 'I' for Inactive)
REMARK    1  A    between atoms: C_1  and  O_2
REMARK    2  A    between atoms: O_2  and  C_3
REMARK    3  A    between atoms: C_6  and  C_7
REMARK    4  A    between atoms: C_15  and  C_16
REMARK    5  A    between atoms: N_18  and  C_19
REMARK    6  A    between atoms: C_19  and  C_20
REMARK    7  A    between atoms: C_20  and  C_21
REMARK    8  A    between atoms: C_21  and  N_22
REMARK    9  A    between atoms: N_25  and  C_26
REMARK                            x       y       z     vdW  Elec       q    Type
REMARK                         _______ _______ _______ _____ _____    ______ ____
ROOT
ATOM      1  C   UNL     1       1.785   7.986  19.448  0.00  0.00    +0.000 A 
ATOM      2  C   UNL     1       1.338   9.249  18.879  0.00  0.00    +0.000 A 
ATOM      3  N   UNL     1       0.612  10.213  19.651  0.00  0.00    +0.000 N 
ATOM      4  C   UNL     1       0.204  11.430  19.110  0.00  0.00    +0.000 A 
ATOM      5  N   UNL     1       1.443   7.738  20.753  0.00  0.00    +0.000 NA
ATOM      6  S   UNL     1      -0.804  12.478  20.019  0.00  0.00    +0.000 S 
ATOM      7  C   UNL     1       1.095  12.819  20.785  0.00  0.00    +0.000 A 
ATOM      8  C   UNL     1       0.749  14.408  20.766  0.00  0.00    +0.000 A 
ATOM      9  C   UNL     1       0.332  15.144  19.630  0.00  0.00    +0.000 A 
ATOM     10  C   UNL     1       0.745  14.405  18.449  0.00  0.00    +0.000 A 
ATOM     11  C   UNL     1       1.554  12.959  18.449  0.00  0.00    +0.000 A 
ATOM     12  C   UNL     1       1.606  11.822  19.741  0.00  0.00    +0.000 A 
ENDROOT
BRANCH   1  16
ATOM     13  C   UNL     1       4.329   5.462  17.099  0.00  0.00    +0.000 A 
ATOM     14  C   UNL     1       4.398   6.844  16.987  0.00  0.00    +0.000 A 
ATOM     15  C   UNL     1       3.582   7.672  17.779  0.00  0.00    +0.000 A 
ATOM     16  C   UNL     1       2.656   7.130  18.698  0.00  0.00    +0.000 A 
ATOM     17  C   UNL     1       2.594   5.726  18.795  0.00  0.00    +0.000 A 
ATOM     18  C   UNL     1       3.383   4.877  17.993  0.00  0.00    +0.000 A 
BRANCH  13  20
ATOM     19  C   UNL     1       5.595   5.428  15.104  0.00  0.00    +0.000 C 
ATOM     20  O   UNL     1       5.166   4.762  16.278  0.00  0.00    +0.000 OA
ENDBRANCH  13  20
ENDBRANCH   1  16
BRANCH   9  21
ATOM     21  C   UNL     1      -0.801  16.400  19.705  0.00  0.00    +0.000 C 
ATOM     22  O   UNL     1      -0.488  17.512  19.267  0.00  0.00    +0.000 OA
ATOM     23  N   UNL     1      -2.146  16.192  20.219  0.00  0.00    +0.000 N 
ATOM     24  H   UNL     1      -2.369  15.232  20.411  0.00  0.00    +0.000 HD
BRANCH  23  25
ATOM     25  C   UNL     1      -3.432  17.078  20.072  0.00  0.00    +0.000 C 
BRANCH  25  26
ATOM     26  C   UNL     1      -4.278  17.559  21.368  0.00  0.00    +0.000 C 
BRANCH  26  27
ATOM     27  C   UNL     1      -4.140  16.691  22.652  0.00  0.00    +0.000 C 
BRANCH  27  28
ATOM     28  N   UNL     1      -4.205  15.190  22.551  0.00  0.00    +0.000 NA
ATOM     29  C   UNL     1      -5.377  14.630  21.822  0.00  0.00    +0.000 C 
ATOM     30  C   UNL     1      -5.493  13.062  21.913  0.00  0.00    +0.000 C 
ATOM     31  N   UNL     1      -5.437  12.468  23.263  0.00  0.00    +0.000 NA
ATOM     32  C   UNL     1      -6.704  12.563  23.983  0.00  0.00    +0.000 C 
ATOM     33  C   UNL     1      -4.320  13.075  24.002  0.00  0.00    +0.000 C 
ATOM     34  C   UNL     1      -4.247  14.623  23.931  0.00  0.00    +0.000 C 
ENDBRANCH  27  28
ENDBRANCH  26  27
ENDBRANCH  25  26
ENDBRANCH  23  25
ENDBRANCH   9  21
TORSDOF 7
ENDMDL
MODEL 7
REMARK VINA RESULT:      -6.5      4.659      6.552
REMARK  Name = 
REMARK  9 active torsions:
REMARK  status: ('A' for Active; 'I' for Inactive)
REMARK    1  A    between atoms: C_1  and  O_2
REMARK    2  A    between atoms: O_2  and  C_3
REMARK    3  A    between atoms: C_6  and  C_7
REMARK    4  A    between atoms: C_15  and  C_16
REMARK    5  A    between atoms: N_18  and  C_19
REMARK    6  A    between atoms: C_19  and  C_20
REMARK    7  A    between atoms: C_20  and  C_21
REMARK    8  A    between atoms: C_21  and  N_22
REMARK    9  A    between atoms: N_25  and  C_26
REMARK                            x       y       z     vdW  Elec       q    Type
REMARK                         _______ _______ _______ _____ _____    ______ ____
ROOT
ATOM      1  C   UNL     1       2.072   8.078  18.680  0.00  0.00    +0.000 A 
ATOM      2  C   UNL     1       1.705   9.029  19.719  0.00  0.00    +0.000 A 
ATOM      3  N   UNL     1       1.302  10.369  19.412  0.00  0.00    +0.000 N 
ATOM      4  C   UNL     1       0.931  11.271  20.407  0.00  0.00    +0.000 A 
ATOM      5  N   UNL     1       2.056   8.537  17.387  0.00  0.00    +0.000 NA
ATOM      6  S   UNL     1       0.619  12.909  20.008  0.00  0.00    +0.000 S 
ATOM      7  C   UNL     1      -1.127  11.920  19.474  0.00  0.00    +0.000 A 
ATOM      8  C   UNL     1      -1.954  13.146  20.150  0.00  0.00    +0.000 A 
ATOM      9  C   UNL     1      -1.809  13.596  21.485  0.00  0.00    +0.000 A 
ATOM     10  C   UNL     1      -1.218  12.515  22.254  0.00  0.00    +0.000 A 
ATOM     11  C   UNL     1      -0.791  11.028  21.660  0.00  0.00    +0.000 A 
ATOM     12  C   UNL     1      -0.472  10.644  20.013  0.00  0.00    +0.000 A 
ENDROOT
BRANCH   1  16
ATOM     13  C   UNL     1       2.838   4.004  19.760  0.00  0.00    +0.000 A 
ATOM     14  C   UNL     1       2.271   4.886  20.669  0.00  0.00    +0.000 A 
ATOM     15  C   UNL     1       1.993   6.216  20.304  0.00  0.00    +0.000 A 
ATOM     16  C   UNL     1       2.298   6.704  19.013  0.00  0.00    +0.000 A 
ATOM     17  C   UNL     1       2.880   5.797  18.105  0.00  0.00    +0.000 A 
ATOM     18  C   UNL     1       3.189   4.468  18.456  0.00  0.00    +0.000 A 
BRANCH  13  20
ATOM     19  C   UNL     1       4.353   2.206  19.992  0.00  0.00    +0.000 C 
ATOM     20  O   UNL     1       3.063   2.740  20.228  0.00  0.00    +0.000 OA
ENDBRANCH  13  20
ENDBRANCH   1  16
BRANCH   9  21
ATOM     21  C   UNL     1      -1.914  15.227  21.929  0.00  0.00    +0.000 C 
ATOM     22  O   UNL     1      -2.335  15.513  23.055  0.00  0.00    +0.000 OA
ATOM     23  N   UNL     1      -1.473  16.295  21.044  0.00  0.00    +0.000 N 
ATOM     24  H   UNL     1      -1.005  15.974  20.216  0.00  0.00    +0.000 HD
BRANCH  23  25
ATOM     25  C   UNL     1      -1.159  17.799  21.355  0.00  0.00    +0.000 C 
BRANCH  25  26
ATOM     26  C   UNL     1       0.035  18.587  20.593  0.00  0.00    +0.000 C 
BRANCH  26  27
ATOM     27  C   UNL     1       1.484  18.087  20.862  0.00  0.00    +0.000 C 
BRANCH  27  28
ATOM     28  N   UNL     1       2.418  17.845  19.707  0.00  0.00    +0.000 NA
ATOM     29  C   UNL     1       1.888  17.004  18.597  0.00  0.00    +0.000 C 
ATOM     30  C   UNL     1       2.966  16.628  17.512  0.00  0.00    +0.000 C 
ATOM     31  N   UNL     1       4.226  16.036  18.005  0.00  0.00    +0.000 NA
ATOM     32  C   UNL     1       4.106  14.616  18.321  0.00  0.00    +0.000 C 
ATOM     33  C   UNL     1       4.709  16.830  19.145  0.00  0.00    +0.000 C 
ATOM     34  C   UNL     1       3.639  17.158  20.220  0.00  0.00    +0.000 C 
ENDBRANCH  27  28
ENDBRANCH  26  27
ENDBRANCH  25  26
ENDBRANCH  23  25
ENDBRANCH   9  21
TORSDOF 7
ENDMDL
MODEL 8
REMARK VINA RESULT:      -6.4      6.791     12.315
REMARK  Name = 
REMARK  9 active torsions:
REMARK  status: ('A' for Active; 'I' for Inactive)
REMARK    1  A    between atoms: C_1  and  O_2
REMARK    2  A    between atoms: O_2  and  C_3
REMARK    3  A    between atoms: C_6  and  C_7
REMARK    4  A    between atoms: C_15  and  C_16
REMARK    5  A    between atoms: N_18  and  C_19
REMARK    6  A    between atoms: C_19  and  C_20
REMARK    7  A    between atoms: C_20  and  C_21
REMARK    8  A    between atoms: C_21  and  N_22
REMARK    9  A    between atoms: N_25  and  C_26
REMARK                            x       y       z     vdW  Elec       q    Type
REMARK                         _______ _______ _______ _____ _____    ______ ____
ROOT
ATOM      1  C   UNL     1      -1.167  12.075  19.920  0.00  0.00    +0.000 A 
ATOM      2  C   UNL     1      -0.390  13.301  20.031  0.00  0.00    +0.000 A 
ATOM      3  N   UNL     1       1.042  13.295  20.025  0.00  0.00    +0.000 N 
ATOM      4  C   UNL     1       1.782  14.472  20.111  0.00  0.00    +0.000 A 
ATOM      5  N   UNL     1      -0.462  10.900  19.851  0.00  0.00    +0.000 NA
ATOM      6  S   UNL     1       3.488  14.404  20.269  0.00  0.00    +0.000 S 
ATOM      7  C   UNL     1       3.158  14.100  18.242  0.00  0.00    +0.000 A 
ATOM      8  C   UNL     1       4.396  15.114  17.952  0.00  0.00    +0.000 A 
ATOM      9  C   UNL     1       4.498  16.443  18.433  0.00  0.00    +0.000 A 
ATOM     10  C   UNL     1       3.159  16.896  18.767  0.00  0.00    +0.000 A 
ATOM     11  C   UNL     1       1.771  16.004  18.612  0.00  0.00    +0.000 A 
ATOM     12  C   UNL     1       1.668  14.287  18.539  0.00  0.00    +0.000 A 
ENDROOT
BRANCH   1  16
ATOM     13  C   UNL     1      -5.401  12.350  19.326  0.00  0.00    +0.000 A 
ATOM     14  C   UNL     1      -4.581  11.794  18.354  0.00  0.00    +0.000 A 
ATOM     15  C   UNL     1      -3.194  11.678  18.562  0.00  0.00    +0.000 A 
ATOM     16  C   UNL     1      -2.588  12.138  19.753  0.00  0.00    +0.000 A 
ATOM     17  C   UNL     1      -3.434  12.706  20.727  0.00  0.00    +0.000 A 
ATOM     18  C   UNL     1      -4.821  12.854  20.529  0.00  0.00    +0.000 A 
BRANCH  13  20
ATOM     19  C   UNL     1      -7.049  12.373  17.633  0.00  0.00    +0.000 C 
ATOM     20  O   UNL     1      -6.728  12.411  19.012  0.00  0.00    +0.000 OA
ENDBRANCH  13  20
ENDBRANCH   1  16
BRANCH   9  21
ATOM     21  C   UNL     1       5.963  17.145  18.912  0.00  0.00    +0.000 C 
ATOM     22  O   UNL     1       5.938  18.120  19.669  0.00  0.00    +0.000 OA
ATOM     23  N   UNL     1       7.248  16.598  18.501  0.00  0.00    +0.000 N 
ATOM     24  H   UNL     1       7.185  15.721  18.016  0.00  0.00    +0.000 HD
BRANCH  23  25
ATOM     25  C   UNL     1       8.684  16.853  19.075  0.00  0.00    +0.000 C 
BRANCH  25  26
ATOM     26  C   UNL     1       9.244  16.020  20.347  0.00  0.00    +0.000 C 
BRANCH  26  27
ATOM     27  C   UNL     1       8.464  14.731  20.735  0.00  0.00    +0.000 C 
BRANCH  27  28
ATOM     28  N   UNL     1       9.019  13.381  20.364  0.00  0.00    +0.000 NA
ATOM     29  C   UNL     1      10.451  13.144  20.698  0.00  0.00    +0.000 C 
ATOM     30  C   UNL     1      11.025  11.797  20.118  0.00  0.00    +0.000 C 
ATOM     31  N   UNL     1      10.820  11.552  18.677  0.00  0.00    +0.000 NA
ATOM     32  C   UNL     1      11.770  12.273  17.834  0.00  0.00    +0.000 C 
ATOM     33  C   UNL     1       9.421  11.855  18.338  0.00  0.00    +0.000 C 
ATOM     34  C   UNL     1       8.888  13.204  18.888  0.00  0.00    +0.000 C 
ENDBRANCH  27  28
ENDBRANCH  26  27
ENDBRANCH  25  26
ENDBRANCH  23  25
ENDBRANCH   9  21
TORSDOF 7
ENDMDL
MODEL 9
REMARK VINA RESULT:      -6.4      4.653      6.287
REMARK  Name = 
REMARK  9 active torsions:
REMARK  status: ('A' for Active; 'I' for Inactive)
REMARK    1  A    between atoms: C_1  and  O_2
REMARK    2  A    between atoms: O_2  and  C_3
REMARK    3  A    between atoms: C_6  and  C_7
REMARK    4  A    between atoms: C_15  and  C_16
REMARK    5  A    between atoms: N_18  and  C_19
REMARK    6  A    between atoms: C_19  and  C_20
REMARK    7  A    between atoms: C_20  and  C_21
REMARK    8  A    between atoms: C_21  and  N_22
REMARK    9  A    between atoms: N_25  and  C_26
REMARK                            x       y       z     vdW  Elec       q    Type
REMARK                         _______ _______ _______ _____ _____    ______ ____
ROOT
ATOM      1  C   UNL     1       2.280   7.803  18.477  0.00  0.00    +0.000 A 
ATOM      2  C   UNL     1       1.844   8.864  19.373  0.00  0.00    +0.000 A 
ATOM      3  N   UNL     1       1.606  10.198  18.909  0.00  0.00    +0.000 N 
ATOM      4  C   UNL     1       1.169  11.206  19.765  0.00  0.00    +0.000 A 
ATOM      5  N   UNL     1       2.497   8.149  17.167  0.00  0.00    +0.000 NA
ATOM      6  S   UNL     1       1.060  12.822  19.203  0.00  0.00    +0.000 S 
ATOM      7  C   UNL     1      -0.664  11.920  18.478  0.00  0.00    +0.000 A 
ATOM      8  C   UNL     1      -1.476  13.257  18.924  0.00  0.00    +0.000 A 
ATOM      9  C   UNL     1      -1.494  13.808  20.229  0.00  0.00    +0.000 A 
ATOM     10  C   UNL     1      -1.119  12.757  21.158  0.00  0.00    +0.000 A 
ATOM     11  C   UNL     1      -0.736  11.197  20.749  0.00  0.00    +0.000 A 
ATOM     12  C   UNL     1      -0.208  10.652  19.204  0.00  0.00    +0.000 A 
ENDROOT
BRANCH   1  16
ATOM     13  C   UNL     1       2.541   3.787  19.948  0.00  0.00    +0.000 A 
ATOM     14  C   UNL     1       2.083   4.814  20.761  0.00  0.00    +0.000 A 
ATOM     15  C   UNL     1       1.971   6.127  20.268  0.00  0.00    +0.000 A 
ATOM     16  C   UNL     1       2.336   6.449  18.941  0.00  0.00    +0.000 A 
ATOM     17  C   UNL     1       2.805   5.396  18.131  0.00  0.00    +0.000 A 
ATOM     18  C   UNL     1       2.950   4.079  18.611  0.00  0.00    +0.000 A 
BRANCH  13  20
ATOM     19  C   UNL     1       1.874   2.392  21.735  0.00  0.00    +0.000 C 
ATOM     20  O   UNL     1       2.609   2.556  20.535  0.00  0.00    +0.000 OA
ENDBRANCH  13  20
ENDBRANCH   1  16
BRANCH   9  21
ATOM     21  C   UNL     1      -1.526  15.475  20.530  0.00  0.00    +0.000 C 
ATOM     22  O   UNL     1      -1.105  15.893  21.613  0.00  0.00    +0.000 OA
ATOM     23  N   UNL     1      -1.982  16.428  19.530  0.00  0.00    +0.000 N 
ATOM     24  H   UNL     1      -2.161  16.023  18.628  0.00  0.00    +0.000 HD
BRANCH  23  25
ATOM     25  C   UNL     1      -1.784  17.981  19.451  0.00  0.00    +0.000 C 
BRANCH  25  26
ATOM     26  C   UNL     1      -0.396  18.629  18.922  0.00  0.00    +0.000 C 
BRANCH  26  27
ATOM     27  C   UNL     1       0.600  17.664  18.216  0.00  0.00    +0.000 C 
BRANCH  27  28
ATOM     28  N   UNL     1       2.042  17.632  18.648  0.00  0.00    +0.000 NA
ATOM     29  C   UNL     1       2.935  16.713  17.888  0.00  0.00    +0.000 C 
ATOM     30  C   UNL     1       4.380  16.578  18.503  0.00  0.00    +0.000 C 
ATOM     31  N   UNL     1       4.463  16.252  19.940  0.00  0.00    +0.000 NA
ATOM     32  C   UNL     1       4.256  14.833  20.218  0.00  0.00    +0.000 C 
ATOM     33  C   UNL     1       3.527  17.115  20.677  0.00  0.00    +0.000 C 
ATOM     34  C   UNL     1       2.100  17.204  20.076  0.00  0.00    +0.000 C 
ENDBRANCH  27  28
ENDBRANCH  26  27
ENDBRANCH  25  26
ENDBRANCH  23  25
ENDBRANCH   9  21
TORSDOF 7
ENDMDL
