MODEL 1
REMARK VINA RESULT:      -7.3      0.000      0.000
REMARK  Name = 
REMARK  6 active torsions:
REMARK  status: ('A' for Active; 'I' for Inactive)
REMARK    1  A    between atoms: C_1  and  N_2
REMARK    2  A    between atoms: C_6  and  S_7
REMARK    3  A    between atoms: S_7  and  C_8
REMARK    4  A    between atoms: C_8  and  C_9
REMARK    5  A    between atoms: N_11  and  N_12
REMARK    6  A    between atoms: C_13  and  C_15
REMARK                            x       y       z     vdW  Elec       q    Type
REMARK                         _______ _______ _______ _____ _____    ______ ____
ROOT
ATOM      1  C   UNL     1       2.338   4.421  20.120  0.00  0.00    +0.000 C 
ATOM      2  O   UNL     1       1.278   4.138  20.680  0.00  0.00    +0.000 OA
ATOM      3  N   UNL     1       2.888   5.690  20.187  0.00  0.00    +0.000 N 
ATOM      4  H   UNL     1       3.620   6.010  19.552  0.00  0.00    +0.000 HD
ENDROOT
BRANCH   3   5
ATOM      5  N   UNL     1       2.139   6.697  20.810  0.00  0.00    +0.000 N 
ATOM      6  C   UNL     1       1.816   7.829  20.088  0.00  0.00    +0.000 C 
ATOM      7  O   UNL     1       2.172   8.010  18.927  0.00  0.00    +0.000 OA
ATOM      8  H   UNL     1       1.689   6.437  21.687  0.00  0.00    +0.000 HD
BRANCH   6   9
ATOM      9  C   UNL     1       0.988   8.844  20.796  0.00  0.00    +0.000 A 
ATOM     10  C   UNL     1       0.335   9.876  20.104  0.00  0.00    +0.000 A 
ATOM     11  C   UNL     1      -0.456  10.797  20.799  0.00  0.00    +0.000 A 
ATOM     12  C   UNL     1      -0.601  10.685  22.182  0.00  0.00    +0.000 A 
ATOM     13 CL   UNL     1      -1.576  11.820  23.030  0.00  0.00    +0.000 Cl
ATOM     14  C   UNL     1       0.032   9.657  22.878  0.00  0.00    +0.000 A 
ATOM     15  C   UNL     1       0.821   8.731  22.184  0.00  0.00    +0.000 A 
ENDBRANCH   6   9
ENDBRANCH   3   5
BRANCH   1  16
ATOM     16  C   UNL     1       3.194   3.407  19.382  0.00  0.00    +0.000 C 
BRANCH  16  17
ATOM     17  S   UNL     1       3.718   4.007  17.747  0.00  0.00    +0.000 S 
BRANCH  17  23
ATOM     18  C   UNL     1       6.210   4.029  15.655  0.00  0.00    +0.000 C 
ATOM     19  N   UNL     1       6.342   4.346  17.051  0.00  0.00    +0.000 N 
ATOM     20  C   UNL     1       7.502   4.703  17.676  0.00  0.00    +0.000 A 
ATOM     21  N   UNL     1       7.275   4.880  18.957  0.00  0.00    +0.000 NA
ATOM     22  N   UNL     1       5.938   4.646  19.181  0.00  0.00    +0.000 NA
ATOM     23  C   UNL     1       5.387   4.346  18.027  0.00  0.00    +0.000 A 
ENDBRANCH  17  23
ENDBRANCH  16  17
ENDBRANCH   1  16
TORSDOF 5
ENDMDL
MODEL 2
REMARK VINA RESULT:      -7.0      0.604      1.217
REMARK  Name = 
REMARK  6 active torsions:
REMARK  status: ('A' for Active; 'I' for Inactive)
REMARK    1  A    between atoms: C_1  and  N_2
REMARK    2  A    between atoms: C_6  and  S_7
REMARK    3  A    between atoms: S_7  and  C_8
REMARK    4  A    between atoms: C_8  and  C_9
REMARK    5  A    between atoms: N_11  and  N_12
REMARK    6  A    between atoms: C_13  and  C_15
REMARK                            x       y       z     vdW  Elec       q    Type
REMARK                         _______ _______ _______ _____ _____    ______ ____
ROOT
ATOM      1  C   UNL     1       2.697   4.536  20.567  0.00  0.00    +0.000 C 
ATOM      2  O   UNL     1       2.073   4.208  21.577  0.00  0.00    +0.000 OA
ATOM      3  N   UNL     1       2.755   5.851  20.136  0.00  0.00    +0.000 N 
ATOM      4  H   UNL     1       3.056   6.112  19.196  0.00  0.00    +0.000 HD
ENDROOT
BRANCH   3   5
ATOM      5  N   UNL     1       1.974   6.798  20.811  0.00  0.00    +0.000 N 
ATOM      6  C   UNL     1       1.689   7.995  20.182  0.00  0.00    +0.000 C 
ATOM      7  O   UNL     1       2.104   8.282  19.063  0.00  0.00    +0.000 OA
ATOM      8  H   UNL     1       1.480   6.460  21.634  0.00  0.00    +0.000 HD
BRANCH   6   9
ATOM      9  C   UNL     1       0.824   8.941  20.938  0.00  0.00    +0.000 A 
ATOM     10  C   UNL     1       0.688   8.862  22.333  0.00  0.00    +0.000 A 
ATOM     11  C   UNL     1      -0.114   9.784  23.014  0.00  0.00    +0.000 A 
ATOM     12  C   UNL     1      -0.774  10.788  22.307  0.00  0.00    +0.000 A 
ATOM     13 CL   UNL     1      -1.757  11.919  23.151  0.00  0.00    +0.000 Cl
ATOM     14  C   UNL     1      -0.636  10.885  20.923  0.00  0.00    +0.000 A 
ATOM     15  C   UNL     1       0.169   9.966  20.239  0.00  0.00    +0.000 A 
ENDBRANCH   6   9
ENDBRANCH   3   5
BRANCH   1  16
ATOM     16  C   UNL     1       3.533   3.571  19.745  0.00  0.00    +0.000 C 
BRANCH  16  17
ATOM     17  S   UNL     1       3.718   4.115  18.020  0.00  0.00    +0.000 S 
BRANCH  17  23
ATOM     18  C   UNL     1       5.432   5.544  15.652  0.00  0.00    +0.000 C 
ATOM     19  N   UNL     1       5.993   5.160  16.919  0.00  0.00    +0.000 N 
ATOM     20  C   UNL     1       7.291   5.347  17.298  0.00  0.00    +0.000 A 
ATOM     21  N   UNL     1       7.476   4.841  18.496  0.00  0.00    +0.000 NA
ATOM     22  N   UNL     1       6.276   4.318  18.919  0.00  0.00    +0.000 NA
ATOM     23  C   UNL     1       5.392   4.534  17.973  0.00  0.00    +0.000 A 
ENDBRANCH  17  23
ENDBRANCH  16  17
ENDBRANCH   1  16
TORSDOF 5
ENDMDL
MODEL 3
REMARK VINA RESULT:      -6.9      6.589      8.149
REMARK  Name = 
REMARK  6 active torsions:
REMARK  status: ('A' for Active; 'I' for Inactive)
REMARK    1  A    between atoms: C_1  and  N_2
REMARK    2  A    between atoms: C_6  and  S_7
REMARK    3  A    between atoms: S_7  and  C_8
REMARK    4  A    between atoms: C_8  and  C_9
REMARK    5  A    between atoms: N_11  and  N_12
REMARK    6  A    between atoms: C_13  and  C_15
REMARK                            x       y       z     vdW  Elec       q    Type
REMARK                         _______ _______ _______ _____ _____    ______ ____
ROOT
ATOM      1  C   UNL     1       8.026   7.470  18.184  0.00  0.00    +0.000 C 
ATOM      2  O   UNL     1       7.715   7.746  17.024  0.00  0.00    +0.000 OA
ATOM      3  N   UNL     1       8.655   8.383  19.012  0.00  0.00    +0.000 N 
ATOM      4  H   UNL     1       9.129   8.113  19.875  0.00  0.00    +0.000 HD
ENDROOT
BRANCH   3   5
ATOM      5  N   UNL     1       9.051   9.608  18.458  0.00  0.00    +0.000 N 
ATOM      6  C   UNL     1       9.391  10.643  19.307  0.00  0.00    +0.000 C 
ATOM      7  O   UNL     1       9.344  10.552  20.530  0.00  0.00    +0.000 OA
ATOM      8  H   UNL     1       9.277   9.593  17.465  0.00  0.00    +0.000 HD
BRANCH   6   9
ATOM      9  C   UNL     1       9.838  11.904  18.654  0.00  0.00    +0.000 A 
ATOM     10  C   UNL     1      10.826  11.908  17.657  0.00  0.00    +0.000 A 
ATOM     11  C   UNL     1      11.204  13.109  17.047  0.00  0.00    +0.000 A 
ATOM     12  C   UNL     1      10.593  14.304  17.427  0.00  0.00    +0.000 A 
ATOM     13 CL   UNL     1      11.062  15.777  16.673  0.00  0.00    +0.000 Cl
ATOM     14  C   UNL     1       9.603  14.311  18.407  0.00  0.00    +0.000 A 
ATOM     15  C   UNL     1       9.220  13.110  19.016  0.00  0.00    +0.000 A 
ENDBRANCH   6   9
ENDBRANCH   3   5
BRANCH   1  16
ATOM     16  C   UNL     1       7.681   6.152  18.854  0.00  0.00    +0.000 C 
BRANCH  16  17
ATOM     17  S   UNL     1       7.545   4.786  17.662  0.00  0.00    +0.000 S 
BRANCH  17  23
ATOM     18  C   UNL     1       5.113   4.346  15.547  0.00  0.00    +0.000 C 
ATOM     19  N   UNL     1       4.999   4.081  16.955  0.00  0.00    +0.000 N 
ATOM     20  C   UNL     1       3.883   3.609  17.584  0.00  0.00    +0.000 A 
ATOM     21  N   UNL     1       4.109   3.523  18.875  0.00  0.00    +0.000 NA
ATOM     22  N   UNL     1       5.401   3.937  19.102  0.00  0.00    +0.000 NA
ATOM     23  C   UNL     1       5.928   4.250  17.941  0.00  0.00    +0.000 A 
ENDBRANCH  17  23
ENDBRANCH  16  17
ENDBRANCH   1  16
TORSDOF 5
ENDMDL
MODEL 4
REMARK VINA RESULT:      -6.8      1.210      1.232
REMARK  Name = 
REMARK  6 active torsions:
REMARK  status: ('A' for Active; 'I' for Inactive)
REMARK    1  A    between atoms: C_1  and  N_2
REMARK    2  A    between atoms: C_6  and  S_7
REMARK    3  A    between atoms: S_7  and  C_8
REMARK    4  A    between atoms: C_8  and  C_9
REMARK    5  A    between atoms: N_11  and  N_12
REMARK    6  A    between atoms: C_13  and  C_15
REMARK                            x       y       z     vdW  Elec       q    Type
REMARK                         _______ _______ _______ _____ _____    ______ ____
ROOT
ATOM      1  C   UNL     1       2.217   4.870  20.116  0.00  0.00    +0.000 C 
ATOM      2  O   UNL     1       1.112   4.554  20.563  0.00  0.00    +0.000 OA
ATOM      3  N   UNL     1       2.761   6.126  20.326  0.00  0.00    +0.000 N 
ATOM      4  H   UNL     1       3.544   6.487  19.781  0.00  0.00    +0.000 HD
ENDROOT
BRANCH   3   5
ATOM      5  N   UNL     1       1.965   7.088  20.961  0.00  0.00    +0.000 N 
ATOM      6  C   UNL     1       1.591   8.214  20.253  0.00  0.00    +0.000 C 
ATOM      7  O   UNL     1       1.939   8.426  19.095  0.00  0.00    +0.000 OA
ATOM      8  H   UNL     1       1.527   6.797  21.833  0.00  0.00    +0.000 HD
BRANCH   6   9
ATOM      9  C   UNL     1       0.715   9.179  20.973  0.00  0.00    +0.000 A 
ATOM     10  C   UNL     1       0.090  10.245  20.308  0.00  0.00    +0.000 A 
ATOM     11  C   UNL     1      -0.746  11.118  21.012  0.00  0.00    +0.000 A 
ATOM     12  C   UNL     1      -0.965  10.924  22.376  0.00  0.00    +0.000 A 
ATOM     13 CL   UNL     1      -1.996  12.000  23.234  0.00  0.00    +0.000 Cl
ATOM     14  C   UNL     1      -0.360   9.862  23.044  0.00  0.00    +0.000 A 
ATOM     15  C   UNL     1       0.475   8.984  22.341  0.00  0.00    +0.000 A 
ENDBRANCH   6   9
ENDBRANCH   3   5
BRANCH   1  16
ATOM     16  C   UNL     1       3.129   3.909  19.375  0.00  0.00    +0.000 C 
BRANCH  16  17
ATOM     17  S   UNL     1       3.013   4.101  17.571  0.00  0.00    +0.000 S 
BRANCH  17  23
ATOM     18  C   UNL     1       5.740   3.702  15.840  0.00  0.00    +0.000 C 
ATOM     19  N   UNL     1       5.385   4.933  16.493  0.00  0.00    +0.000 N 
ATOM     20  C   UNL     1       6.122   6.082  16.469  0.00  0.00    +0.000 A 
ATOM     21  N   UNL     1       5.532   6.998  17.202  0.00  0.00    +0.000 NA
ATOM     22  N   UNL     1       4.380   6.447  17.713  0.00  0.00    +0.000 NA
ATOM     23  C   UNL     1       4.294   5.216  17.264  0.00  0.00    +0.000 A 
ENDBRANCH  17  23
ENDBRANCH  16  17
ENDBRANCH   1  16
TORSDOF 5
ENDMDL
MODEL 5
REMARK VINA RESULT:      -6.7      1.363      1.870
REMARK  Name = 
REMARK  6 active torsions:
REMARK  status: ('A' for Active; 'I' for Inactive)
REMARK    1  A    between atoms: C_1  and  N_2
REMARK    2  A    between atoms: C_6  and  S_7
REMARK    3  A    between atoms: S_7  and  C_8
REMARK    4  A    between atoms: C_8  and  C_9
REMARK    5  A    between atoms: N_11  and  N_12
REMARK    6  A    between atoms: C_13  and  C_15
REMARK                            x       y       z     vdW  Elec       q    Type
REMARK                         _______ _______ _______ _____ _____    ______ ____
ROOT
ATOM      1  C   UNL     1       1.970   3.884  20.277  0.00  0.00    +0.000 C 
ATOM      2  O   UNL     1       0.771   3.963  20.006  0.00  0.00    +0.000 OA
ATOM      3  N   UNL     1       2.693   4.975  20.731  0.00  0.00    +0.000 N 
ATOM      4  H   UNL     1       3.713   5.000  20.733  0.00  0.00    +0.000 HD
ENDROOT
BRANCH   3   5
ATOM      5  N   UNL     1       2.052   6.221  20.758  0.00  0.00    +0.000 N 
ATOM      6  C   UNL     1       2.286   7.111  19.727  0.00  0.00    +0.000 C 
ATOM      7  O   UNL     1       3.046   6.873  18.793  0.00  0.00    +0.000 OA
ATOM      8  H   UNL     1       1.284   6.310  21.420  0.00  0.00    +0.000 HD
BRANCH   6   9
ATOM      9  C   UNL     1       1.546   8.401  19.797  0.00  0.00    +0.000 A 
ATOM     10  C   UNL     1       0.923   8.831  20.980  0.00  0.00    +0.000 A 
ATOM     11  C   UNL     1       0.258  10.061  21.016  0.00  0.00    +0.000 A 
ATOM     12  C   UNL     1       0.220  10.865  19.878  0.00  0.00    +0.000 A 
ATOM     13 CL   UNL     1      -0.598  12.377  19.930  0.00  0.00    +0.000 Cl
ATOM     14  C   UNL     1       0.846  10.455  18.702  0.00  0.00    +0.000 A 
ATOM     15  C   UNL     1       1.516   9.226  18.663  0.00  0.00    +0.000 A 
ENDBRANCH   6   9
ENDBRANCH   3   5
BRANCH   1  16
ATOM     16  C   UNL     1       2.759   2.588  20.230  0.00  0.00    +0.000 C 
BRANCH  16  17
ATOM     17  S   UNL     1       3.554   2.320  18.618  0.00  0.00    +0.000 S 
BRANCH  17  23
ATOM     18  C   UNL     1       4.772   4.079  16.166  0.00  0.00    +0.000 C 
ATOM     19  N   UNL     1       5.192   4.224  17.533  0.00  0.00    +0.000 N 
ATOM     20  C   UNL     1       6.130   5.108  17.983  0.00  0.00    +0.000 A 
ATOM     21  N   UNL     1       6.302   4.946  19.275  0.00  0.00    +0.000 NA
ATOM     22  N   UNL     1       5.455   3.944  19.688  0.00  0.00    +0.000 NA
ATOM     23  C   UNL     1       4.781   3.534  18.637  0.00  0.00    +0.000 A 
ENDBRANCH  17  23
ENDBRANCH  16  17
ENDBRANCH   1  16
TORSDOF 5
ENDMDL
MODEL 6
REMARK VINA RESULT:      -6.7      2.881      4.104
REMARK  Name = 
REMARK  6 active torsions:
REMARK  status: ('A' for Active; 'I' for Inactive)
REMARK    1  A    between atoms: C_1  and  N_2
REMARK    2  A    between atoms: C_6  and  S_7
REMARK    3  A    between atoms: S_7  and  C_8
REMARK    4  A    between atoms: C_8  and  C_9
REMARK    5  A    between atoms: N_11  and  N_12
REMARK    6  A    between atoms: C_13  and  C_15
REMARK                            x       y       z     vdW  Elec       q    Type
REMARK                         _______ _______ _______ _____ _____    ______ ____
ROOT
ATOM      1  C   UNL     1       6.104   6.215  17.077  0.00  0.00    +0.000 C 
ATOM      2  O   UNL     1       6.549   7.363  17.131  0.00  0.00    +0.000 OA
ATOM      3  N   UNL     1       4.756   5.942  17.241  0.00  0.00    +0.000 N 
ATOM      4  H   UNL     1       4.401   5.006  17.436  0.00  0.00    +0.000 HD
ENDROOT
BRANCH   3   5
ATOM      5  N   UNL     1       3.911   7.001  17.600  0.00  0.00    +0.000 N 
ATOM      6  C   UNL     1       2.932   6.778  18.548  0.00  0.00    +0.000 C 
ATOM      7  O   UNL     1       2.749   5.688  19.082  0.00  0.00    +0.000 OA
ATOM      8  H   UNL     1       4.211   7.928  17.303  0.00  0.00    +0.000 HD
BRANCH   6   9
ATOM      9  C   UNL     1       2.093   7.954  18.911  0.00  0.00    +0.000 A 
ATOM     10  C   UNL     1       1.690   8.896  17.952  0.00  0.00    +0.000 A 
ATOM     11  C   UNL     1       0.881   9.975  18.325  0.00  0.00    +0.000 A 
ATOM     12  C   UNL     1       0.469  10.110  19.650  0.00  0.00    +0.000 A 
ATOM     13 CL   UNL     1      -0.527  11.439  20.100  0.00  0.00    +0.000 Cl
ATOM     14  C   UNL     1       0.853   9.175  20.609  0.00  0.00    +0.000 A 
ATOM     15  C   UNL     1       1.659   8.091  20.238  0.00  0.00    +0.000 A 
ENDBRANCH   6   9
ENDBRANCH   3   5
BRANCH   1  16
ATOM     16  C   UNL     1       6.951   5.000  16.742  0.00  0.00    +0.000 C 
BRANCH  16  17
ATOM     17  S   UNL     1       6.199   3.971  15.446  0.00  0.00    +0.000 S 
BRANCH  17  23
ATOM     18  C   UNL     1       5.779   3.143  12.327  0.00  0.00    +0.000 C 
ATOM     19  N   UNL     1       6.685   4.171  12.762  0.00  0.00    +0.000 N 
ATOM     20  C   UNL     1       7.469   4.932  11.943  0.00  0.00    +0.000 A 
ATOM     21  N   UNL     1       8.205   5.743  12.669  0.00  0.00    +0.000 NA
ATOM     22  N   UNL     1       7.895   5.519  13.990  0.00  0.00    +0.000 NA
ATOM     23  C   UNL     1       6.969   4.589  14.030  0.00  0.00    +0.000 A 
ENDBRANCH  17  23
ENDBRANCH  16  17
ENDBRANCH   1  16
TORSDOF 5
ENDMDL
MODEL 7
REMARK VINA RESULT:      -6.7      1.060      1.497
REMARK  Name = 
REMARK  6 active torsions:
REMARK  status: ('A' for Active; 'I' for Inactive)
REMARK    1  A    between atoms: C_1  and  N_2
REMARK    2  A    between atoms: C_6  and  S_7
REMARK    3  A    between atoms: S_7  and  C_8
REMARK    4  A    between atoms: C_8  and  C_9
REMARK    5  A    between atoms: N_11  and  N_12
REMARK    6  A    between atoms: C_13  and  C_15
REMARK                            x       y       z     vdW  Elec       q    Type
REMARK                         _______ _______ _______ _____ _____    ______ ____
ROOT
ATOM      1  C   UNL     1       2.209   4.620  19.903  0.00  0.00    +0.000 C 
ATOM      2  O   UNL     1       1.045   4.354  20.207  0.00  0.00    +0.000 OA
ATOM      3  N   UNL     1       2.811   5.810  20.278  0.00  0.00    +0.000 N 
ATOM      4  H   UNL     1       3.670   6.154  19.849  0.00  0.00    +0.000 HD
ENDROOT
BRANCH   3   5
ATOM      5  N   UNL     1       2.018   6.774  20.914  0.00  0.00    +0.000 N 
ATOM      6  C   UNL     1       1.710   7.936  20.232  0.00  0.00    +0.000 C 
ATOM      7  O   UNL     1       2.114   8.177  19.099  0.00  0.00    +0.000 OA
ATOM      8  H   UNL     1       1.534   6.466  21.755  0.00  0.00    +0.000 HD
BRANCH   6   9
ATOM      9  C   UNL     1       0.834   8.902  20.950  0.00  0.00    +0.000 A 
ATOM     10  C   UNL     1       0.684   8.867  22.345  0.00  0.00    +0.000 A 
ATOM     11  C   UNL     1      -0.129   9.806  22.988  0.00  0.00    +0.000 A 
ATOM     12  C   UNL     1      -0.785  10.785  22.242  0.00  0.00    +0.000 A 
ATOM     13 CL   UNL     1      -1.781  11.938  23.040  0.00  0.00    +0.000 Cl
ATOM     14  C   UNL     1      -0.634  10.838  20.858  0.00  0.00    +0.000 A 
ATOM     15  C   UNL     1       0.182   9.901  20.212  0.00  0.00    +0.000 A 
ENDBRANCH   6   9
ENDBRANCH   3   5
BRANCH   1  16
ATOM     16  C   UNL     1       3.129   3.657  19.174  0.00  0.00    +0.000 C 
BRANCH  16  17
ATOM     17  S   UNL     1       3.146   3.944  17.379  0.00  0.00    +0.000 S 
BRANCH  17  23
ATOM     18  C   UNL     1       5.819   3.738  15.535  0.00  0.00    +0.000 C 
ATOM     19  N   UNL     1       5.526   4.858  16.388  0.00  0.00    +0.000 N 
ATOM     20  C   UNL     1       6.305   5.970  16.531  0.00  0.00    +0.000 A 
ATOM     21  N   UNL     1       5.766   6.774  17.418  0.00  0.00    +0.000 NA
ATOM     22  N   UNL     1       4.604   6.187  17.863  0.00  0.00    +0.000 NA
ATOM     23  C   UNL     1       4.462   5.049  17.223  0.00  0.00    +0.000 A 
ENDBRANCH  17  23
ENDBRANCH  16  17
ENDBRANCH   1  16
TORSDOF 5
ENDMDL
MODEL 8
REMARK VINA RESULT:      -6.7      2.057      2.545
REMARK  Name = 
REMARK  6 active torsions:
REMARK  status: ('A' for Active; 'I' for Inactive)
REMARK    1  A    between atoms: C_1  and  N_2
REMARK    2  A    between atoms: C_6  and  S_7
REMARK    3  A    between atoms: S_7  and  C_8
REMARK    4  A    between atoms: C_8  and  C_9
REMARK    5  A    between atoms: N_11  and  N_12
REMARK    6  A    between atoms: C_13  and  C_15
REMARK                            x       y       z     vdW  Elec       q    Type
REMARK                         _______ _______ _______ _____ _____    ______ ____
ROOT
ATOM      1  C   UNL     1       3.857   5.714  18.064  0.00  0.00    +0.000 C 
ATOM      2  O   UNL     1       4.020   5.323  19.221  0.00  0.00    +0.000 OA
ATOM      3  N   UNL     1       3.102   6.837  17.769  0.00  0.00    +0.000 N 
ATOM      4  H   UNL     1       2.760   7.041  16.830  0.00  0.00    +0.000 HD
ENDROOT
BRANCH   3   5
ATOM      5  N   UNL     1       2.411   7.457  18.818  0.00  0.00    +0.000 N 
ATOM      6  C   UNL     1       1.791   8.668  18.581  0.00  0.00    +0.000 C 
ATOM      7  O   UNL     1       1.831   9.243  17.498  0.00  0.00    +0.000 OA
ATOM      8  H   UNL     1       2.221   6.873  19.631  0.00  0.00    +0.000 HD
BRANCH   6   9
ATOM      9  C   UNL     1       1.043   9.256  19.727  0.00  0.00    +0.000 A 
ATOM     10  C   UNL     1       0.277  10.424  19.587  0.00  0.00    +0.000 A 
ATOM     11  C   UNL     1      -0.432  10.934  20.679  0.00  0.00    +0.000 A 
ATOM     12  C   UNL     1      -0.385  10.276  21.908  0.00  0.00    +0.000 A 
ATOM     13 CL   UNL     1      -1.261  10.908  23.246  0.00  0.00    +0.000 Cl
ATOM     14  C   UNL     1       0.362   9.109  22.056  0.00  0.00    +0.000 A 
ATOM     15  C   UNL     1       1.070   8.594  20.963  0.00  0.00    +0.000 A 
ENDBRANCH   6   9
ENDBRANCH   3   5
BRANCH   1  16
ATOM     16  C   UNL     1       4.527   5.077  16.860  0.00  0.00    +0.000 C 
BRANCH  16  17
ATOM     17  S   UNL     1       6.240   4.575  17.207  0.00  0.00    +0.000 S 
BRANCH  17  23
ATOM     18  C   UNL     1       7.972   5.646  19.745  0.00  0.00    +0.000 C 
ATOM     19  N   UNL     1       7.726   6.428  18.564  0.00  0.00    +0.000 N 
ATOM     20  C   UNL     1       8.184   7.695  18.344  0.00  0.00    +0.000 A 
ATOM     21  N   UNL     1       7.741   8.128  17.186  0.00  0.00    +0.000 NA
ATOM     22  N   UNL     1       6.983   7.125  16.627  0.00  0.00    +0.000 NA
ATOM     23  C   UNL     1       6.999   6.105  17.454  0.00  0.00    +0.000 A 
ENDBRANCH  17  23
ENDBRANCH  16  17
ENDBRANCH   1  16
TORSDOF 5
ENDMDL
MODEL 9
REMARK VINA RESULT:      -6.7      6.630      8.261
REMARK  Name = 
REMARK  6 active torsions:
REMARK  status: ('A' for Active; 'I' for Inactive)
REMARK    1  A    between atoms: C_1  and  N_2
REMARK    2  A    between atoms: C_6  and  S_7
REMARK    3  A    between atoms: S_7  and  C_8
REMARK    4  A    between atoms: C_8  and  C_9
REMARK    5  A    between atoms: N_11  and  N_12
REMARK    6  A    between atoms: C_13  and  C_15
REMARK                            x       y       z     vdW  Elec       q    Type
REMARK                         _______ _______ _______ _____ _____    ______ ____
ROOT
ATOM      1  C   UNL     1       7.984   7.528  18.111  0.00  0.00    +0.000 C 
ATOM      2  O   UNL     1       7.648   7.833  16.965  0.00  0.00    +0.000 OA
ATOM      3  N   UNL     1       8.635   8.420  18.947  0.00  0.00    +0.000 N 
ATOM      4  H   UNL     1       9.126   8.128  19.792  0.00  0.00    +0.000 HD
ENDROOT
BRANCH   3   5
ATOM      5  N   UNL     1       9.024   9.656  18.412  0.00  0.00    +0.000 N 
ATOM      6  C   UNL     1       9.397  10.666  19.278  0.00  0.00    +0.000 C 
ATOM      7  O   UNL     1       9.386  10.544  20.499  0.00  0.00    +0.000 OA
ATOM      8  H   UNL     1       9.219   9.665  17.413  0.00  0.00    +0.000 HD
BRANCH   6   9
ATOM      9  C   UNL     1       9.834  11.941  18.644  0.00  0.00    +0.000 A 
ATOM     10  C   UNL     1      10.814  11.967  17.640  0.00  0.00    +0.000 A 
ATOM     11  C   UNL     1      11.183  13.180  17.050  0.00  0.00    +0.000 A 
ATOM     12  C   UNL     1      10.570  14.366  17.455  0.00  0.00    +0.000 A 
ATOM     13 CL   UNL     1      11.027  15.854  16.724  0.00  0.00    +0.000 Cl
ATOM     14  C   UNL     1       9.587  14.351  18.443  0.00  0.00    +0.000 A 
ATOM     15  C   UNL     1       9.213  13.137  19.032  0.00  0.00    +0.000 A 
ENDBRANCH   6   9
ENDBRANCH   3   5
BRANCH   1  16
ATOM     16  C   UNL     1       7.648   6.196  18.758  0.00  0.00    +0.000 C 
BRANCH  16  17
ATOM     17  S   UNL     1       6.825   5.057  17.605  0.00  0.00    +0.000 S 
BRANCH  17  23
ATOM     18  C   UNL     1       4.607   3.464  19.375  0.00  0.00    +0.000 C 
ATOM     19  N   UNL     1       4.334   4.690  18.673  0.00  0.00    +0.000 N 
ATOM     20  C   UNL     1       3.137   5.345  18.661  0.00  0.00    +0.000 A 
ATOM     21  N   UNL     1       3.222   6.403  17.888  0.00  0.00    +0.000 NA
ATOM     22  N   UNL     1       4.503   6.453  17.388  0.00  0.00    +0.000 NA
ATOM     23  C   UNL     1       5.164   5.432  17.882  0.00  0.00    +0.000 A 
ENDBRANCH  17  23
ENDBRANCH  16  17
ENDBRANCH   1  16
TORSDOF 5
ENDMDL
