MODEL 1
REMARK VINA RESULT:      -7.6      0.000      0.000
REMARK  Name = 
REMARK  5 active torsions:
REMARK  status: ('A' for Active; 'I' for Inactive)
REMARK    1  A    between atoms: C_2  and  C_14
REMARK    2  A    between atoms: N_3  and  C_4
REMARK    3  A    between atoms: C_7  and  C_8
REMARK    4  A    between atoms: C_17  and  C_18
REMARK    5  A    between atoms: C_18  and  N_19
REMARK                            x       y       z     vdW  Elec       q    Type
REMARK                         _______ _______ _______ _____ _____    ______ ____
ROOT
ATOM      1  O   UNL     1       1.928   8.921  17.493  0.00  0.00    +0.000 OA
ATOM      2  C   UNL     1       2.006   8.359  18.581  0.00  0.00    +0.000 C 
ATOM      3  N   UNL     1       2.737   7.216  18.855  0.00  0.00    +0.000 N 
ATOM      4  H   UNL     1       2.665   6.805  19.776  0.00  0.00    +0.000 HD
ENDROOT
BRANCH   3   5
ATOM      5  C   UNL     1       3.554   6.535  17.927  0.00  0.00    +0.000 A 
ATOM      6  C   UNL     1       4.516   7.165  17.147  0.00  0.00    +0.000 A 
ATOM      7  C   UNL     1       5.249   6.437  16.212  0.00  0.00    +0.000 A 
ATOM      8  C   UNL     1       5.021   5.069  16.079  0.00  0.00    +0.000 A 
ATOM      9  N   UNL     1       4.114   4.419  16.866  0.00  0.00    +0.000 NA
ATOM     10  C   UNL     1       3.416   5.160  17.763  0.00  0.00    +0.000 A 
BRANCH   8  11
ATOM     11  C   UNL     1       5.784   4.291  15.016  0.00  0.00    +0.000 C 
ATOM     12  F   UNL     1       6.997   4.846  14.711  0.00  0.00    +0.000 F 
ATOM     13  F   UNL     1       6.060   3.007  15.384  0.00  0.00    +0.000 F 
ATOM     14  F   UNL     1       5.118   4.211  13.830  0.00  0.00    +0.000 F 
ENDBRANCH   8  11
ENDBRANCH   3   5
BRANCH   2  15
ATOM     15  C   UNL     1       1.266   8.963  19.719  0.00  0.00    +0.000 A 
ATOM     16  C   UNL     1       1.192   8.372  20.985  0.00  0.00    +0.000 A 
ATOM     17  C   UNL     1       0.504   9.022  22.010  0.00  0.00    +0.000 A 
ATOM     18  C   UNL     1      -0.126  10.255  21.779  0.00  0.00    +0.000 A 
ATOM     19  C   UNL     1      -0.086  10.819  20.499  0.00  0.00    +0.000 A 
ATOM     20  C   UNL     1       0.606  10.176  19.477  0.00  0.00    +0.000 A 
BRANCH  18  21
ATOM     21  C   UNL     1      -0.836  10.967  22.905  0.00  0.00    +0.000 C 
BRANCH  21  22
ATOM     22  N   UNL     1      -1.628  12.131  22.452  0.00  0.00    +0.000 NA
ATOM     23  C   UNL     1      -2.964  12.128  23.076  0.00  0.00    +0.000 C 
ATOM     24  C   UNL     1      -3.761  13.404  22.807  0.00  0.00    +0.000 C 
ATOM     25  C   UNL     1      -2.968  14.635  23.215  0.00  0.00    +0.000 C 
ATOM     26  C   UNL     1      -1.640  14.639  22.473  0.00  0.00    +0.000 C 
ATOM     27  C   UNL     1      -0.863  13.353  22.746  0.00  0.00    +0.000 C 
ENDBRANCH  21  22
ENDBRANCH  18  21
ENDBRANCH   2  15
TORSDOF 5
ENDMDL
MODEL 2
REMARK VINA RESULT:      -7.5      6.107     10.690
REMARK  Name = 
REMARK  5 active torsions:
REMARK  status: ('A' for Active; 'I' for Inactive)
REMARK    1  A    between atoms: C_2  and  C_14
REMARK    2  A    between atoms: N_3  and  C_4
REMARK    3  A    between atoms: C_7  and  C_8
REMARK    4  A    between atoms: C_17  and  C_18
REMARK    5  A    between atoms: C_18  and  N_19
REMARK                            x       y       z     vdW  Elec       q    Type
REMARK                         _______ _______ _______ _____ _____    ______ ____
ROOT
ATOM      1  O   UNL     1      -0.693  10.551  19.345  0.00  0.00    +0.000 OA
ATOM      2  C   UNL     1       0.201  10.188  20.104  0.00  0.00    +0.000 C 
ATOM      3  N   UNL     1       0.456  10.699  21.364  0.00  0.00    +0.000 N 
ATOM      4  H   UNL     1       1.268  10.367  21.866  0.00  0.00    +0.000 HD
ENDROOT
BRANCH   3   5
ATOM      5  C   UNL     1      -0.309  11.699  22.003  0.00  0.00    +0.000 A 
ATOM      6  C   UNL     1      -0.042  13.059  21.888  0.00  0.00    +0.000 A 
ATOM      7  C   UNL     1      -0.809  13.986  22.591  0.00  0.00    +0.000 A 
ATOM      8  C   UNL     1      -1.855  13.540  23.396  0.00  0.00    +0.000 A 
ATOM      9  N   UNL     1      -2.166  12.213  23.489  0.00  0.00    +0.000 NA
ATOM     10  C   UNL     1      -1.396  11.338  22.793  0.00  0.00    +0.000 A 
BRANCH   8  11
ATOM     11  C   UNL     1      -2.651  14.554  24.206  0.00  0.00    +0.000 C 
ATOM     12  F   UNL     1      -3.274  15.492  23.429  0.00  0.00    +0.000 F 
ATOM     13  F   UNL     1      -3.643  13.988  24.950  0.00  0.00    +0.000 F 
ATOM     14  F   UNL     1      -1.880  15.265  25.078  0.00  0.00    +0.000 F 
ENDBRANCH   8  11
ENDBRANCH   3   5
BRANCH   2  15
ATOM     15  C   UNL     1       1.085   9.086  19.643  0.00  0.00    +0.000 A 
ATOM     16  C   UNL     1       1.490   8.032  20.468  0.00  0.00    +0.000 A 
ATOM     17  C   UNL     1       2.295   7.019  19.947  0.00  0.00    +0.000 A 
ATOM     18  C   UNL     1       2.713   7.055  18.608  0.00  0.00    +0.000 A 
ATOM     19  C   UNL     1       2.342   8.135  17.799  0.00  0.00    +0.000 A 
ATOM     20  C   UNL     1       1.533   9.144  18.315  0.00  0.00    +0.000 A 
BRANCH  18  21
ATOM     21  C   UNL     1       3.553   5.933  18.044  0.00  0.00    +0.000 C 
BRANCH  21  22
ATOM     22  N   UNL     1       3.165   4.600  18.554  0.00  0.00    +0.000 NA
ATOM     23  C   UNL     1       2.489   3.817  17.503  0.00  0.00    +0.000 C 
ATOM     24  C   UNL     1       2.238   2.362  17.899  0.00  0.00    +0.000 C 
ATOM     25  C   UNL     1       3.529   1.690  18.339  0.00  0.00    +0.000 C 
ATOM     26  C   UNL     1       4.138   2.484  19.485  0.00  0.00    +0.000 C 
ATOM     27  C   UNL     1       4.371   3.937  19.074  0.00  0.00    +0.000 C 
ENDBRANCH  21  22
ENDBRANCH  18  21
ENDBRANCH   2  15
TORSDOF 5
ENDMDL
MODEL 3
REMARK VINA RESULT:      -7.5      0.238      1.239
REMARK  Name = 
REMARK  5 active torsions:
REMARK  status: ('A' for Active; 'I' for Inactive)
REMARK    1  A    between atoms: C_2  and  C_14
REMARK    2  A    between atoms: N_3  and  C_4
REMARK    3  A    between atoms: C_7  and  C_8
REMARK    4  A    between atoms: C_17  and  C_18
REMARK    5  A    between atoms: C_18  and  N_19
REMARK                            x       y       z     vdW  Elec       q    Type
REMARK                         _______ _______ _______ _____ _____    ______ ____
ROOT
ATOM      1  O   UNL     1       1.998   9.036  17.435  0.00  0.00    +0.000 OA
ATOM      2  C   UNL     1       2.009   8.475  18.527  0.00  0.00    +0.000 C 
ATOM      3  N   UNL     1       2.684   7.306  18.834  0.00  0.00    +0.000 N 
ATOM      4  H   UNL     1       2.560   6.902  19.752  0.00  0.00    +0.000 HD
ENDROOT
BRANCH   3   5
ATOM      5  C   UNL     1       3.513   6.592  17.942  0.00  0.00    +0.000 A 
ATOM      6  C   UNL     1       4.383   7.203  17.047  0.00  0.00    +0.000 A 
ATOM      7  C   UNL     1       5.132   6.434  16.159  0.00  0.00    +0.000 A 
ATOM      8  C   UNL     1       5.012   5.046  16.185  0.00  0.00    +0.000 A 
ATOM      9  N   UNL     1       4.197   4.420  17.085  0.00  0.00    +0.000 NA
ATOM     10  C   UNL     1       3.481   5.200  17.934  0.00  0.00    +0.000 A 
BRANCH   8  11
ATOM     11  C   UNL     1       5.788   4.216  15.173  0.00  0.00    +0.000 C 
ATOM     12  F   UNL     1       5.894   2.899  15.527  0.00  0.00    +0.000 F 
ATOM     13  F   UNL     1       5.221   4.210  13.934  0.00  0.00    +0.000 F 
ATOM     14  F   UNL     1       7.071   4.645  15.002  0.00  0.00    +0.000 F 
ENDBRANCH   8  11
ENDBRANCH   3   5
BRANCH   2  15
ATOM     15  C   UNL     1       1.246   9.111  19.633  0.00  0.00    +0.000 A 
ATOM     16  C   UNL     1       0.522  10.297  19.480  0.00  0.00    +0.000 A 
ATOM     17  C   UNL     1      -0.196  10.810  20.561  0.00  0.00    +0.000 A 
ATOM     18  C   UNL     1      -0.186  10.155  21.802  0.00  0.00    +0.000 A 
ATOM     19  C   UNL     1       0.577   8.992  21.960  0.00  0.00    +0.000 A 
ATOM     20  C   UNL     1       1.288   8.475  20.882  0.00  0.00    +0.000 A 
BRANCH  18  21
ATOM     21  C   UNL     1      -0.996  10.699  22.954  0.00  0.00    +0.000 C 
BRANCH  21  22
ATOM     22  N   UNL     1      -1.713  11.950  22.626  0.00  0.00    +0.000 NA
ATOM     23  C   UNL     1      -2.997  12.020  23.347  0.00  0.00    +0.000 C 
ATOM     24  C   UNL     1      -3.696  13.373  23.208  0.00  0.00    +0.000 C 
ATOM     25  C   UNL     1      -2.771  14.506  23.621  0.00  0.00    +0.000 C 
ATOM     26  C   UNL     1      -1.503  14.444  22.784  0.00  0.00    +0.000 C 
ATOM     27  C   UNL     1      -0.825  13.083  22.927  0.00  0.00    +0.000 C 
ENDBRANCH  21  22
ENDBRANCH  18  21
ENDBRANCH   2  15
TORSDOF 5
ENDMDL
MODEL 4
REMARK VINA RESULT:      -7.5      0.647      1.161
REMARK  Name = 
REMARK  5 active torsions:
REMARK  status: ('A' for Active; 'I' for Inactive)
REMARK    1  A    between atoms: C_2  and  C_14
REMARK    2  A    between atoms: N_3  and  C_4
REMARK    3  A    between atoms: C_7  and  C_8
REMARK    4  A    between atoms: C_17  and  C_18
REMARK    5  A    between atoms: C_18  and  N_19
REMARK                            x       y       z     vdW  Elec       q    Type
REMARK                         _______ _______ _______ _____ _____    ______ ____
ROOT
ATOM      1  O   UNL     1       1.881   8.855  17.684  0.00  0.00    +0.000 OA
ATOM      2  C   UNL     1       1.902   8.275  18.767  0.00  0.00    +0.000 C 
ATOM      3  N   UNL     1       2.562   7.091  19.042  0.00  0.00    +0.000 N 
ATOM      4  H   UNL     1       2.446   6.673  19.955  0.00  0.00    +0.000 HD
ENDROOT
BRANCH   3   5
ATOM      5  C   UNL     1       3.364   6.377  18.124  0.00  0.00    +0.000 A 
ATOM      6  C   UNL     1       3.216   5.018  17.873  0.00  0.00    +0.000 A 
ATOM      7  C   UNL     1       4.080   4.370  16.993  0.00  0.00    +0.000 A 
ATOM      8  C   UNL     1       5.081   5.099  16.354  0.00  0.00    +0.000 A 
ATOM      9  N   UNL     1       5.217   6.444  16.549  0.00  0.00    +0.000 NA
ATOM     10  C   UNL     1       4.360   7.042  17.415  0.00  0.00    +0.000 A 
BRANCH   8  11
ATOM     11  C   UNL     1       6.056   4.372  15.438  0.00  0.00    +0.000 C 
ATOM     12  F   UNL     1       5.912   4.714  14.121  0.00  0.00    +0.000 F 
ATOM     13  F   UNL     1       7.362   4.627  15.733  0.00  0.00    +0.000 F 
ATOM     14  F   UNL     1       5.915   3.017  15.474  0.00  0.00    +0.000 F 
ENDBRANCH   8  11
ENDBRANCH   3   5
BRANCH   2  15
ATOM     15  C   UNL     1       1.168   8.905  19.895  0.00  0.00    +0.000 A 
ATOM     16  C   UNL     1       1.280   8.469  21.219  0.00  0.00    +0.000 A 
ATOM     17  C   UNL     1       0.582   9.137  22.226  0.00  0.00    +0.000 A 
ATOM     18  C   UNL     1      -0.240  10.232  21.920  0.00  0.00    +0.000 A 
ATOM     19  C   UNL     1      -0.383  10.635  20.588  0.00  0.00    +0.000 A 
ATOM     20  C   UNL     1       0.318   9.974  19.583  0.00  0.00    +0.000 A 
BRANCH  18  21
ATOM     21  C   UNL     1      -0.962  10.971  23.022  0.00  0.00    +0.000 C 
BRANCH  21  22
ATOM     22  N   UNL     1      -1.686  12.169  22.545  0.00  0.00    +0.000 NA
ATOM     23  C   UNL     1      -3.064  12.188  23.067  0.00  0.00    +0.000 C 
ATOM     24  C   UNL     1      -3.804  13.494  22.776  0.00  0.00    +0.000 C 
ATOM     25  C   UNL     1      -3.011  14.690  23.277  0.00  0.00    +0.000 C 
ATOM     26  C   UNL     1      -1.631  14.675  22.637  0.00  0.00    +0.000 C 
ATOM     27  C   UNL     1      -0.912  13.360  22.930  0.00  0.00    +0.000 C 
ENDBRANCH  21  22
ENDBRANCH  18  21
ENDBRANCH   2  15
TORSDOF 5
ENDMDL
MODEL 5
REMARK VINA RESULT:      -7.5      0.621      1.372
REMARK  Name = 
REMARK  5 active torsions:
REMARK  status: ('A' for Active; 'I' for Inactive)
REMARK    1  A    between atoms: C_2  and  C_14
REMARK    2  A    between atoms: N_3  and  C_4
REMARK    3  A    between atoms: C_7  and  C_8
REMARK    4  A    between atoms: C_17  and  C_18
REMARK    5  A    between atoms: C_18  and  N_19
REMARK                            x       y       z     vdW  Elec       q    Type
REMARK                         _______ _______ _______ _____ _____    ______ ____
ROOT
ATOM      1  O   UNL     1       1.854   8.968  17.450  0.00  0.00    +0.000 OA
ATOM      2  C   UNL     1       1.885   8.453  18.564  0.00  0.00    +0.000 C 
ATOM      3  N   UNL     1       2.544   7.284  18.901  0.00  0.00    +0.000 N 
ATOM      4  H   UNL     1       2.436   6.921  19.838  0.00  0.00    +0.000 HD
ENDROOT
BRANCH   3   5
ATOM      5  C   UNL     1       3.332   6.515  18.018  0.00  0.00    +0.000 A 
ATOM      6  C   UNL     1       3.134   5.157  17.799  0.00  0.00    +0.000 A 
ATOM      7  C   UNL     1       3.986   4.451  16.953  0.00  0.00    +0.000 A 
ATOM      8  C   UNL     1       5.029   5.121  16.316  0.00  0.00    +0.000 A 
ATOM      9  N   UNL     1       5.217   6.464  16.480  0.00  0.00    +0.000 NA
ATOM     10  C   UNL     1       4.369   7.119  17.313  0.00  0.00    +0.000 A 
BRANCH   8  11
ATOM     11  C   UNL     1       5.991   4.332  15.439  0.00  0.00    +0.000 C 
ATOM     12  F   UNL     1       7.295   4.718  15.589  0.00  0.00    +0.000 F 
ATOM     13  F   UNL     1       5.981   2.994  15.700  0.00  0.00    +0.000 F 
ATOM     14  F   UNL     1       5.729   4.462  14.108  0.00  0.00    +0.000 F 
ENDBRANCH   8  11
ENDBRANCH   3   5
BRANCH   2  15
ATOM     15  C   UNL     1       1.166   9.151  19.661  0.00  0.00    +0.000 A 
ATOM     16  C   UNL     1       0.481  10.356  19.483  0.00  0.00    +0.000 A 
ATOM     17  C   UNL     1      -0.198  10.930  20.560  0.00  0.00    +0.000 A 
ATOM     18  C   UNL     1      -0.187  10.315  21.820  0.00  0.00    +0.000 A 
ATOM     19  C   UNL     1       0.537   9.131  22.003  0.00  0.00    +0.000 A 
ATOM     20  C   UNL     1       1.209   8.554  20.930  0.00  0.00    +0.000 A 
BRANCH  18  21
ATOM     21  C   UNL     1      -0.956  10.924  22.969  0.00  0.00    +0.000 C 
BRANCH  21  22
ATOM     22  N   UNL     1      -1.683  12.157  22.597  0.00  0.00    +0.000 NA
ATOM     23  C   UNL     1      -3.050  12.143  23.149  0.00  0.00    +0.000 C 
ATOM     24  C   UNL     1      -3.788  13.470  22.971  0.00  0.00    +0.000 C 
ATOM     25  C   UNL     1      -2.977  14.622  23.541  0.00  0.00    +0.000 C 
ATOM     26  C   UNL     1      -1.612  14.649  22.872  0.00  0.00    +0.000 C 
ATOM     27  C   UNL     1      -0.894  13.312  23.051  0.00  0.00    +0.000 C 
ENDBRANCH  21  22
ENDBRANCH  18  21
ENDBRANCH   2  15
TORSDOF 5
ENDMDL
MODEL 6
REMARK VINA RESULT:      -7.5      2.480      3.273
REMARK  Name = 
REMARK  5 active torsions:
REMARK  status: ('A' for Active; 'I' for Inactive)
REMARK    1  A    between atoms: C_2  and  C_14
REMARK    2  A    between atoms: N_3  and  C_4
REMARK    3  A    between atoms: C_7  and  C_8
REMARK    4  A    between atoms: C_17  and  C_18
REMARK    5  A    between atoms: C_18  and  N_19
REMARK                            x       y       z     vdW  Elec       q    Type
REMARK                         _______ _______ _______ _____ _____    ______ ____
ROOT
ATOM      1  O   UNL     1       1.716   8.688  19.258  0.00  0.00    +0.000 OA
ATOM      2  C   UNL     1       1.220   8.393  20.342  0.00  0.00    +0.000 C 
ATOM      3  N   UNL     1       1.283   7.155  20.956  0.00  0.00    +0.000 N 
ATOM      4  H   UNL     1       0.773   7.014  21.817  0.00  0.00    +0.000 HD
ENDROOT
BRANCH   3   5
ATOM      5  C   UNL     1       1.976   6.034  20.448  0.00  0.00    +0.000 A 
ATOM      6  C   UNL     1       3.101   6.131  19.638  0.00  0.00    +0.000 A 
ATOM      7  C   UNL     1       3.701   4.981  19.130  0.00  0.00    +0.000 A 
ATOM      8  C   UNL     1       3.173   3.732  19.454  0.00  0.00    +0.000 A 
ATOM      9  N   UNL     1       2.096   3.609  20.285  0.00  0.00    +0.000 NA
ATOM     10  C   UNL     1       1.536   4.750  20.759  0.00  0.00    +0.000 A 
BRANCH   8  11
ATOM     11  C   UNL     1       3.799   2.483  18.849  0.00  0.00    +0.000 C 
ATOM     12  F   UNL     1       4.750   1.916  19.653  0.00  0.00    +0.000 F 
ATOM     13  F   UNL     1       2.895   1.492  18.608  0.00  0.00    +0.000 F 
ATOM     14  F   UNL     1       4.428   2.722  17.663  0.00  0.00    +0.000 F 
ENDBRANCH   8  11
ENDBRANCH   3   5
BRANCH   2  15
ATOM     15  C   UNL     1       0.498   9.463  21.079  0.00  0.00    +0.000 A 
ATOM     16  C   UNL     1       0.389  10.776  20.610  0.00  0.00    +0.000 A 
ATOM     17  C   UNL     1      -0.336  11.713  21.348  0.00  0.00    +0.000 A 
ATOM     18  C   UNL     1      -0.944  11.354  22.560  0.00  0.00    +0.000 A 
ATOM     19  C   UNL     1      -0.794  10.049  23.045  0.00  0.00    +0.000 A 
ATOM     20  C   UNL     1      -0.077   9.111  22.308  0.00  0.00    +0.000 A 
BRANCH  18  21
ATOM     21  C   UNL     1      -1.758  12.366  23.331  0.00  0.00    +0.000 C 
BRANCH  21  22
ATOM     22  N   UNL     1      -3.216  12.139  23.234  0.00  0.00    +0.000 NA
ATOM     23  C   UNL     1      -3.900  12.618  24.449  0.00  0.00    +0.000 C 
ATOM     24  C   UNL     1      -5.424  12.595  24.335  0.00  0.00    +0.000 C 
ATOM     25  C   UNL     1      -5.887  13.362  23.106  0.00  0.00    +0.000 C 
ATOM     26  C   UNL     1      -5.225  12.769  21.871  0.00  0.00    +0.000 C 
ATOM     27  C   UNL     1      -3.704  12.790  22.009  0.00  0.00    +0.000 C 
ENDBRANCH  21  22
ENDBRANCH  18  21
ENDBRANCH   2  15
TORSDOF 5
ENDMDL
MODEL 7
REMARK VINA RESULT:      -7.5      6.091     10.731
REMARK  Name = 
REMARK  5 active torsions:
REMARK  status: ('A' for Active; 'I' for Inactive)
REMARK    1  A    between atoms: C_2  and  C_14
REMARK    2  A    between atoms: N_3  and  C_4
REMARK    3  A    between atoms: C_7  and  C_8
REMARK    4  A    between atoms: C_17  and  C_18
REMARK    5  A    between atoms: C_18  and  N_19
REMARK                            x       y       z     vdW  Elec       q    Type
REMARK                         _______ _______ _______ _____ _____    ______ ____
ROOT
ATOM      1  O   UNL     1      -0.636  10.855  19.237  0.00  0.00    +0.000 OA
ATOM      2  C   UNL     1       0.172  10.354  20.014  0.00  0.00    +0.000 C 
ATOM      3  N   UNL     1       0.344  10.700  21.343  0.00  0.00    +0.000 N 
ATOM      4  H   UNL     1       1.092  10.264  21.863  0.00  0.00    +0.000 HD
ENDROOT
BRANCH   3   5
ATOM      5  C   UNL     1      -0.424  11.662  22.035  0.00  0.00    +0.000 A 
ATOM      6  C   UNL     1      -1.500  11.339  22.853  0.00  0.00    +0.000 A 
ATOM      7  C   UNL     1      -2.245  12.346  23.463  0.00  0.00    +0.000 A 
ATOM      8  C   UNL     1      -1.893  13.678  23.258  0.00  0.00    +0.000 A 
ATOM      9  N   UNL     1      -0.812  14.019  22.495  0.00  0.00    +0.000 NA
ATOM     10  C   UNL     1      -0.111  13.013  21.914  0.00  0.00    +0.000 A 
BRANCH   8  11
ATOM     11  C   UNL     1      -2.746  14.774  23.880  0.00  0.00    +0.000 C 
ATOM     12  F   UNL     1      -3.157  14.479  25.151  0.00  0.00    +0.000 F 
ATOM     13  F   UNL     1      -2.096  15.968  23.982  0.00  0.00    +0.000 F 
ATOM     14  F   UNL     1      -3.891  15.021  23.182  0.00  0.00    +0.000 F 
ENDBRANCH   8  11
ENDBRANCH   3   5
BRANCH   2  15
ATOM     15  C   UNL     1       1.038   9.264  19.494  0.00  0.00    +0.000 A 
ATOM     16  C   UNL     1       1.505   9.219  18.177  0.00  0.00    +0.000 A 
ATOM     17  C   UNL     1       2.342   8.176  17.777  0.00  0.00    +0.000 A 
ATOM     18  C   UNL     1       2.708   7.167  18.681  0.00  0.00    +0.000 A 
ATOM     19  C   UNL     1       2.202   7.194  19.986  0.00  0.00    +0.000 A 
ATOM     20  C   UNL     1       1.372   8.237  20.388  0.00  0.00    +0.000 A 
BRANCH  18  21
ATOM     21  C   UNL     1       3.645   6.064  18.249  0.00  0.00    +0.000 C 
BRANCH  21  22
ATOM     22  N   UNL     1       3.215   4.723  18.700  0.00  0.00    +0.000 NA
ATOM     23  C   UNL     1       2.364   4.079  17.683  0.00  0.00    +0.000 C 
ATOM     24  C   UNL     1       2.048   2.616  17.996  0.00  0.00    +0.000 C 
ATOM     25  C   UNL     1       3.325   1.823  18.227  0.00  0.00    +0.000 C 
ATOM     26  C   UNL     1       4.120   2.475  19.348  0.00  0.00    +0.000 C 
ATOM     27  C   UNL     1       4.417   3.937  19.022  0.00  0.00    +0.000 C 
ENDBRANCH  21  22
ENDBRANCH  18  21
ENDBRANCH   2  15
TORSDOF 5
ENDMDL
MODEL 8
REMARK VINA RESULT:      -7.5      6.148     10.712
REMARK  Name = 
REMARK  5 active torsions:
REMARK  status: ('A' for Active; 'I' for Inactive)
REMARK    1  A    between atoms: C_2  and  C_14
REMARK    2  A    between atoms: N_3  and  C_4
REMARK    3  A    between atoms: C_7  and  C_8
REMARK    4  A    between atoms: C_17  and  C_18
REMARK    5  A    between atoms: C_18  and  N_19
REMARK                            x       y       z     vdW  Elec       q    Type
REMARK                         _______ _______ _______ _____ _____    ______ ____
ROOT
ATOM      1  O   UNL     1      -0.783  10.805  19.270  0.00  0.00    +0.000 OA
ATOM      2  C   UNL     1       0.129  10.404  19.988  0.00  0.00    +0.000 C 
ATOM      3  N   UNL     1       0.421  10.858  21.262  0.00  0.00    +0.000 N 
ATOM      4  H   UNL     1       1.243  10.499  21.727  0.00  0.00    +0.000 HD
ENDROOT
BRANCH   3   5
ATOM      5  C   UNL     1      -0.320  11.833  21.964  0.00  0.00    +0.000 A 
ATOM      6  C   UNL     1      -0.065  13.197  21.880  0.00  0.00    +0.000 A 
ATOM      7  C   UNL     1      -0.804  14.097  22.644  0.00  0.00    +0.000 A 
ATOM      8  C   UNL     1      -1.811  13.621  23.480  0.00  0.00    +0.000 A 
ATOM      9  N   UNL     1      -2.111  12.290  23.546  0.00  0.00    +0.000 NA
ATOM     10  C   UNL     1      -1.369  11.441  22.790  0.00  0.00    +0.000 A 
BRANCH   8  11
ATOM     11  C   UNL     1      -2.575  14.605  24.355  0.00  0.00    +0.000 C 
ATOM     12  F   UNL     1      -1.912  14.927  25.507  0.00  0.00    +0.000 F 
ATOM     13  F   UNL     1      -2.820  15.795  23.738  0.00  0.00    +0.000 F 
ATOM     14  F   UNL     1      -3.787  14.130  24.760  0.00  0.00    +0.000 F 
ENDBRANCH   8  11
ENDBRANCH   3   5
BRANCH   2  15
ATOM     15  C   UNL     1       0.993   9.318  19.455  0.00  0.00    +0.000 A 
ATOM     16  C   UNL     1       1.446   9.279  18.133  0.00  0.00    +0.000 A 
ATOM     17  C   UNL     1       2.283   8.241  17.721  0.00  0.00    +0.000 A 
ATOM     18  C   UNL     1       2.662   7.230  18.617  0.00  0.00    +0.000 A 
ATOM     19  C   UNL     1       2.169   7.251  19.928  0.00  0.00    +0.000 A 
ATOM     20  C   UNL     1       1.340   8.289  20.342  0.00  0.00    +0.000 A 
BRANCH  18  21
ATOM     21  C   UNL     1       3.598   6.132  18.172  0.00  0.00    +0.000 C 
BRANCH  21  22
ATOM     22  N   UNL     1       3.185   4.789  18.635  0.00  0.00    +0.000 NA
ATOM     23  C   UNL     1       2.499   4.054  17.558  0.00  0.00    +0.000 C 
ATOM     24  C   UNL     1       2.222   2.591  17.904  0.00  0.00    +0.000 C 
ATOM     25  C   UNL     1       3.499   1.882  18.325  0.00  0.00    +0.000 C 
ATOM     26  C   UNL     1       4.118   2.627  19.498  0.00  0.00    +0.000 C 
ATOM     27  C   UNL     1       4.378   4.088  19.137  0.00  0.00    +0.000 C 
ENDBRANCH  21  22
ENDBRANCH  18  21
ENDBRANCH   2  15
TORSDOF 5
ENDMDL
MODEL 9
REMARK VINA RESULT:      -7.5      4.969     10.800
REMARK  Name = 
REMARK  5 active torsions:
REMARK  status: ('A' for Active; 'I' for Inactive)
REMARK    1  A    between atoms: C_2  and  C_14
REMARK    2  A    between atoms: N_3  and  C_4
REMARK    3  A    between atoms: C_7  and  C_8
REMARK    4  A    between atoms: C_17  and  C_18
REMARK    5  A    between atoms: C_18  and  N_19
REMARK                            x       y       z     vdW  Elec       q    Type
REMARK                         _______ _______ _______ _____ _____    ______ ____
ROOT
ATOM      1  O   UNL     1       1.847   6.303  20.225  0.00  0.00    +0.000 OA
ATOM      2  C   UNL     1       2.336   7.001  19.342  0.00  0.00    +0.000 C 
ATOM      3  N   UNL     1       2.050   8.335  19.107  0.00  0.00    +0.000 N 
ATOM      4  H   UNL     1       2.465   8.785  18.303  0.00  0.00    +0.000 HD
ENDROOT
BRANCH   3   5
ATOM      5  C   UNL     1       1.176   9.124  19.885  0.00  0.00    +0.000 A 
ATOM      6  C   UNL     1       0.107   9.836  19.352  0.00  0.00    +0.000 A 
ATOM      7  C   UNL     1      -0.681  10.637  20.174  0.00  0.00    +0.000 A 
ATOM      8  C   UNL     1      -0.400  10.707  21.537  0.00  0.00    +0.000 A 
ATOM      9  N   UNL     1       0.616   9.982  22.092  0.00  0.00    +0.000 NA
ATOM     10  C   UNL     1       1.366   9.214  21.261  0.00  0.00    +0.000 A 
BRANCH   8  11
ATOM     11  C   UNL     1      -1.230  11.630  22.419  0.00  0.00    +0.000 C 
ATOM     12  F   UNL     1      -0.507  12.667  22.942  0.00  0.00    +0.000 F 
ATOM     13  F   UNL     1      -2.268  12.215  21.757  0.00  0.00    +0.000 F 
ATOM     14  F   UNL     1      -1.774  10.994  23.495  0.00  0.00    +0.000 F 
ENDBRANCH   8  11
ENDBRANCH   3   5
BRANCH   2  15
ATOM     15  C   UNL     1       3.341   6.370  18.447  0.00  0.00    +0.000 A 
ATOM     16  C   UNL     1       4.097   7.090  17.516  0.00  0.00    +0.000 A 
ATOM     17  C   UNL     1       5.045   6.426  16.737  0.00  0.00    +0.000 A 
ATOM     18  C   UNL     1       5.237   5.042  16.870  0.00  0.00    +0.000 A 
ATOM     19  C   UNL     1       4.448   4.321  17.772  0.00  0.00    +0.000 A 
ATOM     20  C   UNL     1       3.506   4.982  18.555  0.00  0.00    +0.000 A 
BRANCH  18  21
ATOM     21  C   UNL     1       6.292   4.340  16.048  0.00  0.00    +0.000 C 
BRANCH  21  22
ATOM     22  N   UNL     1       6.194   4.629  14.601  0.00  0.00    +0.000 NA
ATOM     23  C   UNL     1       7.494   5.078  14.070  0.00  0.00    +0.000 C 
ATOM     24  C   UNL     1       7.515   5.204  12.546  0.00  0.00    +0.000 C 
ATOM     25  C   UNL     1       7.071   3.907  11.889  0.00  0.00    +0.000 C 
ATOM     26  C   UNL     1       5.687   3.538  12.400  0.00  0.00    +0.000 C 
ATOM     27  C   UNL     1       5.684   3.427  13.924  0.00  0.00    +0.000 C 
ENDBRANCH  21  22
ENDBRANCH  18  21
ENDBRANCH   2  15
TORSDOF 5
ENDMDL
