MODEL 1
REMARK VINA RESULT:      -5.8      0.000      0.000
REMARK  Name = 
REMARK  8 active torsions:
REMARK  status: ('A' for Active; 'I' for Inactive)
REMARK    1  A    between atoms: C_1  and  C_2
REMARK    2  A    between atoms: C_2  and  C_3
REMARK    3  A    between atoms: C_3  and  N_4
REMARK    4  A    between atoms: N_4  and  C_5
REMARK    5  A    between atoms: C_5  and  C_6
REMARK    6  A    between atoms: C_6  and  N_7
REMARK    7  A    between atoms: N_7  and  C_8
REMARK    8  A    between atoms: N_7  and  C_9
REMARK                            x       y       z     vdW  Elec       q    Type
REMARK                         _______ _______ _______ _____ _____    ______ ____
ROOT
ATOM      1  N   UNL     1       3.286   5.476  17.973  0.00  0.00    +0.000 N 
ATOM      2  C   UNL     1       2.435   4.593  18.677  0.00  0.00    +0.000 A 
ATOM      3  C   UNL     1       1.904   3.485  18.009  0.00  0.00    +0.000 A 
ATOM      4  C   UNL     1       1.014   2.631  18.661  0.00  0.00    +0.000 A 
ATOM      5  C   UNL     1       0.675   2.899  19.980  0.00  0.00    +0.000 A 
ATOM      6  C   UNL     1       1.235   4.012  20.579  0.00  0.00    +0.000 A 
ATOM      7  N   UNL     1       2.093   4.856  19.956  0.00  0.00    +0.000 NA
ENDROOT
BRANCH   1   8
ATOM      8  C   UNL     1       3.258   6.833  18.546  0.00  0.00    +0.000 C 
BRANCH   8  10
ATOM      9  C   UNL     1       1.883   8.937  18.047  0.00  0.00    +0.000 C 
ATOM     10  C   UNL     1       2.901   7.931  17.537  0.00  0.00    +0.000 C 
ENDBRANCH   8  10
ENDBRANCH   1   8
BRANCH   1  11
ATOM     11  C   UNL     1       4.582   4.854  17.603  0.00  0.00    +0.000 C 
BRANCH  11  12
ATOM     12  C   UNL     1       5.547   4.599  18.789  0.00  0.00    +0.000 C 
BRANCH  12  13
ATOM     13  N   UNL     1       6.999   4.594  18.488  0.00  0.00    +0.000 NA
ATOM     14  C   UNL     1       7.287   4.595  17.053  0.00  0.00    +0.000 C 
ATOM     15  C   UNL     1       7.612   5.776  19.108  0.00  0.00    +0.000 C 
ENDBRANCH  12  13
ENDBRANCH  11  12
ENDBRANCH   1  11
TORSDOF 5
ENDMDL
MODEL 2
REMARK VINA RESULT:      -5.8      2.832      6.123
REMARK  Name = 
REMARK  8 active torsions:
REMARK  status: ('A' for Active; 'I' for Inactive)
REMARK    1  A    between atoms: C_1  and  C_2
REMARK    2  A    between atoms: C_2  and  C_3
REMARK    3  A    between atoms: C_3  and  N_4
REMARK    4  A    between atoms: N_4  and  C_5
REMARK    5  A    between atoms: C_5  and  C_6
REMARK    6  A    between atoms: C_6  and  N_7
REMARK    7  A    between atoms: N_7  and  C_8
REMARK    8  A    between atoms: N_7  and  C_9
REMARK                            x       y       z     vdW  Elec       q    Type
REMARK                         _______ _______ _______ _____ _____    ______ ____
ROOT
ATOM      1  N   UNL     1       6.157   4.603  16.180  0.00  0.00    +0.000 N 
ATOM      2  C   UNL     1       6.502   4.566  14.809  0.00  0.00    +0.000 A 
ATOM      3  C   UNL     1       5.690   3.849  13.924  0.00  0.00    +0.000 A 
ATOM      4  C   UNL     1       6.038   3.746  12.576  0.00  0.00    +0.000 A 
ATOM      5  C   UNL     1       7.196   4.372  12.135  0.00  0.00    +0.000 A 
ATOM      6  C   UNL     1       7.953   5.061  13.064  0.00  0.00    +0.000 A 
ATOM      7  N   UNL     1       7.633   5.163  14.377  0.00  0.00    +0.000 NA
ENDROOT
BRANCH   1   8
ATOM      8  C   UNL     1       7.338   4.823  17.033  0.00  0.00    +0.000 C 
BRANCH   8  10
ATOM      9  C   UNL     1       7.792   5.866  19.329  0.00  0.00    +0.000 C 
ATOM     10  C   UNL     1       7.241   6.064  17.927  0.00  0.00    +0.000 C 
ENDBRANCH   8  10
ENDBRANCH   1   8
BRANCH   1  11
ATOM     11  C   UNL     1       4.905   5.356  16.439  0.00  0.00    +0.000 C 
BRANCH  11  12
ATOM     12  C   UNL     1       3.925   4.674  17.429  0.00  0.00    +0.000 C 
BRANCH  12  13
ATOM     13  N   UNL     1       4.303   3.331  17.933  0.00  0.00    +0.000 NA
ATOM     14  C   UNL     1       4.703   3.338  19.341  0.00  0.00    +0.000 C 
ATOM     15  C   UNL     1       3.162   2.424  17.756  0.00  0.00    +0.000 C 
ENDBRANCH  12  13
ENDBRANCH  11  12
ENDBRANCH   1  11
TORSDOF 5
ENDMDL
MODEL 3
REMARK VINA RESULT:      -5.7      2.745      6.007
REMARK  Name = 
REMARK  8 active torsions:
REMARK  status: ('A' for Active; 'I' for Inactive)
REMARK    1  A    between atoms: C_1  and  C_2
REMARK    2  A    between atoms: C_2  and  C_3
REMARK    3  A    between atoms: C_3  and  N_4
REMARK    4  A    between atoms: N_4  and  C_5
REMARK    5  A    between atoms: C_5  and  C_6
REMARK    6  A    between atoms: C_6  and  N_7
REMARK    7  A    between atoms: N_7  and  C_8
REMARK    8  A    between atoms: N_7  and  C_9
REMARK                            x       y       z     vdW  Elec       q    Type
REMARK                         _______ _______ _______ _____ _____    ______ ____
ROOT
ATOM      1  N   UNL     1       6.353   4.388  16.401  0.00  0.00    +0.000 N 
ATOM      2  C   UNL     1       6.632   4.473  15.017  0.00  0.00    +0.000 A 
ATOM      3  C   UNL     1       5.921   3.658  14.130  0.00  0.00    +0.000 A 
ATOM      4  C   UNL     1       6.217   3.677  12.766  0.00  0.00    +0.000 A 
ATOM      5  C   UNL     1       7.220   4.521  12.311  0.00  0.00    +0.000 A 
ATOM      6  C   UNL     1       7.883   5.299  13.242  0.00  0.00    +0.000 A 
ATOM      7  N   UNL     1       7.614   5.284  14.571  0.00  0.00    +0.000 NA
ENDROOT
BRANCH   1   8
ATOM      8  C   UNL     1       7.515   4.785  17.216  0.00  0.00    +0.000 C 
BRANCH   8  10
ATOM      9  C   UNL     1       7.599   7.323  17.559  0.00  0.00    +0.000 C 
ATOM     10  C   UNL     1       7.247   5.970  18.152  0.00  0.00    +0.000 C 
ENDBRANCH   8  10
ENDBRANCH   1   8
BRANCH   1  11
ATOM     11  C   UNL     1       4.999   4.888  16.747  0.00  0.00    +0.000 C 
BRANCH  11  12
ATOM     12  C   UNL     1       4.020   3.808  17.275  0.00  0.00    +0.000 C 
BRANCH  12  13
ATOM     13  N   UNL     1       3.349   4.083  18.569  0.00  0.00    +0.000 NA
ATOM     14  C   UNL     1       3.603   3.052  19.577  0.00  0.00    +0.000 C 
ATOM     15  C   UNL     1       3.813   5.382  19.074  0.00  0.00    +0.000 C 
ENDBRANCH  12  13
ENDBRANCH  11  12
ENDBRANCH   1  11
TORSDOF 5
ENDMDL
MODEL 4
REMARK VINA RESULT:      -5.7      1.238      1.706
REMARK  Name = 
REMARK  8 active torsions:
REMARK  status: ('A' for Active; 'I' for Inactive)
REMARK    1  A    between atoms: C_1  and  C_2
REMARK    2  A    between atoms: C_2  and  C_3
REMARK    3  A    between atoms: C_3  and  N_4
REMARK    4  A    between atoms: N_4  and  C_5
REMARK    5  A    between atoms: C_5  and  C_6
REMARK    6  A    between atoms: C_6  and  N_7
REMARK    7  A    between atoms: N_7  and  C_8
REMARK    8  A    between atoms: N_7  and  C_9
REMARK                            x       y       z     vdW  Elec       q    Type
REMARK                         _______ _______ _______ _____ _____    ______ ____
ROOT
ATOM      1  N   UNL     1       3.530   4.979  17.945  0.00  0.00    +0.000 N 
ATOM      2  C   UNL     1       2.701   4.340  18.896  0.00  0.00    +0.000 A 
ATOM      3  C   UNL     1       1.751   3.413  18.454  0.00  0.00    +0.000 A 
ATOM      4  C   UNL     1       0.880   2.811  19.363  0.00  0.00    +0.000 A 
ATOM      5  C   UNL     1       0.981   3.145  20.707  0.00  0.00    +0.000 A 
ATOM      6  C   UNL     1       1.941   4.069  21.074  0.00  0.00    +0.000 A 
ATOM      7  N   UNL     1       2.788   4.669  20.202  0.00  0.00    +0.000 NA
ENDROOT
BRANCH   1   8
ATOM      8  C   UNL     1       3.998   6.291  18.425  0.00  0.00    +0.000 C 
BRANCH   8  10
ATOM      9  C   UNL     1       2.191   8.069  18.046  0.00  0.00    +0.000 C 
ATOM     10  C   UNL     1       3.510   7.476  17.582  0.00  0.00    +0.000 C 
ENDBRANCH   8  10
ENDBRANCH   1   8
BRANCH   1  11
ATOM     11  C   UNL     1       4.482   4.046  17.291  0.00  0.00    +0.000 C 
BRANCH  11  12
ATOM     12  C   UNL     1       5.030   4.526  15.922  0.00  0.00    +0.000 C 
BRANCH  12  13
ATOM     13  N   UNL     1       6.408   5.074  15.902  0.00  0.00    +0.000 NA
ATOM     14  C   UNL     1       7.235   4.586  17.006  0.00  0.00    +0.000 C 
ATOM     15  C   UNL     1       7.039   4.714  14.625  0.00  0.00    +0.000 C 
ENDBRANCH  12  13
ENDBRANCH  11  12
ENDBRANCH   1  11
TORSDOF 5
ENDMDL
MODEL 5
REMARK VINA RESULT:      -5.7      0.946      1.326
REMARK  Name = 
REMARK  8 active torsions:
REMARK  status: ('A' for Active; 'I' for Inactive)
REMARK    1  A    between atoms: C_1  and  C_2
REMARK    2  A    between atoms: C_2  and  C_3
REMARK    3  A    between atoms: C_3  and  N_4
REMARK    4  A    between atoms: N_4  and  C_5
REMARK    5  A    between atoms: C_5  and  C_6
REMARK    6  A    between atoms: C_6  and  N_7
REMARK    7  A    between atoms: N_7  and  C_8
REMARK    8  A    between atoms: N_7  and  C_9
REMARK                            x       y       z     vdW  Elec       q    Type
REMARK                         _______ _______ _______ _____ _____    ______ ____
ROOT
ATOM      1  N   UNL     1       2.692   5.720  18.195  0.00  0.00    +0.000 N 
ATOM      2  C   UNL     1       2.260   4.748  19.128  0.00  0.00    +0.000 A 
ATOM      3  C   UNL     1       1.598   3.607  18.662  0.00  0.00    +0.000 A 
ATOM      4  C   UNL     1       1.108   2.661  19.564  0.00  0.00    +0.000 A 
ATOM      5  C   UNL     1       1.298   2.872  20.923  0.00  0.00    +0.000 A 
ATOM      6  C   UNL     1       1.959   4.021  21.314  0.00  0.00    +0.000 A 
ATOM      7  N   UNL     1       2.432   4.954  20.451  0.00  0.00    +0.000 NA
ENDROOT
BRANCH   1   8
ATOM      8  C   UNL     1       2.786   7.057  18.806  0.00  0.00    +0.000 C 
BRANCH   8  10
ATOM      9  C   UNL     1       1.525   9.125  17.968  0.00  0.00    +0.000 C 
ATOM     10  C   UNL     1       2.727   8.211  17.798  0.00  0.00    +0.000 C 
ENDBRANCH   8  10
ENDBRANCH   1   8
BRANCH   1  11
ATOM     11  C   UNL     1       3.781   5.229  17.314  0.00  0.00    +0.000 C 
BRANCH  11  12
ATOM     12  C   UNL     1       5.207   5.343  17.913  0.00  0.00    +0.000 C 
BRANCH  12  13
ATOM     13  N   UNL     1       6.344   5.068  17.001  0.00  0.00    +0.000 NA
ATOM     14  C   UNL     1       7.551   4.630  17.704  0.00  0.00    +0.000 C 
ATOM     15  C   UNL     1       5.938   4.034  16.040  0.00  0.00    +0.000 C 
ENDBRANCH  12  13
ENDBRANCH  11  12
ENDBRANCH   1  11
TORSDOF 5
ENDMDL
MODEL 6
REMARK VINA RESULT:      -5.6      1.180      1.521
REMARK  Name = 
REMARK  8 active torsions:
REMARK  status: ('A' for Active; 'I' for Inactive)
REMARK    1  A    between atoms: C_1  and  C_2
REMARK    2  A    between atoms: C_2  and  C_3
REMARK    3  A    between atoms: C_3  and  N_4
REMARK    4  A    between atoms: N_4  and  C_5
REMARK    5  A    between atoms: C_5  and  C_6
REMARK    6  A    between atoms: C_6  and  N_7
REMARK    7  A    between atoms: N_7  and  C_8
REMARK    8  A    between atoms: N_7  and  C_9
REMARK                            x       y       z     vdW  Elec       q    Type
REMARK                         _______ _______ _______ _____ _____    ______ ____
ROOT
ATOM      1  N   UNL     1       3.164   6.043  18.011  0.00  0.00    +0.000 N 
ATOM      2  C   UNL     1       2.556   4.827  18.400  0.00  0.00    +0.000 A 
ATOM      3  C   UNL     1       2.653   3.717  17.553  0.00  0.00    +0.000 A 
ATOM      4  C   UNL     1       2.012   2.523  17.884  0.00  0.00    +0.000 A 
ATOM      5  C   UNL     1       1.288   2.457  19.066  0.00  0.00    +0.000 A 
ATOM      6  C   UNL     1       1.232   3.591  19.855  0.00  0.00    +0.000 A 
ATOM      7  N   UNL     1       1.841   4.761  19.543  0.00  0.00    +0.000 NA
ENDROOT
BRANCH   1   8
ATOM      8  C   UNL     1       2.497   7.206  18.622  0.00  0.00    +0.000 C 
BRANCH   8  10
ATOM      9  C   UNL     1       1.281   9.374  18.001  0.00  0.00    +0.000 C 
ATOM     10  C   UNL     1       2.450   8.445  17.720  0.00  0.00    +0.000 C 
ENDBRANCH   8  10
ENDBRANCH   1   8
BRANCH   1  11
ATOM     11  C   UNL     1       4.646   5.964  17.989  0.00  0.00    +0.000 C 
BRANCH  11  12
ATOM     12  C   UNL     1       5.291   6.174  16.595  0.00  0.00    +0.000 C 
BRANCH  12  13
ATOM     13  N   UNL     1       6.773   6.138  16.526  0.00  0.00    +0.000 NA
ATOM     14  C   UNL     1       7.412   7.098  17.427  0.00  0.00    +0.000 C 
ATOM     15  C   UNL     1       7.227   4.782  16.858  0.00  0.00    +0.000 C 
ENDBRANCH  12  13
ENDBRANCH  11  12
ENDBRANCH   1  11
TORSDOF 5
ENDMDL
MODEL 7
REMARK VINA RESULT:      -5.6      2.838      6.272
REMARK  Name = 
REMARK  8 active torsions:
REMARK  status: ('A' for Active; 'I' for Inactive)
REMARK    1  A    between atoms: C_1  and  C_2
REMARK    2  A    between atoms: C_2  and  C_3
REMARK    3  A    between atoms: C_3  and  N_4
REMARK    4  A    between atoms: N_4  and  C_5
REMARK    5  A    between atoms: C_5  and  C_6
REMARK    6  A    between atoms: C_6  and  N_7
REMARK    7  A    between atoms: N_7  and  C_8
REMARK    8  A    between atoms: N_7  and  C_9
REMARK                            x       y       z     vdW  Elec       q    Type
REMARK                         _______ _______ _______ _____ _____    ______ ____
ROOT
ATOM      1  N   UNL     1       6.369   4.458  16.070  0.00  0.00    +0.000 N 
ATOM      2  C   UNL     1       6.663   4.504  14.687  0.00  0.00    +0.000 A 
ATOM      3  C   UNL     1       5.930   3.699  13.809  0.00  0.00    +0.000 A 
ATOM      4  C   UNL     1       6.239   3.680  12.448  0.00  0.00    +0.000 A 
ATOM      5  C   UNL     1       7.278   4.478  11.987  0.00  0.00    +0.000 A 
ATOM      6  C   UNL     1       7.961   5.248  12.909  0.00  0.00    +0.000 A 
ATOM      7  N   UNL     1       7.679   5.270  14.235  0.00  0.00    +0.000 NA
ENDROOT
BRANCH   1   8
ATOM      8  C   UNL     1       7.536   4.827  16.888  0.00  0.00    +0.000 C 
BRANCH   8  10
ATOM      9  C   UNL     1       7.504   5.745  19.281  0.00  0.00    +0.000 C 
ATOM     10  C   UNL     1       7.303   6.035  17.803  0.00  0.00    +0.000 C 
ENDBRANCH   8  10
ENDBRANCH   1   8
BRANCH   1  11
ATOM     11  C   UNL     1       5.031   5.015  16.392  0.00  0.00    +0.000 C 
BRANCH  11  12
ATOM     12  C   UNL     1       4.081   4.042  17.138  0.00  0.00    +0.000 C 
BRANCH  12  13
ATOM     13  N   UNL     1       3.574   4.479  18.462  0.00  0.00    +0.000 NA
ATOM     14  C   UNL     1       2.396   5.342  18.369  0.00  0.00    +0.000 C 
ATOM     15  C   UNL     1       3.243   3.288  19.255  0.00  0.00    +0.000 C 
ENDBRANCH  12  13
ENDBRANCH  11  12
ENDBRANCH   1  11
TORSDOF 5
ENDMDL
MODEL 8
REMARK VINA RESULT:      -5.6      2.292      3.106
REMARK  Name = 
REMARK  8 active torsions:
REMARK  status: ('A' for Active; 'I' for Inactive)
REMARK    1  A    between atoms: C_1  and  C_2
REMARK    2  A    between atoms: C_2  and  C_3
REMARK    3  A    between atoms: C_3  and  N_4
REMARK    4  A    between atoms: N_4  and  C_5
REMARK    5  A    between atoms: C_5  and  C_6
REMARK    6  A    between atoms: C_6  and  N_7
REMARK    7  A    between atoms: N_7  and  C_8
REMARK    8  A    between atoms: N_7  and  C_9
REMARK                            x       y       z     vdW  Elec       q    Type
REMARK                         _______ _______ _______ _____ _____    ______ ____
ROOT
ATOM      1  N   UNL     1       4.239   4.203  18.449  0.00  0.00    +0.000 N 
ATOM      2  C   UNL     1       3.237   3.731  19.328  0.00  0.00    +0.000 A 
ATOM      3  C   UNL     1       1.910   4.124  19.120  0.00  0.00    +0.000 A 
ATOM      4  C   UNL     1       0.910   3.722  20.006  0.00  0.00    +0.000 A 
ATOM      5  C   UNL     1       1.257   2.922  21.087  0.00  0.00    +0.000 A 
ATOM      6  C   UNL     1       2.586   2.572  21.233  0.00  0.00    +0.000 A 
ATOM      7  N   UNL     1       3.570   2.963  20.387  0.00  0.00    +0.000 NA
ENDROOT
BRANCH   1   8
ATOM      8  C   UNL     1       5.560   4.243  19.099  0.00  0.00    +0.000 C 
BRANCH   8  10
ATOM      9  C   UNL     1       7.638   5.741  19.043  0.00  0.00    +0.000 C 
ATOM     10  C   UNL     1       6.137   5.654  19.260  0.00  0.00    +0.000 C 
ENDBRANCH   8  10
ENDBRANCH   1   8
BRANCH   1  11
ATOM     11  C   UNL     1       4.104   3.656  17.075  0.00  0.00    +0.000 C 
BRANCH  11  12
ATOM     12  C   UNL     1       4.826   4.474  15.973  0.00  0.00    +0.000 C 
BRANCH  12  13
ATOM     13  N   UNL     1       5.970   3.823  15.291  0.00  0.00    +0.000 NA
ATOM     14  C   UNL     1       5.879   3.883  13.832  0.00  0.00    +0.000 C 
ATOM     15  C   UNL     1       7.212   4.475  15.728  0.00  0.00    +0.000 C 
ENDBRANCH  12  13
ENDBRANCH  11  12
ENDBRANCH   1  11
TORSDOF 5
ENDMDL
MODEL 9
REMARK VINA RESULT:      -5.5      2.412      5.870
REMARK  Name = 
REMARK  8 active torsions:
REMARK  status: ('A' for Active; 'I' for Inactive)
REMARK    1  A    between atoms: C_1  and  C_2
REMARK    2  A    between atoms: C_2  and  C_3
REMARK    3  A    between atoms: C_3  and  N_4
REMARK    4  A    between atoms: N_4  and  C_5
REMARK    5  A    between atoms: C_5  and  C_6
REMARK    6  A    between atoms: C_6  and  N_7
REMARK    7  A    between atoms: N_7  and  C_8
REMARK    8  A    between atoms: N_7  and  C_9
REMARK                            x       y       z     vdW  Elec       q    Type
REMARK                         _______ _______ _______ _____ _____    ______ ____
ROOT
ATOM      1  N   UNL     1       6.346   4.585  16.900  0.00  0.00    +0.000 N 
ATOM      2  C   UNL     1       6.518   4.556  15.497  0.00  0.00    +0.000 A 
ATOM      3  C   UNL     1       5.677   3.746  14.726  0.00  0.00    +0.000 A 
ATOM      4  C   UNL     1       5.863   3.652  13.347  0.00  0.00    +0.000 A 
ATOM      5  C   UNL     1       6.888   4.380  12.758  0.00  0.00    +0.000 A 
ATOM      6  C   UNL     1       7.682   5.159  13.579  0.00  0.00    +0.000 A 
ATOM      7  N   UNL     1       7.520   5.254  14.922  0.00  0.00    +0.000 NA
ENDROOT
BRANCH   1   8
ATOM      8  C   UNL     1       7.597   4.938  17.595  0.00  0.00    +0.000 C 
BRANCH   8  10
ATOM      9  C   UNL     1       7.760   7.490  17.757  0.00  0.00    +0.000 C 
ATOM     10  C   UNL     1       7.489   6.183  18.483  0.00  0.00    +0.000 C 
ENDBRANCH   8  10
ENDBRANCH   1   8
BRANCH   1  11
ATOM     11  C   UNL     1       5.066   5.216  17.311  0.00  0.00    +0.000 C 
BRANCH  11  12
ATOM     12  C   UNL     1       4.311   4.481  18.448  0.00  0.00    +0.000 C 
BRANCH  12  13
ATOM     13  N   UNL     1       2.856   4.261  18.258  0.00  0.00    +0.000 NA
ATOM     14  C   UNL     1       2.557   3.214  17.280  0.00  0.00    +0.000 C 
ATOM     15  C   UNL     1       2.262   3.902  19.553  0.00  0.00    +0.000 C 
ENDBRANCH  12  13
ENDBRANCH  11  12
ENDBRANCH   1  11
TORSDOF 5
ENDMDL
