MODEL 1
REMARK VINA RESULT:      -8.2      0.000      0.000
REMARK  Name = 
REMARK  4 active torsions:
REMARK  status: ('A' for Active; 'I' for Inactive)
REMARK    1  A    between atoms: C_2  and  C_18
REMARK    2  A    between atoms: N_3  and  C_4
REMARK    3  A    between atoms: C_9  and  O_10
REMARK    4  A    between atoms: O_10  and  C_11
REMARK                            x       y       z     vdW  Elec       q    Type
REMARK                         _______ _______ _______ _____ _____    ______ ____
ROOT
ATOM      1  C   UNL     1       2.877   4.879  20.124  0.00  0.00    +0.000 C 
ATOM      2  C   UNL     1       2.408   3.676  20.949  0.00  0.00    +0.000 C 
ATOM      3  C   UNL     1       1.034   3.196  20.504  0.00  0.00    +0.000 C 
ATOM      4  O   UNL     1       1.004   2.920  19.110  0.00  0.00    +0.000 OA
ATOM      5  C   UNL     1       1.360   4.050  18.305  0.00  0.00    +0.000 C 
ATOM      6  C   UNL     1       2.776   4.564  18.611  0.00  0.00    +0.000 C 
ENDROOT
BRANCH   1   9
ATOM      7  O   UNL     1       3.011   7.442  18.873  0.00  0.00    +0.000 OA
ATOM      8  C   UNL     1       2.236   7.278  19.805  0.00  0.00    +0.000 C 
ATOM      9  N   UNL     1       2.142   6.094  20.501  0.00  0.00    +0.000 N 
ATOM     10  H   UNL     1       1.515   6.047  21.294  0.00  0.00    +0.000 HD
BRANCH   8  11
ATOM     11  C   UNL     1       1.364   8.408  20.234  0.00  0.00    +0.000 A 
ATOM     12  C   UNL     1       0.943   8.380  21.572  0.00  0.00    +0.000 A 
ATOM     13  C   UNL     1       0.133   9.399  22.040  0.00  0.00    +0.000 A 
ATOM     14  N   UNL     1      -0.272  10.432  21.277  0.00  0.00    +0.000 NA
ATOM     15  C   UNL     1       0.164  10.453  19.996  0.00  0.00    +0.000 A 
ATOM     16  C   UNL     1       0.978   9.480  19.428  0.00  0.00    +0.000 A 
ATOM     17 CL   UNL     1       1.466   9.716  17.792  0.00  0.00    +0.000 Cl
ENDBRANCH   8  11
ENDBRANCH   1   9
BRANCH   6  18
ATOM     18  O   UNL     1       3.709   3.530  18.234  0.00  0.00    +0.000 OA
BRANCH  18  19
ATOM     19  C   UNL     1       4.808   3.909  17.512  0.00  0.00    +0.000 A 
ATOM     20  C   UNL     1       4.886   3.950  16.118  0.00  0.00    +0.000 A 
ATOM     21  C   UNL     1       6.044   4.391  15.477  0.00  0.00    +0.000 A 
ATOM     22  C   UNL     1       7.145   4.781  16.230  0.00  0.00    +0.000 A 
ATOM     23  C   UNL     1       7.068   4.739  17.618  0.00  0.00    +0.000 A 
ATOM     24  F   UNL     1       8.131   5.105  18.343  0.00  0.00    +0.000 F 
ATOM     25  C   UNL     1       5.908   4.319  18.264  0.00  0.00    +0.000 A 
ENDBRANCH  18  19
ENDBRANCH   6  18
TORSDOF 4
ENDMDL
MODEL 2
REMARK VINA RESULT:      -8.2      1.025      1.415
REMARK  Name = 
REMARK  4 active torsions:
REMARK  status: ('A' for Active; 'I' for Inactive)
REMARK    1  A    between atoms: C_2  and  C_18
REMARK    2  A    between atoms: N_3  and  C_4
REMARK    3  A    between atoms: C_9  and  O_10
REMARK    4  A    between atoms: O_10  and  C_11
REMARK                            x       y       z     vdW  Elec       q    Type
REMARK                         _______ _______ _______ _____ _____    ______ ____
ROOT
ATOM      1  C   UNL     1       2.908   4.919  20.140  0.00  0.00    +0.000 C 
ATOM      2  C   UNL     1       2.471   3.711  20.975  0.00  0.00    +0.000 C 
ATOM      3  C   UNL     1       1.107   3.195  20.541  0.00  0.00    +0.000 C 
ATOM      4  O   UNL     1       1.077   2.908  19.148  0.00  0.00    +0.000 OA
ATOM      5  C   UNL     1       1.402   4.040  18.334  0.00  0.00    +0.000 C 
ATOM      6  C   UNL     1       2.808   4.590  18.629  0.00  0.00    +0.000 C 
ENDROOT
BRANCH   1   9
ATOM      7  O   UNL     1       3.005   7.487  18.894  0.00  0.00    +0.000 OA
ATOM      8  C   UNL     1       2.224   7.306  19.818  0.00  0.00    +0.000 C 
ATOM      9  N   UNL     1       2.144   6.119  20.510  0.00  0.00    +0.000 N 
ATOM     10  H   UNL     1       1.510   6.058  21.297  0.00  0.00    +0.000 HD
BRANCH   8  11
ATOM     11  C   UNL     1       1.325   8.418  20.239  0.00  0.00    +0.000 A 
ATOM     12  C   UNL     1       0.896   8.383  21.575  0.00  0.00    +0.000 A 
ATOM     13  C   UNL     1       0.061   9.385  22.035  0.00  0.00    +0.000 A 
ATOM     14  N   UNL     1      -0.359  10.409  21.268  0.00  0.00    +0.000 NA
ATOM     15  C   UNL     1       0.085  10.437  19.990  0.00  0.00    +0.000 A 
ATOM     16  C   UNL     1       0.923   9.481  19.430  0.00  0.00    +0.000 A 
ATOM     17 CL   UNL     1       1.417   9.725  17.796  0.00  0.00    +0.000 Cl
ENDBRANCH   8  11
ENDBRANCH   1   9
BRANCH   6  18
ATOM     18  O   UNL     1       3.763   3.576  18.256  0.00  0.00    +0.000 OA
BRANCH  18  19
ATOM     19  C   UNL     1       4.872   3.983  17.564  0.00  0.00    +0.000 A 
ATOM     20  C   UNL     1       6.068   4.421  18.138  0.00  0.00    +0.000 A 
ATOM     21  C   UNL     1       7.157   4.777  17.341  0.00  0.00    +0.000 A 
ATOM     22  C   UNL     1       7.051   4.714  15.957  0.00  0.00    +0.000 A 
ATOM     23  C   UNL     1       5.860   4.279  15.386  0.00  0.00    +0.000 A 
ATOM     24  F   UNL     1       5.755   4.226  14.053  0.00  0.00    +0.000 F 
ATOM     25  C   UNL     1       4.776   3.902  16.175  0.00  0.00    +0.000 A 
ENDBRANCH  18  19
ENDBRANCH   6  18
TORSDOF 4
ENDMDL
MODEL 3
REMARK VINA RESULT:      -8.1      1.579      2.119
REMARK  Name = 
REMARK  4 active torsions:
REMARK  status: ('A' for Active; 'I' for Inactive)
REMARK    1  A    between atoms: C_2  and  C_18
REMARK    2  A    between atoms: N_3  and  C_4
REMARK    3  A    between atoms: C_9  and  O_10
REMARK    4  A    between atoms: O_10  and  C_11
REMARK                            x       y       z     vdW  Elec       q    Type
REMARK                         _______ _______ _______ _____ _____    ______ ____
ROOT
ATOM      1  C   UNL     1       2.875   5.449  19.755  0.00  0.00    +0.000 C 
ATOM      2  C   UNL     1       2.467   4.404  20.800  0.00  0.00    +0.000 C 
ATOM      3  C   UNL     1       1.129   3.765  20.457  0.00  0.00    +0.000 C 
ATOM      4  O   UNL     1       1.132   3.220  19.144  0.00  0.00    +0.000 OA
ATOM      5  C   UNL     1       1.430   4.190  18.134  0.00  0.00    +0.000 C 
ATOM      6  C   UNL     1       2.811   4.839  18.333  0.00  0.00    +0.000 C 
ENDROOT
BRANCH   1   9
ATOM      7  O   UNL     1       3.144   7.875  18.274  0.00  0.00    +0.000 OA
ATOM      8  C   UNL     1       2.239   7.778  19.091  0.00  0.00    +0.000 C 
ATOM      9  N   UNL     1       2.064   6.668  19.886  0.00  0.00    +0.000 N 
ATOM     10  H   UNL     1       1.324   6.678  20.577  0.00  0.00    +0.000 HD
BRANCH   8  11
ATOM     11  C   UNL     1       1.287   8.912  19.262  0.00  0.00    +0.000 A 
ATOM     12  C   UNL     1       0.756   9.447  18.079  0.00  0.00    +0.000 A 
ATOM     13  C   UNL     1      -0.137  10.499  18.162  0.00  0.00    +0.000 A 
ATOM     14  N   UNL     1      -0.536  11.041  19.329  0.00  0.00    +0.000 NA
ATOM     15  C   UNL     1      -0.030  10.496  20.459  0.00  0.00    +0.000 A 
ATOM     16  C   UNL     1       0.872   9.439  20.486  0.00  0.00    +0.000 A 
ATOM     17 CL   UNL     1       1.358   8.855  22.033  0.00  0.00    +0.000 Cl
ENDBRANCH   8  11
ENDBRANCH   1   9
BRANCH   6  18
ATOM     18  O   UNL     1       3.807   3.808  18.166  0.00  0.00    +0.000 OA
BRANCH  18  19
ATOM     19  C   UNL     1       4.938   4.137  17.469  0.00  0.00    +0.000 A 
ATOM     20  C   UNL     1       6.165   4.487  18.036  0.00  0.00    +0.000 A 
ATOM     21  C   UNL     1       7.272   4.767  17.234  0.00  0.00    +0.000 A 
ATOM     22  C   UNL     1       7.155   4.713  15.851  0.00  0.00    +0.000 A 
ATOM     23  C   UNL     1       5.933   4.366  15.286  0.00  0.00    +0.000 A 
ATOM     24  F   UNL     1       5.817   4.323  13.953  0.00  0.00    +0.000 F 
ATOM     25  C   UNL     1       4.829   4.066  16.081  0.00  0.00    +0.000 A 
ENDBRANCH  18  19
ENDBRANCH   6  18
TORSDOF 4
ENDMDL
MODEL 4
REMARK VINA RESULT:      -8.0      1.190      1.570
REMARK  Name = 
REMARK  4 active torsions:
REMARK  status: ('A' for Active; 'I' for Inactive)
REMARK    1  A    between atoms: C_2  and  C_18
REMARK    2  A    between atoms: N_3  and  C_4
REMARK    3  A    between atoms: C_9  and  O_10
REMARK    4  A    between atoms: O_10  and  C_11
REMARK                            x       y       z     vdW  Elec       q    Type
REMARK                         _______ _______ _______ _____ _____    ______ ____
ROOT
ATOM      1  C   UNL     1       2.820   5.392  19.705  0.00  0.00    +0.000 C 
ATOM      2  C   UNL     1       2.408   4.356  20.756  0.00  0.00    +0.000 C 
ATOM      3  C   UNL     1       1.057   3.736  20.429  0.00  0.00    +0.000 C 
ATOM      4  O   UNL     1       1.039   3.187  19.117  0.00  0.00    +0.000 OA
ATOM      5  C   UNL     1       1.342   4.150  18.101  0.00  0.00    +0.000 C 
ATOM      6  C   UNL     1       2.733   4.779  18.285  0.00  0.00    +0.000 C 
ENDROOT
BRANCH   1   9
ATOM      7  O   UNL     1       3.179   7.846  18.289  0.00  0.00    +0.000 OA
ATOM      8  C   UNL     1       2.248   7.748  19.078  0.00  0.00    +0.000 C 
ATOM      9  N   UNL     1       2.029   6.623  19.841  0.00  0.00    +0.000 N 
ATOM     10  H   UNL     1       1.269   6.632  20.509  0.00  0.00    +0.000 HD
BRANCH   8  11
ATOM     11  C   UNL     1       1.313   8.895  19.247  0.00  0.00    +0.000 A 
ATOM     12  C   UNL     1       0.801   9.446  18.062  0.00  0.00    +0.000 A 
ATOM     13  C   UNL     1      -0.075  10.512  18.144  0.00  0.00    +0.000 A 
ATOM     14  N   UNL     1      -0.477  11.052  19.310  0.00  0.00    +0.000 NA
ATOM     15  C   UNL     1       0.009  10.492  20.442  0.00  0.00    +0.000 A 
ATOM     16  C   UNL     1       0.894   9.421  20.470  0.00  0.00    +0.000 A 
ATOM     17 CL   UNL     1       1.357   8.820  22.018  0.00  0.00    +0.000 Cl
ENDBRANCH   8  11
ENDBRANCH   1   9
BRANCH   6  18
ATOM     18  O   UNL     1       3.713   3.734  18.111  0.00  0.00    +0.000 OA
BRANCH  18  19
ATOM     19  C   UNL     1       4.860   4.055  17.437  0.00  0.00    +0.000 A 
ATOM     20  C   UNL     1       5.009   4.052  16.048  0.00  0.00    +0.000 A 
ATOM     21  C   UNL     1       6.213   4.435  15.456  0.00  0.00    +0.000 A 
ATOM     22  C   UNL     1       7.287   4.811  16.254  0.00  0.00    +0.000 A 
ATOM     23  C   UNL     1       7.139   4.813  17.636  0.00  0.00    +0.000 A 
ATOM     24  F   UNL     1       8.175   5.167  18.404  0.00  0.00    +0.000 F 
ATOM     25  C   UNL     1       5.933   4.451  18.233  0.00  0.00    +0.000 A 
ENDBRANCH  18  19
ENDBRANCH   6  18
TORSDOF 4
ENDMDL
MODEL 5
REMARK VINA RESULT:      -7.9      4.108      6.062
REMARK  Name = 
REMARK  4 active torsions:
REMARK  status: ('A' for Active; 'I' for Inactive)
REMARK    1  A    between atoms: C_2  and  C_18
REMARK    2  A    between atoms: N_3  and  C_4
REMARK    3  A    between atoms: C_9  and  O_10
REMARK    4  A    between atoms: O_10  and  C_11
REMARK                            x       y       z     vdW  Elec       q    Type
REMARK                         _______ _______ _______ _____ _____    ______ ____
ROOT
ATOM      1  C   UNL     1       4.835   5.232  16.188  0.00  0.00    +0.000 C 
ATOM      2  C   UNL     1       5.201   6.707  16.388  0.00  0.00    +0.000 C 
ATOM      3  C   UNL     1       6.551   6.858  17.075  0.00  0.00    +0.000 C 
ATOM      4  O   UNL     1       7.573   6.155  16.379  0.00  0.00    +0.000 OA
ATOM      5  C   UNL     1       7.299   4.755  16.246  0.00  0.00    +0.000 C 
ATOM      6  C   UNL     1       5.993   4.484  15.480  0.00  0.00    +0.000 C 
ENDROOT
BRANCH   1   9
ATOM      7  O   UNL     1       2.370   5.544  17.594  0.00  0.00    +0.000 OA
ATOM      8  C   UNL     1       3.215   4.781  18.043  0.00  0.00    +0.000 C 
ATOM      9  N   UNL     1       4.451   4.608  17.461  0.00  0.00    +0.000 N 
ATOM     10  H   UNL     1       5.119   3.999  17.916  0.00  0.00    +0.000 HD
BRANCH   8  11
ATOM     11  C   UNL     1       2.919   4.015  19.285  0.00  0.00    +0.000 A 
ATOM     12  C   UNL     1       2.504   4.777  20.388  0.00  0.00    +0.000 A 
ATOM     13  C   UNL     1       2.208   4.131  21.575  0.00  0.00    +0.000 A 
ATOM     14  N   UNL     1       2.289   2.795  21.730  0.00  0.00    +0.000 NA
ATOM     15  C   UNL     1       2.668   2.076  20.648  0.00  0.00    +0.000 A 
ATOM     16  C   UNL     1       2.987   2.627  19.413  0.00  0.00    +0.000 A 
ATOM     17 CL   UNL     1       3.399   1.534  18.145  0.00  0.00    +0.000 Cl
ENDBRANCH   8  11
ENDBRANCH   1   9
BRANCH   6  18
ATOM     18  O   UNL     1       6.169   4.961  14.130  0.00  0.00    +0.000 OA
BRANCH  18  19
ATOM     19  C   UNL     1       6.037   4.046  13.120  0.00  0.00    +0.000 A 
ATOM     20  C   UNL     1       7.067   3.254  12.606  0.00  0.00    +0.000 A 
ATOM     21  C   UNL     1       6.819   2.320  11.599  0.00  0.00    +0.000 A 
ATOM     22  C   UNL     1       5.536   2.183  11.085  0.00  0.00    +0.000 A 
ATOM     23  C   UNL     1       4.511   2.972  11.595  0.00  0.00    +0.000 A 
ATOM     24  F   UNL     1       3.277   2.845  11.094  0.00  0.00    +0.000 F 
ATOM     25  C   UNL     1       4.747   3.892  12.615  0.00  0.00    +0.000 A 
ENDBRANCH  18  19
ENDBRANCH   6  18
TORSDOF 4
ENDMDL
MODEL 6
REMARK VINA RESULT:      -7.9      3.667      5.556
REMARK  Name = 
REMARK  4 active torsions:
REMARK  status: ('A' for Active; 'I' for Inactive)
REMARK    1  A    between atoms: C_2  and  C_18
REMARK    2  A    between atoms: N_3  and  C_4
REMARK    3  A    between atoms: C_9  and  O_10
REMARK    4  A    between atoms: O_10  and  C_11
REMARK                            x       y       z     vdW  Elec       q    Type
REMARK                         _______ _______ _______ _____ _____    ______ ____
ROOT
ATOM      1  C   UNL     1       5.456   5.556  16.588  0.00  0.00    +0.000 C 
ATOM      2  C   UNL     1       5.919   6.835  17.295  0.00  0.00    +0.000 C 
ATOM      3  C   UNL     1       6.861   6.524  18.449  0.00  0.00    +0.000 C 
ATOM      4  O   UNL     1       7.963   5.732  18.025  0.00  0.00    +0.000 OA
ATOM      5  C   UNL     1       7.565   4.490  17.432  0.00  0.00    +0.000 C 
ATOM      6  C   UNL     1       6.677   4.690  16.192  0.00  0.00    +0.000 C 
ENDROOT
BRANCH   1   9
ATOM      7  O   UNL     1       2.984   6.534  17.630  0.00  0.00    +0.000 OA
ATOM      8  C   UNL     1       3.290   5.366  17.830  0.00  0.00    +0.000 C 
ATOM      9  N   UNL     1       4.483   4.823  17.411  0.00  0.00    +0.000 N 
ATOM     10  H   UNL     1       4.692   3.864  17.657  0.00  0.00    +0.000 HD
BRANCH   8  11
ATOM     11  C   UNL     1       2.350   4.485  18.578  0.00  0.00    +0.000 A 
ATOM     12  C   UNL     1       2.121   3.220  18.015  0.00  0.00    +0.000 A 
ATOM     13  C   UNL     1       1.261   2.348  18.658  0.00  0.00    +0.000 A 
ATOM     14  N   UNL     1       0.632   2.644  19.811  0.00  0.00    +0.000 NA
ATOM     15  C   UNL     1       0.884   3.859  20.350  0.00  0.00    +0.000 A 
ATOM     16  C   UNL     1       1.728   4.808  19.785  0.00  0.00    +0.000 A 
ATOM     17 CL   UNL     1       1.957   6.278  20.655  0.00  0.00    +0.000 Cl
ENDBRANCH   8  11
ENDBRANCH   1   9
BRANCH   6  18
ATOM     18  O   UNL     1       7.473   5.347  15.184  0.00  0.00    +0.000 OA
BRANCH  18  19
ATOM     19  C   UNL     1       7.291   4.953  13.886  0.00  0.00    +0.000 A 
ATOM     20  C   UNL     1       7.959   5.483  12.779  0.00  0.00    +0.000 A 
ATOM     21  C   UNL     1       7.729   4.982  11.496  0.00  0.00    +0.000 A 
ATOM     22  C   UNL     1       6.813   3.954  11.309  0.00  0.00    +0.000 A 
ATOM     23  C   UNL     1       6.148   3.428  12.411  0.00  0.00    +0.000 A 
ATOM     24  F   UNL     1       5.259   2.444  12.230  0.00  0.00    +0.000 F 
ATOM     25  C   UNL     1       6.387   3.909  13.697  0.00  0.00    +0.000 A 
ENDBRANCH  18  19
ENDBRANCH   6  18
TORSDOF 4
ENDMDL
MODEL 7
REMARK VINA RESULT:      -7.9      4.075      5.837
REMARK  Name = 
REMARK  4 active torsions:
REMARK  status: ('A' for Active; 'I' for Inactive)
REMARK    1  A    between atoms: C_2  and  C_18
REMARK    2  A    between atoms: N_3  and  C_4
REMARK    3  A    between atoms: C_9  and  O_10
REMARK    4  A    between atoms: O_10  and  C_11
REMARK                            x       y       z     vdW  Elec       q    Type
REMARK                         _______ _______ _______ _____ _____    ______ ____
ROOT
ATOM      1  C   UNL     1       4.990   5.662  16.535  0.00  0.00    +0.000 C 
ATOM      2  C   UNL     1       5.747   6.965  16.813  0.00  0.00    +0.000 C 
ATOM      3  C   UNL     1       6.955   6.729  17.708  0.00  0.00    +0.000 C 
ATOM      4  O   UNL     1       7.813   5.729  17.174  0.00  0.00    +0.000 OA
ATOM      5  C   UNL     1       7.155   4.472  16.977  0.00  0.00    +0.000 C 
ATOM      6  C   UNL     1       5.964   4.578  16.010  0.00  0.00    +0.000 C 
ENDROOT
BRANCH   1   9
ATOM      7  O   UNL     1       3.029   3.592  16.678  0.00  0.00    +0.000 OA
ATOM      8  C   UNL     1       3.344   4.181  17.703  0.00  0.00    +0.000 C 
ATOM      9  N   UNL     1       4.241   5.225  17.721  0.00  0.00    +0.000 N 
ATOM     10  H   UNL     1       4.416   5.698  18.598  0.00  0.00    +0.000 HD
BRANCH   8  11
ATOM     11  C   UNL     1       2.723   3.776  18.996  0.00  0.00    +0.000 A 
ATOM     12  C   UNL     1       1.412   4.227  19.211  0.00  0.00    +0.000 A 
ATOM     13  C   UNL     1       0.773   3.886  20.389  0.00  0.00    +0.000 A 
ATOM     14  N   UNL     1       1.341   3.130  21.348  0.00  0.00    +0.000 NA
ATOM     15  C   UNL     1       2.597   2.685  21.111  0.00  0.00    +0.000 A 
ATOM     16  C   UNL     1       3.326   2.971  19.963  0.00  0.00    +0.000 A 
ATOM     17 CL   UNL     1       4.894   2.266  19.830  0.00  0.00    +0.000 Cl
ENDBRANCH   8  11
ENDBRANCH   1   9
BRANCH   6  18
ATOM     18  O   UNL     1       6.485   4.934  14.712  0.00  0.00    +0.000 OA
BRANCH  18  19
ATOM     19  C   UNL     1       6.084   4.175  13.646  0.00  0.00    +0.000 A 
ATOM     20  C   UNL     1       4.760   3.973  13.249  0.00  0.00    +0.000 A 
ATOM     21  C   UNL     1       4.459   3.210  12.119  0.00  0.00    +0.000 A 
ATOM     22  C   UNL     1       5.485   2.628  11.385  0.00  0.00    +0.000 A 
ATOM     23  C   UNL     1       6.802   2.828  11.781  0.00  0.00    +0.000 A 
ATOM     24  F   UNL     1       7.790   2.260  11.079  0.00  0.00    +0.000 F 
ATOM     25  C   UNL     1       7.111   3.605  12.895  0.00  0.00    +0.000 A 
ENDBRANCH  18  19
ENDBRANCH   6  18
TORSDOF 4
ENDMDL
MODEL 8
REMARK VINA RESULT:      -7.9      3.861      5.857
REMARK  Name = 
REMARK  4 active torsions:
REMARK  status: ('A' for Active; 'I' for Inactive)
REMARK    1  A    between atoms: C_2  and  C_18
REMARK    2  A    between atoms: N_3  and  C_4
REMARK    3  A    between atoms: C_9  and  O_10
REMARK    4  A    between atoms: O_10  and  C_11
REMARK                            x       y       z     vdW  Elec       q    Type
REMARK                         _______ _______ _______ _____ _____    ______ ____
ROOT
ATOM      1  C   UNL     1       4.973   5.152  16.266  0.00  0.00    +0.000 C 
ATOM      2  C   UNL     1       5.234   6.653  16.429  0.00  0.00    +0.000 C 
ATOM      3  C   UNL     1       6.563   6.916  17.122  0.00  0.00    +0.000 C 
ATOM      4  O   UNL     1       7.638   6.266  16.454  0.00  0.00    +0.000 OA
ATOM      5  C   UNL     1       7.462   4.848  16.356  0.00  0.00    +0.000 C 
ATOM      6  C   UNL     1       6.186   4.467  15.589  0.00  0.00    +0.000 C 
ENDROOT
BRANCH   1   9
ATOM      7  O   UNL     1       2.766   5.812  17.954  0.00  0.00    +0.000 OA
ATOM      8  C   UNL     1       3.504   4.891  18.277  0.00  0.00    +0.000 C 
ATOM      9  N   UNL     1       4.619   4.536  17.553  0.00  0.00    +0.000 N 
ATOM     10  H   UNL     1       5.213   3.796  17.908  0.00  0.00    +0.000 HD
BRANCH   8  11
ATOM     11  C   UNL     1       3.208   4.122  19.519  0.00  0.00    +0.000 A 
ATOM     12  C   UNL     1       3.858   2.885  19.640  0.00  0.00    +0.000 A 
ATOM     13  C   UNL     1       3.632   2.119  20.769  0.00  0.00    +0.000 A 
ATOM     14  N   UNL     1       2.821   2.501  21.774  0.00  0.00    +0.000 NA
ATOM     15  C   UNL     1       2.222   3.708  21.648  0.00  0.00    +0.000 A 
ATOM     16  C   UNL     1       2.380   4.553  20.556  0.00  0.00    +0.000 A 
ATOM     17 CL   UNL     1       1.569   6.073  20.611  0.00  0.00    +0.000 Cl
ENDBRANCH   8  11
ENDBRANCH   1   9
BRANCH   6  18
ATOM     18  O   UNL     1       6.341   4.918  14.227  0.00  0.00    +0.000 OA
BRANCH  18  19
ATOM     19  C   UNL     1       6.002   4.041  13.233  0.00  0.00    +0.000 A 
ATOM     20  C   UNL     1       4.702   3.774  12.798  0.00  0.00    +0.000 A 
ATOM     21  C   UNL     1       4.465   2.888  11.746  0.00  0.00    +0.000 A 
ATOM     22  C   UNL     1       5.532   2.248  11.128  0.00  0.00    +0.000 A 
ATOM     23  C   UNL     1       6.827   2.513  11.561  0.00  0.00    +0.000 A 
ATOM     24  F   UNL     1       7.853   1.889  10.973  0.00  0.00    +0.000 F 
ATOM     25  C   UNL     1       7.071   3.411  12.598  0.00  0.00    +0.000 A 
ENDBRANCH  18  19
ENDBRANCH   6  18
TORSDOF 4
ENDMDL
MODEL 9
REMARK VINA RESULT:      -7.9      4.093      5.785
REMARK  Name = 
REMARK  4 active torsions:
REMARK  status: ('A' for Active; 'I' for Inactive)
REMARK    1  A    between atoms: C_2  and  C_18
REMARK    2  A    between atoms: N_3  and  C_4
REMARK    3  A    between atoms: C_9  and  O_10
REMARK    4  A    between atoms: O_10  and  C_11
REMARK                            x       y       z     vdW  Elec       q    Type
REMARK                         _______ _______ _______ _____ _____    ______ ____
ROOT
ATOM      1  C   UNL     1       5.427   5.424  16.764  0.00  0.00    +0.000 C 
ATOM      2  C   UNL     1       5.605   6.942  16.650  0.00  0.00    +0.000 C 
ATOM      3  C   UNL     1       6.446   7.493  17.793  0.00  0.00    +0.000 C 
ATOM      4  O   UNL     1       7.697   6.824  17.890  0.00  0.00    +0.000 OA
ATOM      5  C   UNL     1       7.565   5.411  18.078  0.00  0.00    +0.000 C 
ATOM      6  C   UNL     1       6.804   4.734  16.926  0.00  0.00    +0.000 C 
ENDROOT
BRANCH   1   9
ATOM      7  O   UNL     1       4.026   2.964  17.131  0.00  0.00    +0.000 OA
ATOM      8  C   UNL     1       3.896   3.848  17.966  0.00  0.00    +0.000 C 
ATOM      9  N   UNL     1       4.491   5.084  17.845  0.00  0.00    +0.000 N 
ATOM     10  H   UNL     1       4.298   5.785  18.549  0.00  0.00    +0.000 HD
BRANCH   8  11
ATOM     11  C   UNL     1       3.042   3.602  19.161  0.00  0.00    +0.000 A 
ATOM     12  C   UNL     1       1.789   4.231  19.157  0.00  0.00    +0.000 A 
ATOM     13  C   UNL     1       0.942   4.044  20.234  0.00  0.00    +0.000 A 
ATOM     14  N   UNL     1       1.254   3.276  21.296  0.00  0.00    +0.000 NA
ATOM     15  C   UNL     1       2.458   2.659  21.270  0.00  0.00    +0.000 A 
ATOM     16  C   UNL     1       3.381   2.781  20.239  0.00  0.00    +0.000 A 
ATOM     17 CL   UNL     1       4.839   1.872  20.373  0.00  0.00    +0.000 Cl
ENDBRANCH   8  11
ENDBRANCH   1   9
BRANCH   6  18
ATOM     18  O   UNL     1       7.599   4.878  15.731  0.00  0.00    +0.000 OA
BRANCH  18  19
ATOM     19  C   UNL     1       7.038   4.471  14.551  0.00  0.00    +0.000 A 
ATOM     20  C   UNL     1       5.943   3.611  14.431  0.00  0.00    +0.000 A 
ATOM     21  C   UNL     1       5.419   3.288  13.178  0.00  0.00    +0.000 A 
ATOM     22  C   UNL     1       6.001   3.812  12.030  0.00  0.00    +0.000 A 
ATOM     23  C   UNL     1       7.091   4.667  12.150  0.00  0.00    +0.000 A 
ATOM     24  F   UNL     1       7.657   5.164  11.044  0.00  0.00    +0.000 F 
ATOM     25  C   UNL     1       7.606   5.010  13.398  0.00  0.00    +0.000 A 
ENDBRANCH  18  19
ENDBRANCH   6  18
TORSDOF 4
ENDMDL
