MODEL 1
REMARK VINA RESULT:      -7.2      0.000      0.000
REMARK  Name = 
REMARK  9 active torsions:
REMARK  status: ('A' for Active; 'I' for Inactive)
REMARK    1  A    between atoms: C_1  and  C_2
REMARK    2  A    between atoms: C_2  and  C_3
REMARK    3  A    between atoms: N_5  and  C_6
REMARK    4  A    between atoms: C_9  and  S_10
REMARK    5  A    between atoms: S_10  and  C_11
REMARK    6  A    between atoms: C_11  and  C_12
REMARK    7  A    between atoms: C_11  and  C_16
REMARK    8  A    between atoms: C_12  and  C_13
REMARK    9  A    between atoms: C_13  and  O_15
REMARK                            x       y       z     vdW  Elec       q    Type
REMARK                         _______ _______ _______ _____ _____    ______ ____
ROOT
ATOM      1  S   UNL     1       4.764   5.962  19.196  0.00  0.00    +0.000 S 
ENDROOT
BRANCH   1   5
ATOM      2  C   UNL     1       6.096   4.336  15.103  0.00  0.00    +0.000 A 
ATOM      3  C   UNL     1       6.154   5.708  15.377  0.00  0.00    +0.000 A 
ATOM      4  C   UNL     1       5.712   6.226  16.595  0.00  0.00    +0.000 A 
ATOM      5  C   UNL     1       5.177   5.382  17.565  0.00  0.00    +0.000 A 
ATOM      6  C   UNL     1       5.073   4.015  17.283  0.00  0.00    +0.000 A 
ATOM      7  C   UNL     1       5.516   3.493  16.055  0.00  0.00    +0.000 A 
BRANCH   2  10
ATOM      8  C   UNL     1       5.865   3.474  12.787  0.00  0.00    +0.000 C 
ATOM      9  O   UNL     1       4.670   3.719  12.642  0.00  0.00    +0.000 OA
ATOM     10  N   UNL     1       6.613   3.772  13.915  0.00  0.00    +0.000 N 
ATOM     11  H   UNL     1       7.622   3.719  13.831  0.00  0.00    +0.000 HD
BRANCH   8  13
ATOM     12  C   UNL     1       6.024   1.488  11.278  0.00  0.00    +0.000 C 
ATOM     13  C   UNL     1       6.661   2.811  11.679  0.00  0.00    +0.000 C 
ENDBRANCH   8  13
ENDBRANCH   2  10
ENDBRANCH   1   5
BRANCH   1  14
ATOM     14  C   UNL     1       2.936   6.270  19.107  0.00  0.00    +0.000 C 
BRANCH  14  15
ATOM     15  C   UNL     1       2.114   4.983  19.136  0.00  0.00    +0.000 A 
ATOM     16  C   UNL     1       1.748   4.320  20.313  0.00  0.00    +0.000 A 
ATOM     17  C   UNL     1       1.038   3.124  20.263  0.00  0.00    +0.000 A 
ATOM     18  C   UNL     1       0.719   2.604  19.023  0.00  0.00    +0.000 A 
ATOM     19  N   UNL     1       1.050   3.200  17.857  0.00  0.00    +0.000 NA
ATOM     20  C   UNL     1       1.731   4.369  17.940  0.00  0.00    +0.000 A 
ENDBRANCH  14  15
BRANCH  14  21
ATOM     21  C   UNL     1       2.527   7.189  17.949  0.00  0.00    +0.000 C 
BRANCH  21  22
ATOM     22  C   UNL     1       1.973   8.533  18.345  0.00  0.00    +0.000 C 
ATOM     23  O   UNL     1       1.513   8.889  19.411  0.00  0.00    +0.000 OA
BRANCH  22  24
ATOM     24  O   UNL     1       2.002   9.395  17.302  0.00  0.00    +0.000 OA
ATOM     25  H   UNL     1       2.677   9.015  16.699  0.00  0.00    +0.000 HD
ENDBRANCH  22  24
ENDBRANCH  21  22
ENDBRANCH  14  21
ENDBRANCH   1  14
TORSDOF 8
ENDMDL
MODEL 2
REMARK VINA RESULT:      -6.9      2.919      7.726
REMARK  Name = 
REMARK  9 active torsions:
REMARK  status: ('A' for Active; 'I' for Inactive)
REMARK    1  A    between atoms: C_1  and  C_2
REMARK    2  A    between atoms: C_2  and  C_3
REMARK    3  A    between atoms: N_5  and  C_6
REMARK    4  A    between atoms: C_9  and  S_10
REMARK    5  A    between atoms: S_10  and  C_11
REMARK    6  A    between atoms: C_11  and  C_12
REMARK    7  A    between atoms: C_11  and  C_16
REMARK    8  A    between atoms: C_12  and  C_13
REMARK    9  A    between atoms: C_13  and  O_15
REMARK                            x       y       z     vdW  Elec       q    Type
REMARK                         _______ _______ _______ _____ _____    ______ ____
ROOT
ATOM      1  S   UNL     1       4.523   3.849  16.895  0.00  0.00    +0.000 S 
ENDROOT
BRANCH   1   5
ATOM      2  C   UNL     1       2.368   6.854  19.633  0.00  0.00    +0.000 A 
ATOM      3  C   UNL     1       2.171   5.478  19.794  0.00  0.00    +0.000 A 
ATOM      4  C   UNL     1       2.780   4.552  18.944  0.00  0.00    +0.000 A 
ATOM      5  C   UNL     1       3.585   4.985  17.894  0.00  0.00    +0.000 A 
ATOM      6  C   UNL     1       3.750   6.361  17.698  0.00  0.00    +0.000 A 
ATOM      7  C   UNL     1       3.135   7.294  18.552  0.00  0.00    +0.000 A 
BRANCH   2  10
ATOM      8  C   UNL     1       1.186   8.976  20.147  0.00  0.00    +0.000 C 
ATOM      9  O   UNL     1       0.929   9.302  18.991  0.00  0.00    +0.000 OA
ATOM     10  N   UNL     1       1.835   7.811  20.526  0.00  0.00    +0.000 N 
ATOM     11  H   UNL     1       1.796   7.555  21.507  0.00  0.00    +0.000 HD
BRANCH   8  13
ATOM     12  C   UNL     1       0.023   9.049  22.358  0.00  0.00    +0.000 C 
ATOM     13  C   UNL     1       0.776   9.858  21.311  0.00  0.00    +0.000 C 
ENDBRANCH   8  13
ENDBRANCH   2  10
ENDBRANCH   1   5
BRANCH   1  14
ATOM     14  C   UNL     1       6.006   4.837  16.376  0.00  0.00    +0.000 C 
BRANCH  14  15
ATOM     15  C   UNL     1       6.354   4.658  14.900  0.00  0.00    +0.000 A 
ATOM     16  C   UNL     1       5.719   3.738  14.057  0.00  0.00    +0.000 A 
ATOM     17  C   UNL     1       6.120   3.595  12.732  0.00  0.00    +0.000 A 
ATOM     18  C   UNL     1       7.168   4.371  12.279  0.00  0.00    +0.000 A 
ATOM     19  N   UNL     1       7.818   5.271  13.048  0.00  0.00    +0.000 NA
ATOM     20  C   UNL     1       7.397   5.395  14.331  0.00  0.00    +0.000 A 
ENDBRANCH  14  15
BRANCH  14  21
ATOM     21  C   UNL     1       7.225   4.631  17.285  0.00  0.00    +0.000 C 
BRANCH  21  22
ATOM     22  C   UNL     1       7.470   5.711  18.306  0.00  0.00    +0.000 C 
ATOM     23  O   UNL     1       7.778   6.873  18.134  0.00  0.00    +0.000 OA
BRANCH  22  24
ATOM     24  O   UNL     1       7.337   5.228  19.563  0.00  0.00    +0.000 OA
ATOM     25  H   UNL     1       8.210   4.823  19.755  0.00  0.00    +0.000 HD
ENDBRANCH  22  24
ENDBRANCH  21  22
ENDBRANCH  14  21
ENDBRANCH   1  14
TORSDOF 8
ENDMDL
MODEL 3
REMARK VINA RESULT:      -6.9      3.031      7.702
REMARK  Name = 
REMARK  9 active torsions:
REMARK  status: ('A' for Active; 'I' for Inactive)
REMARK    1  A    between atoms: C_1  and  C_2
REMARK    2  A    between atoms: C_2  and  C_3
REMARK    3  A    between atoms: N_5  and  C_6
REMARK    4  A    between atoms: C_9  and  S_10
REMARK    5  A    between atoms: S_10  and  C_11
REMARK    6  A    between atoms: C_11  and  C_12
REMARK    7  A    between atoms: C_11  and  C_16
REMARK    8  A    between atoms: C_12  and  C_13
REMARK    9  A    between atoms: C_13  and  O_15
REMARK                            x       y       z     vdW  Elec       q    Type
REMARK                         _______ _______ _______ _____ _____    ______ ____
ROOT
ATOM      1  S   UNL     1       4.257   6.240  18.064  0.00  0.00    +0.000 S 
ENDROOT
BRANCH   1   5
ATOM      2  C   UNL     1       0.963   9.082  19.561  0.00  0.00    +0.000 A 
ATOM      3  C   UNL     1       1.411   8.027  20.364  0.00  0.00    +0.000 A 
ATOM      4  C   UNL     1       2.376   7.126  19.910  0.00  0.00    +0.000 A 
ATOM      5  C   UNL     1       2.902   7.248  18.627  0.00  0.00    +0.000 A 
ATOM      6  C   UNL     1       2.428   8.273  17.801  0.00  0.00    +0.000 A 
ATOM      7  C   UNL     1       1.454   9.178  18.256  0.00  0.00    +0.000 A 
BRANCH   2  10
ATOM      8  C   UNL     1       0.333  11.017  20.984  0.00  0.00    +0.000 C 
ATOM      9  O   UNL     1       1.425  11.187  21.518  0.00  0.00    +0.000 OA
ATOM     10  N   UNL     1       0.051  10.059  20.021  0.00  0.00    +0.000 N 
ATOM     11  H   UNL     1      -0.817  10.159  19.507  0.00  0.00    +0.000 HD
BRANCH   8  13
ATOM     12  C   UNL     1      -1.218  11.736  22.808  0.00  0.00    +0.000 C 
ATOM     13  C   UNL     1      -0.851  11.897  21.339  0.00  0.00    +0.000 C 
ENDBRANCH   8  13
ENDBRANCH   2  10
ENDBRANCH   1   5
BRANCH   1  14
ATOM     14  C   UNL     1       3.444   4.653  17.549  0.00  0.00    +0.000 C 
BRANCH  14  15
ATOM     15  C   UNL     1       2.709   3.961  18.695  0.00  0.00    +0.000 A 
ATOM     16  C   UNL     1       1.323   3.765  18.724  0.00  0.00    +0.000 A 
ATOM     17  C   UNL     1       0.713   3.169  19.823  0.00  0.00    +0.000 A 
ATOM     18  C   UNL     1       1.508   2.793  20.888  0.00  0.00    +0.000 A 
ATOM     19  N   UNL     1       2.848   2.962  20.915  0.00  0.00    +0.000 NA
ATOM     20  C   UNL     1       3.414   3.535  19.825  0.00  0.00    +0.000 A 
ENDBRANCH  14  15
BRANCH  14  21
ATOM     21  C   UNL     1       4.388   3.696  16.809  0.00  0.00    +0.000 C 
BRANCH  21  22
ATOM     22  C   UNL     1       5.485   4.347  16.008  0.00  0.00    +0.000 C 
ATOM     23  O   UNL     1       5.399   5.074  15.039  0.00  0.00    +0.000 OA
BRANCH  22  24
ATOM     24  O   UNL     1       6.703   3.998  16.483  0.00  0.00    +0.000 OA
ATOM     25  H   UNL     1       6.689   3.016  16.475  0.00  0.00    +0.000 HD
ENDBRANCH  22  24
ENDBRANCH  21  22
ENDBRANCH  14  21
ENDBRANCH   1  14
TORSDOF 8
ENDMDL
MODEL 4
REMARK VINA RESULT:      -6.8      2.666      3.751
REMARK  Name = 
REMARK  9 active torsions:
REMARK  status: ('A' for Active; 'I' for Inactive)
REMARK    1  A    between atoms: C_1  and  C_2
REMARK    2  A    between atoms: C_2  and  C_3
REMARK    3  A    between atoms: N_5  and  C_6
REMARK    4  A    between atoms: C_9  and  S_10
REMARK    5  A    between atoms: S_10  and  C_11
REMARK    6  A    between atoms: C_11  and  C_12
REMARK    7  A    between atoms: C_11  and  C_16
REMARK    8  A    between atoms: C_12  and  C_13
REMARK    9  A    between atoms: C_13  and  O_15
REMARK                            x       y       z     vdW  Elec       q    Type
REMARK                         _______ _______ _______ _____ _____    ______ ____
ROOT
ATOM      1  S   UNL     1       4.544   5.406  19.702  0.00  0.00    +0.000 S 
ENDROOT
BRANCH   1   5
ATOM      2  C   UNL     1       5.811   3.920  15.536  0.00  0.00    +0.000 A 
ATOM      3  C   UNL     1       4.479   3.818  15.952  0.00  0.00    +0.000 A 
ATOM      4  C   UNL     1       4.083   4.221  17.229  0.00  0.00    +0.000 A 
ATOM      5  C   UNL     1       5.020   4.716  18.132  0.00  0.00    +0.000 A 
ATOM      6  C   UNL     1       6.362   4.779  17.740  0.00  0.00    +0.000 A 
ATOM      7  C   UNL     1       6.762   4.371  16.455  0.00  0.00    +0.000 A 
BRANCH   2  10
ATOM      8  C   UNL     1       6.964   4.438  13.399  0.00  0.00    +0.000 C 
ATOM      9  O   UNL     1       7.406   5.538  13.717  0.00  0.00    +0.000 OA
ATOM     10  N   UNL     1       6.228   3.600  14.224  0.00  0.00    +0.000 N 
ATOM     11  H   UNL     1       6.107   2.640  13.922  0.00  0.00    +0.000 HD
BRANCH   8  13
ATOM     12  C   UNL     1       6.318   2.668  11.756  0.00  0.00    +0.000 C 
ATOM     13  C   UNL     1       7.216   3.870  12.015  0.00  0.00    +0.000 C 
ENDBRANCH   8  13
ENDBRANCH   2  10
ENDBRANCH   1   5
BRANCH   1  14
ATOM     14  C   UNL     1       2.711   5.652  19.539  0.00  0.00    +0.000 C 
BRANCH  14  15
ATOM     15  C   UNL     1       2.332   7.091  19.193  0.00  0.00    +0.000 A 
ATOM     16  C   UNL     1       1.648   7.946  20.065  0.00  0.00    +0.000 A 
ATOM     17  C   UNL     1       1.293   9.231  19.667  0.00  0.00    +0.000 A 
ATOM     18  C   UNL     1       1.619   9.632  18.385  0.00  0.00    +0.000 A 
ATOM     19  N   UNL     1       2.274   8.848  17.502  0.00  0.00    +0.000 NA
ATOM     20  C   UNL     1       2.616   7.606  17.925  0.00  0.00    +0.000 A 
ENDBRANCH  14  15
BRANCH  14  21
ATOM     21  C   UNL     1       1.915   5.119  20.737  0.00  0.00    +0.000 C 
BRANCH  21  22
ATOM     22  C   UNL     1       2.095   3.655  21.043  0.00  0.00    +0.000 C 
ATOM     23  O   UNL     1       2.324   3.118  22.108  0.00  0.00    +0.000 OA
BRANCH  22  24
ATOM     24  O   UNL     1       2.004   2.910  19.918  0.00  0.00    +0.000 OA
ATOM     25  H   UNL     1       1.647   3.533  19.248  0.00  0.00    +0.000 HD
ENDBRANCH  22  24
ENDBRANCH  21  22
ENDBRANCH  14  21
ENDBRANCH   1  14
TORSDOF 8
ENDMDL
MODEL 5
REMARK VINA RESULT:      -6.8      2.629      3.745
REMARK  Name = 
REMARK  9 active torsions:
REMARK  status: ('A' for Active; 'I' for Inactive)
REMARK    1  A    between atoms: C_1  and  C_2
REMARK    2  A    between atoms: C_2  and  C_3
REMARK    3  A    between atoms: N_5  and  C_6
REMARK    4  A    between atoms: C_9  and  S_10
REMARK    5  A    between atoms: S_10  and  C_11
REMARK    6  A    between atoms: C_11  and  C_12
REMARK    7  A    between atoms: C_11  and  C_16
REMARK    8  A    between atoms: C_12  and  C_13
REMARK    9  A    between atoms: C_13  and  O_15
REMARK                            x       y       z     vdW  Elec       q    Type
REMARK                         _______ _______ _______ _____ _____    ______ ____
ROOT
ATOM      1  S   UNL     1       4.681   5.156  19.585  0.00  0.00    +0.000 S 
ENDROOT
BRANCH   1   5
ATOM      2  C   UNL     1       6.202   4.045  15.387  0.00  0.00    +0.000 A 
ATOM      3  C   UNL     1       7.045   4.684  16.303  0.00  0.00    +0.000 A 
ATOM      4  C   UNL     1       6.589   5.070  17.565  0.00  0.00    +0.000 A 
ATOM      5  C   UNL     1       5.265   4.846  17.933  0.00  0.00    +0.000 A 
ATOM      6  C   UNL     1       4.403   4.249  17.006  0.00  0.00    +0.000 A 
ATOM      7  C   UNL     1       4.861   3.862  15.735  0.00  0.00    +0.000 A 
BRANCH   2  10
ATOM      8  C   UNL     1       5.903   3.556  12.972  0.00  0.00    +0.000 C 
ATOM      9  O   UNL     1       4.772   4.019  12.852  0.00  0.00    +0.000 OA
ATOM     10  N   UNL     1       6.654   3.566  14.137  0.00  0.00    +0.000 N 
ATOM     11  H   UNL     1       7.643   3.354  14.055  0.00  0.00    +0.000 HD
BRANCH   8  13
ATOM     12  C   UNL     1       5.876   1.671  11.331  0.00  0.00    +0.000 C 
ATOM     13  C   UNL     1       6.612   2.923  11.789  0.00  0.00    +0.000 C 
ENDBRANCH   8  13
ENDBRANCH   2  10
ENDBRANCH   1   5
BRANCH   1  14
ATOM     14  C   UNL     1       2.839   5.279  19.387  0.00  0.00    +0.000 C 
BRANCH  14  15
ATOM     15  C   UNL     1       2.360   6.711  19.154  0.00  0.00    +0.000 A 
ATOM     16  C   UNL     1       2.529   7.401  17.948  0.00  0.00    +0.000 A 
ATOM     17  C   UNL     1       2.110   8.722  17.821  0.00  0.00    +0.000 A 
ATOM     18  C   UNL     1       1.539   9.335  18.919  0.00  0.00    +0.000 A 
ATOM     19  N   UNL     1       1.355   8.718  20.106  0.00  0.00    +0.000 NA
ATOM     20  C   UNL     1       1.763   7.429  20.195  0.00  0.00    +0.000 A 
ENDBRANCH  14  15
BRANCH  14  21
ATOM     21  C   UNL     1       2.056   4.585  20.509  0.00  0.00    +0.000 C 
BRANCH  21  22
ATOM     22  C   UNL     1       2.389   3.134  20.739  0.00  0.00    +0.000 C 
ATOM     23  O   UNL     1       2.519   2.240  19.928  0.00  0.00    +0.000 OA
BRANCH  22  24
ATOM     24  O   UNL     1       2.517   2.870  22.060  0.00  0.00    +0.000 OA
ATOM     25  H   UNL     1       2.872   1.955  22.086  0.00  0.00    +0.000 HD
ENDBRANCH  22  24
ENDBRANCH  21  22
ENDBRANCH  14  21
ENDBRANCH   1  14
TORSDOF 8
ENDMDL
MODEL 6
REMARK VINA RESULT:      -6.8      3.506      8.341
REMARK  Name = 
REMARK  9 active torsions:
REMARK  status: ('A' for Active; 'I' for Inactive)
REMARK    1  A    between atoms: C_1  and  C_2
REMARK    2  A    between atoms: C_2  and  C_3
REMARK    3  A    between atoms: N_5  and  C_6
REMARK    4  A    between atoms: C_9  and  S_10
REMARK    5  A    between atoms: S_10  and  C_11
REMARK    6  A    between atoms: C_11  and  C_12
REMARK    7  A    between atoms: C_11  and  C_16
REMARK    8  A    between atoms: C_12  and  C_13
REMARK    9  A    between atoms: C_13  and  O_15
REMARK                            x       y       z     vdW  Elec       q    Type
REMARK                         _______ _______ _______ _____ _____    ______ ____
ROOT
ATOM      1  S   UNL     1       2.823   5.844  17.845  0.00  0.00    +0.000 S 
ENDROOT
BRANCH   1   5
ATOM      2  C   UNL     1       0.976   9.437  20.047  0.00  0.00    +0.000 A 
ATOM      3  C   UNL     1       1.228   9.499  18.672  0.00  0.00    +0.000 A 
ATOM      4  C   UNL     1       1.829   8.437  17.994  0.00  0.00    +0.000 A 
ATOM      5  C   UNL     1       2.217   7.292  18.685  0.00  0.00    +0.000 A 
ATOM      6  C   UNL     1       2.010   7.239  20.068  0.00  0.00    +0.000 A 
ATOM      7  C   UNL     1       1.406   8.310  20.751  0.00  0.00    +0.000 A 
BRANCH   2  10
ATOM      8  C   UNL     1       0.732  11.767  20.868  0.00  0.00    +0.000 C 
ATOM      9  O   UNL     1       1.737  12.232  20.336  0.00  0.00    +0.000 OA
ATOM     10  N   UNL     1       0.292  10.458  20.746  0.00  0.00    +0.000 N 
ATOM     11  H   UNL     1      -0.653  10.255  21.051  0.00  0.00    +0.000 HD
BRANCH   8  13
ATOM     12  C   UNL     1      -0.999  11.782  22.672  0.00  0.00    +0.000 C 
ATOM     13  C   UNL     1      -0.162  12.638  21.730  0.00  0.00    +0.000 C 
ENDBRANCH   8  13
ENDBRANCH   2  10
ENDBRANCH   1   5
BRANCH   1  14
ATOM     14  C   UNL     1       4.658   5.912  18.115  0.00  0.00    +0.000 C 
BRANCH  14  15
ATOM     15  C   UNL     1       5.457   5.490  16.883  0.00  0.00    +0.000 A 
ATOM     16  C   UNL     1       5.008   4.549  15.950  0.00  0.00    +0.000 A 
ATOM     17  C   UNL     1       5.809   4.177  14.875  0.00  0.00    +0.000 A 
ATOM     18  C   UNL     1       7.062   4.748  14.765  0.00  0.00    +0.000 A 
ATOM     19  N   UNL     1       7.547   5.657  15.638  0.00  0.00    +0.000 NA
ATOM     20  C   UNL     1       6.738   6.007  16.668  0.00  0.00    +0.000 A 
ENDBRANCH  14  15
BRANCH  14  21
ATOM     21  C   UNL     1       5.116   5.174  19.380  0.00  0.00    +0.000 C 
BRANCH  21  22
ATOM     22  C   UNL     1       4.493   3.822  19.611  0.00  0.00    +0.000 C 
ATOM     23  O   UNL     1       3.445   3.545  20.158  0.00  0.00    +0.000 OA
BRANCH  22  24
ATOM     24  O   UNL     1       5.289   2.835  19.139  0.00  0.00    +0.000 OA
ATOM     25  H   UNL     1       5.469   2.278  19.928  0.00  0.00    +0.000 HD
ENDBRANCH  22  24
ENDBRANCH  21  22
ENDBRANCH  14  21
ENDBRANCH   1  14
TORSDOF 8
ENDMDL
MODEL 7
REMARK VINA RESULT:      -6.8      2.651      7.587
REMARK  Name = 
REMARK  9 active torsions:
REMARK  status: ('A' for Active; 'I' for Inactive)
REMARK    1  A    between atoms: C_1  and  C_2
REMARK    2  A    between atoms: C_2  and  C_3
REMARK    3  A    between atoms: N_5  and  C_6
REMARK    4  A    between atoms: C_9  and  S_10
REMARK    5  A    between atoms: S_10  and  C_11
REMARK    6  A    between atoms: C_11  and  C_12
REMARK    7  A    between atoms: C_11  and  C_16
REMARK    8  A    between atoms: C_12  and  C_13
REMARK    9  A    between atoms: C_13  and  O_15
REMARK                            x       y       z     vdW  Elec       q    Type
REMARK                         _______ _______ _______ _____ _____    ______ ____
ROOT
ATOM      1  S   UNL     1       4.455   3.503  17.077  0.00  0.00    +0.000 S 
ENDROOT
BRANCH   1   5
ATOM      2  C   UNL     1       2.454   6.747  19.654  0.00  0.00    +0.000 A 
ATOM      3  C   UNL     1       2.689   6.965  18.293  0.00  0.00    +0.000 A 
ATOM      4  C   UNL     1       3.337   6.012  17.504  0.00  0.00    +0.000 A 
ATOM      5  C   UNL     1       3.786   4.822  18.068  0.00  0.00    +0.000 A 
ATOM      6  C   UNL     1       3.595   4.614  19.439  0.00  0.00    +0.000 A 
ATOM      7  C   UNL     1       2.946   5.574  20.234  0.00  0.00    +0.000 A 
BRANCH   2  10
ATOM      8  C   UNL     1       1.272   8.895  20.044  0.00  0.00    +0.000 C 
ATOM      9  O   UNL     1       1.381   9.348  18.907  0.00  0.00    +0.000 OA
ATOM     10  N   UNL     1       1.727   7.653  20.460  0.00  0.00    +0.000 N 
ATOM     11  H   UNL     1       1.390   7.309  21.352  0.00  0.00    +0.000 HD
BRANCH   8  13
ATOM     12  C   UNL     1       1.027   9.221  22.510  0.00  0.00    +0.000 C 
ATOM     13  C   UNL     1       0.579   9.692  21.133  0.00  0.00    +0.000 C 
ENDBRANCH   8  13
ENDBRANCH   2  10
ENDBRANCH   1   5
BRANCH   1  14
ATOM     14  C   UNL     1       5.954   4.259  16.287  0.00  0.00    +0.000 C 
BRANCH  14  15
ATOM     15  C   UNL     1       6.708   5.203  17.223  0.00  0.00    +0.000 A 
ATOM     16  C   UNL     1       6.917   6.561  16.954  0.00  0.00    +0.000 A 
ATOM     17  C   UNL     1       7.654   7.352  17.830  0.00  0.00    +0.000 A 
ATOM     18  C   UNL     1       8.185   6.759  18.958  0.00  0.00    +0.000 A 
ATOM     19  N   UNL     1       8.018   5.455  19.264  0.00  0.00    +0.000 NA
ATOM     20  C   UNL     1       7.285   4.713  18.398  0.00  0.00    +0.000 A 
ENDBRANCH  14  15
BRANCH  14  21
ATOM     21  C   UNL     1       5.667   4.906  14.926  0.00  0.00    +0.000 C 
BRANCH  21  22
ATOM     22  C   UNL     1       6.670   4.618  13.840  0.00  0.00    +0.000 C 
ATOM     23  O   UNL     1       7.558   5.325  13.410  0.00  0.00    +0.000 OA
BRANCH  22  24
ATOM     24  O   UNL     1       6.464   3.393  13.303  0.00  0.00    +0.000 OA
ATOM     25  H   UNL     1       5.518   3.406  13.039  0.00  0.00    +0.000 HD
ENDBRANCH  22  24
ENDBRANCH  21  22
ENDBRANCH  14  21
ENDBRANCH   1  14
TORSDOF 8
ENDMDL
MODEL 8
REMARK VINA RESULT:      -6.8      3.061      7.447
REMARK  Name = 
REMARK  9 active torsions:
REMARK  status: ('A' for Active; 'I' for Inactive)
REMARK    1  A    between atoms: C_1  and  C_2
REMARK    2  A    between atoms: C_2  and  C_3
REMARK    3  A    between atoms: N_5  and  C_6
REMARK    4  A    between atoms: C_9  and  S_10
REMARK    5  A    between atoms: S_10  and  C_11
REMARK    6  A    between atoms: C_11  and  C_12
REMARK    7  A    between atoms: C_11  and  C_16
REMARK    8  A    between atoms: C_12  and  C_13
REMARK    9  A    between atoms: C_13  and  O_15
REMARK                            x       y       z     vdW  Elec       q    Type
REMARK                         _______ _______ _______ _____ _____    ______ ____
ROOT
ATOM      1  S   UNL     1       4.005   6.201  18.131  0.00  0.00    +0.000 S 
ENDROOT
BRANCH   1   5
ATOM      2  C   UNL     1       0.957   9.464  19.243  0.00  0.00    +0.000 A 
ATOM      3  C   UNL     1       1.300   8.468  20.164  0.00  0.00    +0.000 A 
ATOM      4  C   UNL     1       2.188   7.443  19.830  0.00  0.00    +0.000 A 
ATOM      5  C   UNL     1       2.738   7.378  18.553  0.00  0.00    +0.000 A 
ATOM      6  C   UNL     1       2.365   8.344  17.611  0.00  0.00    +0.000 A 
ATOM      7  C   UNL     1       1.469   9.374  17.946  0.00  0.00    +0.000 A 
BRANCH   2  10
ATOM      8  C   UNL     1      -1.170  10.740  19.125  0.00  0.00    +0.000 C 
ATOM      9  O   UNL     1      -1.797   9.944  18.431  0.00  0.00    +0.000 OA
ATOM     10  N   UNL     1       0.129  10.560  19.576  0.00  0.00    +0.000 N 
ATOM     11  H   UNL     1       0.456  11.178  20.310  0.00  0.00    +0.000 HD
BRANCH   8  13
ATOM     12  C   UNL     1      -0.784  12.911  20.303  0.00  0.00    +0.000 C 
ATOM     13  C   UNL     1      -1.804  12.039  19.582  0.00  0.00    +0.000 C 
ENDBRANCH   8  13
ENDBRANCH   2  10
ENDBRANCH   1   5
BRANCH   1  14
ATOM     14  C   UNL     1       3.059   4.655  17.734  0.00  0.00    +0.000 C 
BRANCH  14  15
ATOM     15  C   UNL     1       2.564   3.923  18.980  0.00  0.00    +0.000 A 
ATOM     16  C   UNL     1       1.221   3.870  19.369  0.00  0.00    +0.000 A 
ATOM     17  C   UNL     1       0.846   3.225  20.544  0.00  0.00    +0.000 A 
ATOM     18  C   UNL     1       1.836   2.654  21.320  0.00  0.00    +0.000 A 
ATOM     19  N   UNL     1       3.146   2.678  20.995  0.00  0.00    +0.000 NA
ATOM     20  C   UNL     1       3.478   3.304  19.839  0.00  0.00    +0.000 A 
ENDBRANCH  14  15
BRANCH  14  21
ATOM     21  C   UNL     1       3.798   3.717  16.771  0.00  0.00    +0.000 C 
BRANCH  21  22
ATOM     22  C   UNL     1       5.094   4.243  16.211  0.00  0.00    +0.000 C 
ATOM     23  O   UNL     1       5.279   4.949  15.240  0.00  0.00    +0.000 OA
BRANCH  22  24
ATOM     24  O   UNL     1       6.149   3.795  16.930  0.00  0.00    +0.000 OA
ATOM     25  H   UNL     1       6.857   3.673  16.261  0.00  0.00    +0.000 HD
ENDBRANCH  22  24
ENDBRANCH  21  22
ENDBRANCH  14  21
ENDBRANCH   1  14
TORSDOF 8
ENDMDL
MODEL 9
REMARK VINA RESULT:      -6.8      2.253      3.595
REMARK  Name = 
REMARK  9 active torsions:
REMARK  status: ('A' for Active; 'I' for Inactive)
REMARK    1  A    between atoms: C_1  and  C_2
REMARK    2  A    between atoms: C_2  and  C_3
REMARK    3  A    between atoms: N_5  and  C_6
REMARK    4  A    between atoms: C_9  and  S_10
REMARK    5  A    between atoms: S_10  and  C_11
REMARK    6  A    between atoms: C_11  and  C_12
REMARK    7  A    between atoms: C_11  and  C_16
REMARK    8  A    between atoms: C_12  and  C_13
REMARK    9  A    between atoms: C_13  and  O_15
REMARK                            x       y       z     vdW  Elec       q    Type
REMARK                         _______ _______ _______ _____ _____    ______ ____
ROOT
ATOM      1  S   UNL     1       4.727   5.753  18.986  0.00  0.00    +0.000 S 
ENDROOT
BRANCH   1   5
ATOM      2  C   UNL     1       6.345   4.028  15.039  0.00  0.00    +0.000 A 
ATOM      3  C   UNL     1       5.309   3.385  15.724  0.00  0.00    +0.000 A 
ATOM      4  C   UNL     1       4.835   3.867  16.946  0.00  0.00    +0.000 A 
ATOM      5  C   UNL     1       5.407   4.996  17.525  0.00  0.00    +0.000 A 
ATOM      6  C   UNL     1       6.475   5.619  16.870  0.00  0.00    +0.000 A 
ATOM      7  C   UNL     1       6.953   5.133  15.641  0.00  0.00    +0.000 A 
BRANCH   2  10
ATOM      8  C   UNL     1       5.974   3.455  12.652  0.00  0.00    +0.000 C 
ATOM      9  O   UNL     1       4.773   3.709  12.610  0.00  0.00    +0.000 OA
ATOM     10  N   UNL     1       6.789   3.616  13.762  0.00  0.00    +0.000 N 
ATOM     11  H   UNL     1       7.792   3.579  13.612  0.00  0.00    +0.000 HD
BRANCH   8  13
ATOM     12  C   UNL     1       6.407   1.458  11.213  0.00  0.00    +0.000 C 
ATOM     13  C   UNL     1       6.701   2.937  11.426  0.00  0.00    +0.000 C 
ENDBRANCH   8  13
ENDBRANCH   2  10
ENDBRANCH   1   5
BRANCH   1  14
ATOM     14  C   UNL     1       2.901   5.785  18.659  0.00  0.00    +0.000 C 
BRANCH  14  15
ATOM     15  C   UNL     1       2.299   7.184  18.782  0.00  0.00    +0.000 A 
ATOM     16  C   UNL     1       2.280   8.116  17.739  0.00  0.00    +0.000 A 
ATOM     17  C   UNL     1       1.757   9.391  17.935  0.00  0.00    +0.000 A 
ATOM     18  C   UNL     1       1.274   9.713  19.189  0.00  0.00    +0.000 A 
ATOM     19  N   UNL     1       1.270   8.854  20.231  0.00  0.00    +0.000 NA
ATOM     20  C   UNL     1       1.776   7.617  20.004  0.00  0.00    +0.000 A 
ENDBRANCH  14  15
BRANCH  14  21
ATOM     21  C   UNL     1       2.116   4.747  19.472  0.00  0.00    +0.000 C 
BRANCH  21  22
ATOM     22  C   UNL     1       1.317   3.755  18.668  0.00  0.00    +0.000 C 
ATOM     23  O   UNL     1       0.805   2.713  19.026  0.00  0.00    +0.000 OA
BRANCH  22  24
ATOM     24  O   UNL     1       1.229   4.139  17.374  0.00  0.00    +0.000 OA
ATOM     25  H   UNL     1       2.155   4.353  17.127  0.00  0.00    +0.000 HD
ENDBRANCH  22  24
ENDBRANCH  21  22
ENDBRANCH  14  21
ENDBRANCH   1  14
TORSDOF 8
ENDMDL
