MODEL 1
REMARK VINA RESULT:      -8.3      0.000      0.000
REMARK  Name = 
REMARK  10 active torsions:
REMARK  status: ('A' for Active; 'I' for Inactive)
REMARK    1  A    between atoms: C_1  and  C_2
REMARK    2  A    between atoms: C_2  and  N_3
REMARK    3  A    between atoms: C_4  and  C_5
REMARK    4  A    between atoms: C_5  and  O_6
REMARK    5  A    between atoms: C_5  and  C_7
REMARK    6  A    between atoms: C_5  and  C_13
REMARK    7  A    between atoms: C_22  and  O_23
REMARK    8  A    between atoms: O_23  and  C_24
REMARK    9  A    between atoms: C_24  and  C_25
REMARK   10  A    between atoms: C_25  and  O_26
REMARK                            x       y       z     vdW  Elec       q    Type
REMARK                         _______ _______ _______ _____ _____    ______ ____
ROOT
ATOM      1  N   UNL     1       5.891   5.813  17.385  0.00  0.00    +0.000 N 
ATOM      2  C   UNL     1       4.598   5.336  17.597  0.00  0.00    +0.000 A 
ATOM      3  N   UNL     1       4.203   4.686  16.500  0.00  0.00    +0.000 NA
ATOM      4  C   UNL     1       5.246   4.685  15.615  0.00  0.00    +0.000 A 
ATOM      5  C   UNL     1       5.344   4.123  14.341  0.00  0.00    +0.000 A 
ATOM      6  C   UNL     1       6.568   4.282  13.712  0.00  0.00    +0.000 A 
ATOM      7  N   UNL     1       7.618   4.961  14.225  0.00  0.00    +0.000 NA
ATOM      8  C   UNL     1       7.506   5.524  15.448  0.00  0.00    +0.000 A 
ATOM      9  C   UNL     1       6.323   5.370  16.146  0.00  0.00    +0.000 A 
ENDROOT
BRANCH   1  11
ATOM     10  C   UNL     1       7.766   5.954  18.963  0.00  0.00    +0.000 C 
ATOM     11  C   UNL     1       6.704   6.717  18.183  0.00  0.00    +0.000 C 
ENDBRANCH   1  11
BRANCH   2  12
ATOM     12  C   UNL     1       3.708   5.506  18.871  0.00  0.00    +0.000 C 
BRANCH  12  13
ATOM     13  C   UNL     1       2.940   6.851  18.863  0.00  0.00    +0.000 A 
ATOM     14  C   UNL     1       2.205   7.267  19.989  0.00  0.00    +0.000 A 
ATOM     15  C   UNL     1       1.458   8.449  19.975  0.00  0.00    +0.000 A 
ATOM     16  C   UNL     1       1.431   9.249  18.836  0.00  0.00    +0.000 A 
ATOM     17  C   UNL     1       2.176   8.884  17.721  0.00  0.00    +0.000 A 
ATOM     18  C   UNL     1       2.936   7.712  17.741  0.00  0.00    +0.000 A 
ENDBRANCH  12  13
BRANCH  12  19
ATOM     19  C   UNL     1       2.783   4.294  19.138  0.00  0.00    +0.000 A 
ATOM     20  C   UNL     1       1.688   4.034  18.285  0.00  0.00    +0.000 A 
ATOM     21  C   UNL     1       0.758   3.028  18.571  0.00  0.00    +0.000 A 
ATOM     22  C   UNL     1       0.914   2.238  19.703  0.00  0.00    +0.000 A 
ATOM     23  C   UNL     1       2.029   2.418  20.518  0.00  0.00    +0.000 A 
ATOM     24  C   UNL     1       2.958   3.423  20.229  0.00  0.00    +0.000 A 
ENDBRANCH  12  19
BRANCH  12  25
ATOM     25  O   UNL     1       4.617   5.523  19.984  0.00  0.00    +0.000 OA
ATOM     26  H   UNL     1       4.597   6.424  20.332  0.00  0.00    +0.000 HD
ENDBRANCH  12  25
ENDBRANCH   2  12
BRANCH   6  27
ATOM     27  O   UNL     1       6.693   3.726  12.452  0.00  0.00    +0.000 OA
BRANCH  27  28
ATOM     28  C   UNL     1       5.476   3.091  12.027  0.00  0.00    +0.000 C 
BRANCH  28  29
ATOM     29  C   UNL     1       5.830   1.740  11.414  0.00  0.00    +0.000 C 
BRANCH  29  30
ATOM     30  O   UNL     1       7.244   1.602  11.285  0.00  0.00    +0.000 OA
ATOM     31  H   UNL     1       7.413   1.401  10.346  0.00  0.00    +0.000 HD
ENDBRANCH  29  30
ENDBRANCH  28  29
ENDBRANCH  27  28
ENDBRANCH   6  27
TORSDOF 9
ENDMDL
MODEL 2
REMARK VINA RESULT:      -8.1      0.178      1.274
REMARK  Name = 
REMARK  10 active torsions:
REMARK  status: ('A' for Active; 'I' for Inactive)
REMARK    1  A    between atoms: C_1  and  C_2
REMARK    2  A    between atoms: C_2  and  N_3
REMARK    3  A    between atoms: C_4  and  C_5
REMARK    4  A    between atoms: C_5  and  O_6
REMARK    5  A    between atoms: C_5  and  C_7
REMARK    6  A    between atoms: C_5  and  C_13
REMARK    7  A    between atoms: C_22  and  O_23
REMARK    8  A    between atoms: O_23  and  C_24
REMARK    9  A    between atoms: C_24  and  C_25
REMARK   10  A    between atoms: C_25  and  O_26
REMARK                            x       y       z     vdW  Elec       q    Type
REMARK                         _______ _______ _______ _____ _____    ______ ____
ROOT
ATOM      1  N   UNL     1       5.778   5.945  17.333  0.00  0.00    +0.000 N 
ATOM      2  C   UNL     1       4.524   5.389  17.584  0.00  0.00    +0.000 A 
ATOM      3  N   UNL     1       4.168   4.657  16.526  0.00  0.00    +0.000 NA
ATOM      4  C   UNL     1       5.201   4.685  15.631  0.00  0.00    +0.000 A 
ATOM      5  C   UNL     1       5.329   4.066  14.386  0.00  0.00    +0.000 A 
ATOM      6  C   UNL     1       6.534   4.279  13.735  0.00  0.00    +0.000 A 
ATOM      7  N   UNL     1       7.536   5.056  14.201  0.00  0.00    +0.000 NA
ATOM      8  C   UNL     1       7.394   5.672  15.394  0.00  0.00    +0.000 A 
ATOM      9  C   UNL     1       6.230   5.470  16.114  0.00  0.00    +0.000 A 
ENDROOT
BRANCH   1  11
ATOM     10  C   UNL     1       7.750   6.326  18.745  0.00  0.00    +0.000 C 
ATOM     11  C   UNL     1       6.530   6.944  18.074  0.00  0.00    +0.000 C 
ENDBRANCH   1  11
BRANCH   2  12
ATOM     12  C   UNL     1       3.634   5.560  18.858  0.00  0.00    +0.000 C 
BRANCH  12  13
ATOM     13  C   UNL     1       2.851   6.897  18.839  0.00  0.00    +0.000 A 
ATOM     14  C   UNL     1       2.864   7.722  17.699  0.00  0.00    +0.000 A 
ATOM     15  C   UNL     1       2.212   8.959  17.688  0.00  0.00    +0.000 A 
ATOM     16  C   UNL     1       1.525   9.401  18.814  0.00  0.00    +0.000 A 
ATOM     17  C   UNL     1       1.464   8.593  19.944  0.00  0.00    +0.000 A 
ATOM     18  C   UNL     1       2.100   7.349  19.949  0.00  0.00    +0.000 A 
ENDBRANCH  12  13
BRANCH  12  19
ATOM     19  C   UNL     1       2.724   4.340  19.138  0.00  0.00    +0.000 A 
ATOM     20  C   UNL     1       3.001   3.480  20.223  0.00  0.00    +0.000 A 
ATOM     21  C   UNL     1       2.279   2.299  20.426  0.00  0.00    +0.000 A 
ATOM     22  C   UNL     1       1.243   1.960  19.564  0.00  0.00    +0.000 A 
ATOM     23  C   UNL     1       0.895   2.829  18.534  0.00  0.00    +0.000 A 
ATOM     24  C   UNL     1       1.618   4.011  18.334  0.00  0.00    +0.000 A 
ENDBRANCH  12  19
BRANCH  12  25
ATOM     25  O   UNL     1       4.545   5.599  19.969  0.00  0.00    +0.000 OA
ATOM     26  H   UNL     1       5.095   6.382  19.836  0.00  0.00    +0.000 HD
ENDBRANCH  12  25
ENDBRANCH   2  12
BRANCH   6  27
ATOM     27  O   UNL     1       6.687   3.669  12.503  0.00  0.00    +0.000 OA
BRANCH  27  28
ATOM     28  C   UNL     1       5.465   3.064  12.052  0.00  0.00    +0.000 C 
BRANCH  28  29
ATOM     29  C   UNL     1       5.811   1.763  11.336  0.00  0.00    +0.000 C 
BRANCH  29  30
ATOM     30  O   UNL     1       7.221   1.548  11.337  0.00  0.00    +0.000 OA
ATOM     31  H   UNL     1       7.350   0.582  11.310  0.00  0.00    +0.000 HD
ENDBRANCH  29  30
ENDBRANCH  28  29
ENDBRANCH  27  28
ENDBRANCH   6  27
TORSDOF 9
ENDMDL
MODEL 3
REMARK VINA RESULT:      -7.7      3.346      7.168
REMARK  Name = 
REMARK  10 active torsions:
REMARK  status: ('A' for Active; 'I' for Inactive)
REMARK    1  A    between atoms: C_1  and  C_2
REMARK    2  A    between atoms: C_2  and  N_3
REMARK    3  A    between atoms: C_4  and  C_5
REMARK    4  A    between atoms: C_5  and  O_6
REMARK    5  A    between atoms: C_5  and  C_7
REMARK    6  A    between atoms: C_5  and  C_13
REMARK    7  A    between atoms: C_22  and  O_23
REMARK    8  A    between atoms: O_23  and  C_24
REMARK    9  A    between atoms: C_24  and  C_25
REMARK   10  A    between atoms: C_25  and  O_26
REMARK                            x       y       z     vdW  Elec       q    Type
REMARK                         _______ _______ _______ _____ _____    ______ ____
ROOT
ATOM      1  N   UNL     1       2.650   6.731  19.502  0.00  0.00    +0.000 N 
ATOM      2  C   UNL     1       3.265   6.737  18.251  0.00  0.00    +0.000 A 
ATOM      3  N   UNL     1       2.841   7.808  17.577  0.00  0.00    +0.000 NA
ATOM      4  C   UNL     1       2.015   8.521  18.401  0.00  0.00    +0.000 A 
ATOM      5  C   UNL     1       1.337   9.721  18.177  0.00  0.00    +0.000 A 
ATOM      6  C   UNL     1       0.594  10.195  19.245  0.00  0.00    +0.000 A 
ATOM      7  N   UNL     1       0.459   9.564  20.433  0.00  0.00    +0.000 NA
ATOM      8  C   UNL     1       1.096   8.390  20.633  0.00  0.00    +0.000 A 
ATOM      9  C   UNL     1       1.887   7.881  19.619  0.00  0.00    +0.000 A 
ENDROOT
BRANCH   1  11
ATOM     10  C   UNL     1       1.369   4.867  20.457  0.00  0.00    +0.000 C 
ATOM     11  C   UNL     1       2.633   5.711  20.538  0.00  0.00    +0.000 C 
ENDBRANCH   1  11
BRANCH   2  12
ATOM     12  C   UNL     1       4.277   5.694  17.673  0.00  0.00    +0.000 C 
BRANCH  12  13
ATOM     13  C   UNL     1       5.737   6.026  18.072  0.00  0.00    +0.000 A 
ATOM     14  C   UNL     1       6.345   5.391  19.171  0.00  0.00    +0.000 A 
ATOM     15  C   UNL     1       7.640   5.724  19.581  0.00  0.00    +0.000 A 
ATOM     16  C   UNL     1       8.363   6.697  18.897  0.00  0.00    +0.000 A 
ATOM     17  C   UNL     1       7.804   7.317  17.786  0.00  0.00    +0.000 A 
ATOM     18  C   UNL     1       6.517   6.972  17.367  0.00  0.00    +0.000 A 
ENDBRANCH  12  13
BRANCH  12  19
ATOM     19  C   UNL     1       3.893   4.229  17.986  0.00  0.00    +0.000 A 
ATOM     20  C   UNL     1       2.816   3.616  17.309  0.00  0.00    +0.000 A 
ATOM     21  C   UNL     1       2.359   2.340  17.659  0.00  0.00    +0.000 A 
ATOM     22  C   UNL     1       2.985   1.633  18.679  0.00  0.00    +0.000 A 
ATOM     23  C   UNL     1       4.100   2.179  19.310  0.00  0.00    +0.000 A 
ATOM     24  C   UNL     1       4.556   3.454  18.956  0.00  0.00    +0.000 A 
ENDBRANCH  12  19
BRANCH  12  25
ATOM     25  O   UNL     1       4.175   5.801  16.243  0.00  0.00    +0.000 OA
ATOM     26  H   UNL     1       4.228   6.745  16.042  0.00  0.00    +0.000 HD
ENDBRANCH  12  25
ENDBRANCH   2  12
BRANCH   6  27
ATOM     27  O   UNL     1      -0.080  11.387  19.049  0.00  0.00    +0.000 OA
BRANCH  27  28
ATOM     28  C   UNL     1      -1.494  11.240  19.260  0.00  0.00    +0.000 C 
BRANCH  28  29
ATOM     29  C   UNL     1      -2.215  11.676  17.989  0.00  0.00    +0.000 C 
BRANCH  29  30
ATOM     30  O   UNL     1      -1.362  12.483  17.180  0.00  0.00    +0.000 OA
ATOM     31  H   UNL     1      -0.730  12.908  17.789  0.00  0.00    +0.000 HD
ENDBRANCH  29  30
ENDBRANCH  28  29
ENDBRANCH  27  28
ENDBRANCH   6  27
TORSDOF 9
ENDMDL
MODEL 4
REMARK VINA RESULT:      -7.5      3.431      7.317
REMARK  Name = 
REMARK  10 active torsions:
REMARK  status: ('A' for Active; 'I' for Inactive)
REMARK    1  A    between atoms: C_1  and  C_2
REMARK    2  A    between atoms: C_2  and  N_3
REMARK    3  A    between atoms: C_4  and  C_5
REMARK    4  A    between atoms: C_5  and  O_6
REMARK    5  A    between atoms: C_5  and  C_7
REMARK    6  A    between atoms: C_5  and  C_13
REMARK    7  A    between atoms: C_22  and  O_23
REMARK    8  A    between atoms: O_23  and  C_24
REMARK    9  A    between atoms: C_24  and  C_25
REMARK   10  A    between atoms: C_25  and  O_26
REMARK                            x       y       z     vdW  Elec       q    Type
REMARK                         _______ _______ _______ _____ _____    ______ ____
ROOT
ATOM      1  N   UNL     1       2.528   6.721  19.660  0.00  0.00    +0.000 N 
ATOM      2  C   UNL     1       3.140   6.751  18.407  0.00  0.00    +0.000 A 
ATOM      3  N   UNL     1       2.725   7.843  17.762  0.00  0.00    +0.000 NA
ATOM      4  C   UNL     1       1.908   8.544  18.606  0.00  0.00    +0.000 A 
ATOM      5  C   UNL     1       1.243   9.756  18.413  0.00  0.00    +0.000 A 
ATOM      6  C   UNL     1       0.507  10.210  19.495  0.00  0.00    +0.000 A 
ATOM      7  N   UNL     1       0.369   9.552  20.667  0.00  0.00    +0.000 NA
ATOM      8  C   UNL     1       0.995   8.367  20.836  0.00  0.00    +0.000 A 
ATOM      9  C   UNL     1       1.778   7.875  19.808  0.00  0.00    +0.000 A 
ENDROOT
BRANCH   1  11
ATOM     10  C   UNL     1       1.267   4.801  20.525  0.00  0.00    +0.000 C 
ATOM     11  C   UNL     1       2.504   5.676  20.671  0.00  0.00    +0.000 C 
ENDBRANCH   1  11
BRANCH   2  12
ATOM     12  C   UNL     1       4.140   5.713  17.801  0.00  0.00    +0.000 C 
BRANCH  12  13
ATOM     13  C   UNL     1       5.607   6.032  18.187  0.00  0.00    +0.000 A 
ATOM     14  C   UNL     1       6.364   6.952  17.438  0.00  0.00    +0.000 A 
ATOM     15  C   UNL     1       7.707   7.204  17.737  0.00  0.00    +0.000 A 
ATOM     16  C   UNL     1       8.325   6.547  18.798  0.00  0.00    +0.000 A 
ATOM     17  C   UNL     1       7.593   5.660  19.578  0.00  0.00    +0.000 A 
ATOM     18  C   UNL     1       6.248   5.421  19.290  0.00  0.00    +0.000 A 
ENDBRANCH  12  13
BRANCH  12  19
ATOM     19  C   UNL     1       3.752   4.245  18.097  0.00  0.00    +0.000 A 
ATOM     20  C   UNL     1       4.455   3.507  19.075  0.00  0.00    +0.000 A 
ATOM     21  C   UNL     1       4.218   2.142  19.274  0.00  0.00    +0.000 A 
ATOM     22  C   UNL     1       3.253   1.486  18.520  0.00  0.00    +0.000 A 
ATOM     23  C   UNL     1       2.489   2.206  17.605  0.00  0.00    +0.000 A 
ATOM     24  C   UNL     1       2.727   3.571  17.408  0.00  0.00    +0.000 A 
ENDBRANCH  12  19
BRANCH  12  25
ATOM     25  O   UNL     1       4.021   5.843  16.375  0.00  0.00    +0.000 OA
ATOM     26  H   UNL     1       4.344   5.011  16.003  0.00  0.00    +0.000 HD
ENDBRANCH  12  25
ENDBRANCH   2  12
BRANCH   6  27
ATOM     27  O   UNL     1      -0.155  11.414  19.331  0.00  0.00    +0.000 OA
BRANCH  27  28
ATOM     28  C   UNL     1      -1.572  11.226  19.185  0.00  0.00    +0.000 C 
BRANCH  28  29
ATOM     29  C   UNL     1      -1.952  11.548  17.743  0.00  0.00    +0.000 C 
BRANCH  29  30
ATOM     30  O   UNL     1      -1.239  12.694  17.280  0.00  0.00    +0.000 OA
ATOM     31  H   UNL     1      -1.911  13.374  17.090  0.00  0.00    +0.000 HD
ENDBRANCH  29  30
ENDBRANCH  28  29
ENDBRANCH  27  28
ENDBRANCH   6  27
TORSDOF 9
ENDMDL
MODEL 5
REMARK VINA RESULT:      -7.5      0.742      1.237
REMARK  Name = 
REMARK  10 active torsions:
REMARK  status: ('A' for Active; 'I' for Inactive)
REMARK    1  A    between atoms: C_1  and  C_2
REMARK    2  A    between atoms: C_2  and  N_3
REMARK    3  A    between atoms: C_4  and  C_5
REMARK    4  A    between atoms: C_5  and  O_6
REMARK    5  A    between atoms: C_5  and  C_7
REMARK    6  A    between atoms: C_5  and  C_13
REMARK    7  A    between atoms: C_22  and  O_23
REMARK    8  A    between atoms: O_23  and  C_24
REMARK    9  A    between atoms: C_24  and  C_25
REMARK   10  A    between atoms: C_25  and  O_26
REMARK                            x       y       z     vdW  Elec       q    Type
REMARK                         _______ _______ _______ _____ _____    ______ ____
ROOT
ATOM      1  N   UNL     1       5.826   5.822  17.414  0.00  0.00    +0.000 N 
ATOM      2  C   UNL     1       4.537   5.339  17.639  0.00  0.00    +0.000 A 
ATOM      3  N   UNL     1       4.134   4.688  16.547  0.00  0.00    +0.000 NA
ATOM      4  C   UNL     1       5.167   4.692  15.651  0.00  0.00    +0.000 A 
ATOM      5  C   UNL     1       5.255   4.129  14.376  0.00  0.00    +0.000 A 
ATOM      6  C   UNL     1       6.472   4.294  13.735  0.00  0.00    +0.000 A 
ATOM      7  N   UNL     1       7.524   4.978  14.237  0.00  0.00    +0.000 NA
ATOM      8  C   UNL     1       7.422   5.541  15.460  0.00  0.00    +0.000 A 
ATOM      9  C   UNL     1       6.247   5.381  16.171  0.00  0.00    +0.000 A 
ENDROOT
BRANCH   1  11
ATOM     10  C   UNL     1       7.739   5.977  18.943  0.00  0.00    +0.000 C 
ATOM     11  C   UNL     1       6.643   6.730  18.203  0.00  0.00    +0.000 C 
ENDBRANCH   1  11
BRANCH   2  12
ATOM     12  C   UNL     1       3.659   5.505  18.923  0.00  0.00    +0.000 C 
BRANCH  12  13
ATOM     13  C   UNL     1       2.859   6.832  18.906  0.00  0.00    +0.000 A 
ATOM     14  C   UNL     1       2.864   7.661  17.769  0.00  0.00    +0.000 A 
ATOM     15  C   UNL     1       2.196   8.890  17.761  0.00  0.00    +0.000 A 
ATOM     16  C   UNL     1       1.501   9.318  18.888  0.00  0.00    +0.000 A 
ATOM     17  C   UNL     1       1.447   8.505  20.014  0.00  0.00    +0.000 A 
ATOM     18  C   UNL     1       2.100   7.270  20.016  0.00  0.00    +0.000 A 
ENDBRANCH  12  13
BRANCH  12  19
ATOM     19  C   UNL     1       2.768   4.275  19.218  0.00  0.00    +0.000 A 
ATOM     20  C   UNL     1       1.791   3.864  18.284  0.00  0.00    +0.000 A 
ATOM     21  C   UNL     1       0.883   2.841  18.576  0.00  0.00    +0.000 A 
ATOM     22  C   UNL     1       0.946   2.182  19.797  0.00  0.00    +0.000 A 
ATOM     23  C   UNL     1       1.950   2.511  20.704  0.00  0.00    +0.000 A 
ATOM     24  C   UNL     1       2.858   3.534  20.410  0.00  0.00    +0.000 A 
ENDBRANCH  12  19
BRANCH  12  25
ATOM     25  O   UNL     1       4.582   5.560  20.023  0.00  0.00    +0.000 OA
ATOM     26  H   UNL     1       4.606   6.484  20.305  0.00  0.00    +0.000 HD
ENDBRANCH  12  25
ENDBRANCH   2  12
BRANCH   6  27
ATOM     27  O   UNL     1       6.586   3.738  12.473  0.00  0.00    +0.000 OA
BRANCH  27  28
ATOM     28  C   UNL     1       5.505   2.836  12.189  0.00  0.00    +0.000 C 
BRANCH  28  29
ATOM     29  C   UNL     1       4.687   3.416  11.040  0.00  0.00    +0.000 C 
BRANCH  29  30
ATOM     30  O   UNL     1       3.379   2.847  11.016  0.00  0.00    +0.000 OA
ATOM     31  H   UNL     1       2.761   3.589  10.882  0.00  0.00    +0.000 HD
ENDBRANCH  29  30
ENDBRANCH  28  29
ENDBRANCH  27  28
ENDBRANCH   6  27
TORSDOF 9
ENDMDL
MODEL 6
REMARK VINA RESULT:      -7.5      3.422      7.602
REMARK  Name = 
REMARK  10 active torsions:
REMARK  status: ('A' for Active; 'I' for Inactive)
REMARK    1  A    between atoms: C_1  and  C_2
REMARK    2  A    between atoms: C_2  and  N_3
REMARK    3  A    between atoms: C_4  and  C_5
REMARK    4  A    between atoms: C_5  and  O_6
REMARK    5  A    between atoms: C_5  and  C_7
REMARK    6  A    between atoms: C_5  and  C_13
REMARK    7  A    between atoms: C_22  and  O_23
REMARK    8  A    between atoms: O_23  and  C_24
REMARK    9  A    between atoms: C_24  and  C_25
REMARK   10  A    between atoms: C_25  and  O_26
REMARK                            x       y       z     vdW  Elec       q    Type
REMARK                         _______ _______ _______ _____ _____    ______ ____
ROOT
ATOM      1  N   UNL     1       2.564   6.482  19.774  0.00  0.00    +0.000 N 
ATOM      2  C   UNL     1       3.163   6.640  18.525  0.00  0.00    +0.000 A 
ATOM      3  N   UNL     1       2.744   7.792  17.998  0.00  0.00    +0.000 NA
ATOM      4  C   UNL     1       1.937   8.403  18.918  0.00  0.00    +0.000 A 
ATOM      5  C   UNL     1       1.271   9.629  18.857  0.00  0.00    +0.000 A 
ATOM      6  C   UNL     1       0.548   9.971  19.987  0.00  0.00    +0.000 A 
ATOM      7  N   UNL     1       0.420   9.197  21.087  0.00  0.00    +0.000 NA
ATOM      8  C   UNL     1       1.046   8.001  21.128  0.00  0.00    +0.000 A 
ATOM      9  C   UNL     1       1.817   7.615  20.047  0.00  0.00    +0.000 A 
ENDROOT
BRANCH   1  11
ATOM     10  C   UNL     1       1.265   4.536  20.517  0.00  0.00    +0.000 C 
ATOM     11  C   UNL     1       2.549   5.340  20.673  0.00  0.00    +0.000 C 
ENDBRANCH   1  11
BRANCH   2  12
ATOM     12  C   UNL     1       4.155   5.669  17.805  0.00  0.00    +0.000 C 
BRANCH  12  13
ATOM     13  C   UNL     1       5.633   6.026  18.107  0.00  0.00    +0.000 A 
ATOM     14  C   UNL     1       6.312   5.426  19.183  0.00  0.00    +0.000 A 
ATOM     15  C   UNL     1       7.626   5.783  19.505  0.00  0.00    +0.000 A 
ATOM     16  C   UNL     1       8.295   6.745  18.755  0.00  0.00    +0.000 A 
ATOM     17  C   UNL     1       7.663   7.330  17.664  0.00  0.00    +0.000 A 
ATOM     18  C   UNL     1       6.357   6.961  17.332  0.00  0.00    +0.000 A 
ENDBRANCH  12  13
BRANCH  12  19
ATOM     19  C   UNL     1       3.840   4.175  18.057  0.00  0.00    +0.000 A 
ATOM     20  C   UNL     1       2.803   3.536  17.342  0.00  0.00    +0.000 A 
ATOM     21  C   UNL     1       2.407   2.227  17.638  0.00  0.00    +0.000 A 
ATOM     22  C   UNL     1       3.055   1.513  18.638  0.00  0.00    +0.000 A 
ATOM     23  C   UNL     1       4.134   2.088  19.304  0.00  0.00    +0.000 A 
ATOM     24  C   UNL     1       4.530   3.397  19.005  0.00  0.00    +0.000 A 
ENDBRANCH  12  19
BRANCH  12  25
ATOM     25  O   UNL     1       3.934   5.856  16.398  0.00  0.00    +0.000 OA
ATOM     26  H   UNL     1       4.190   6.768  16.206  0.00  0.00    +0.000 HD
ENDBRANCH  12  25
ENDBRANCH   2  12
BRANCH   6  27
ATOM     27  O   UNL     1      -0.115  11.186  19.954  0.00  0.00    +0.000 OA
BRANCH  27  28
ATOM     28  C   UNL     1       0.355  12.077  20.978  0.00  0.00    +0.000 C 
BRANCH  28  29
ATOM     29  C   UNL     1      -0.744  12.220  22.027  0.00  0.00    +0.000 C 
BRANCH  29  30
ATOM     30  O   UNL     1      -0.502  11.347  23.130  0.00  0.00    +0.000 OA
ATOM     31  H   UNL     1      -0.139  10.525  22.752  0.00  0.00    +0.000 HD
ENDBRANCH  29  30
ENDBRANCH  28  29
ENDBRANCH  27  28
ENDBRANCH   6  27
TORSDOF 9
ENDMDL
MODEL 7
REMARK VINA RESULT:      -7.4      3.470      7.352
REMARK  Name = 
REMARK  10 active torsions:
REMARK  status: ('A' for Active; 'I' for Inactive)
REMARK    1  A    between atoms: C_1  and  C_2
REMARK    2  A    between atoms: C_2  and  N_3
REMARK    3  A    between atoms: C_4  and  C_5
REMARK    4  A    between atoms: C_5  and  O_6
REMARK    5  A    between atoms: C_5  and  C_7
REMARK    6  A    between atoms: C_5  and  C_13
REMARK    7  A    between atoms: C_22  and  O_23
REMARK    8  A    between atoms: O_23  and  C_24
REMARK    9  A    between atoms: C_24  and  C_25
REMARK   10  A    between atoms: C_25  and  O_26
REMARK                            x       y       z     vdW  Elec       q    Type
REMARK                         _______ _______ _______ _____ _____    ______ ____
ROOT
ATOM      1  N   UNL     1       2.512   6.426  19.888  0.00  0.00    +0.000 N 
ATOM      2  C   UNL     1       3.108   6.629  18.643  0.00  0.00    +0.000 A 
ATOM      3  N   UNL     1       2.666   7.787  18.149  0.00  0.00    +0.000 NA
ATOM      4  C   UNL     1       1.847   8.357  19.084  0.00  0.00    +0.000 A 
ATOM      5  C   UNL     1       1.158   9.571  19.056  0.00  0.00    +0.000 A 
ATOM      6  C   UNL     1       0.428   9.868  20.196  0.00  0.00    +0.000 A 
ATOM      7  N   UNL     1       0.316   9.061  21.274  0.00  0.00    +0.000 NA
ATOM      8  C   UNL     1       0.965   7.877  21.282  0.00  0.00    +0.000 A 
ATOM      9  C   UNL     1       1.743   7.536  20.191  0.00  0.00    +0.000 A 
ENDROOT
BRANCH   1  11
ATOM     10  C   UNL     1       1.241   4.447  20.593  0.00  0.00    +0.000 C 
ATOM     11  C   UNL     1       2.519   5.259  20.755  0.00  0.00    +0.000 C 
ENDBRANCH   1  11
BRANCH   2  12
ATOM     12  C   UNL     1       4.118   5.697  17.898  0.00  0.00    +0.000 C 
BRANCH  12  13
ATOM     13  C   UNL     1       5.588   6.066  18.220  0.00  0.00    +0.000 A 
ATOM     14  C   UNL     1       6.279   7.013  17.443  0.00  0.00    +0.000 A 
ATOM     15  C   UNL     1       7.625   7.312  17.684  0.00  0.00    +0.000 A 
ATOM     16  C   UNL     1       8.312   6.674  18.712  0.00  0.00    +0.000 A 
ATOM     17  C   UNL     1       7.646   5.759  19.520  0.00  0.00    +0.000 A 
ATOM     18  C   UNL     1       6.298   5.474  19.291  0.00  0.00    +0.000 A 
ENDBRANCH  12  13
BRANCH  12  19
ATOM     19  C   UNL     1       3.824   4.191  18.098  0.00  0.00    +0.000 A 
ATOM     20  C   UNL     1       2.790   3.565  17.367  0.00  0.00    +0.000 A 
ATOM     21  C   UNL     1       2.412   2.241  17.618  0.00  0.00    +0.000 A 
ATOM     22  C   UNL     1       3.077   1.500  18.587  0.00  0.00    +0.000 A 
ATOM     23  C   UNL     1       4.153   2.065  19.267  0.00  0.00    +0.000 A 
ATOM     24  C   UNL     1       4.530   3.389  19.013  0.00  0.00    +0.000 A 
ENDBRANCH  12  19
BRANCH  12  25
ATOM     25  O   UNL     1       3.902   5.928  16.496  0.00  0.00    +0.000 OA
ATOM     26  H   UNL     1       4.670   6.427  16.186  0.00  0.00    +0.000 HD
ENDBRANCH  12  25
ENDBRANCH   2  12
BRANCH   6  27
ATOM     27  O   UNL     1      -0.257  11.070  20.195  0.00  0.00    +0.000 OA
BRANCH  27  28
ATOM     28  C   UNL     1      -0.999  11.259  18.979  0.00  0.00    +0.000 C 
BRANCH  28  29
ATOM     29  C   UNL     1      -0.684  12.650  18.438  0.00  0.00    +0.000 C 
BRANCH  29  30
ATOM     30  O   UNL     1      -1.286  12.839  17.159  0.00  0.00    +0.000 OA
ATOM     31  H   UNL     1      -1.123  12.019  16.657  0.00  0.00    +0.000 HD
ENDBRANCH  29  30
ENDBRANCH  28  29
ENDBRANCH  27  28
ENDBRANCH   6  27
TORSDOF 9
ENDMDL
MODEL 8
REMARK VINA RESULT:      -7.4      0.842      1.334
REMARK  Name = 
REMARK  10 active torsions:
REMARK  status: ('A' for Active; 'I' for Inactive)
REMARK    1  A    between atoms: C_1  and  C_2
REMARK    2  A    between atoms: C_2  and  N_3
REMARK    3  A    between atoms: C_4  and  C_5
REMARK    4  A    between atoms: C_5  and  O_6
REMARK    5  A    between atoms: C_5  and  C_7
REMARK    6  A    between atoms: C_5  and  C_13
REMARK    7  A    between atoms: C_22  and  O_23
REMARK    8  A    between atoms: O_23  and  C_24
REMARK    9  A    between atoms: C_24  and  C_25
REMARK   10  A    between atoms: C_25  and  O_26
REMARK                            x       y       z     vdW  Elec       q    Type
REMARK                         _______ _______ _______ _____ _____    ______ ____
ROOT
ATOM      1  N   UNL     1       5.865   5.553  17.510  0.00  0.00    +0.000 N 
ATOM      2  C   UNL     1       4.505   5.291  17.672  0.00  0.00    +0.000 A 
ATOM      3  N   UNL     1       4.035   4.780  16.532  0.00  0.00    +0.000 NA
ATOM      4  C   UNL     1       5.086   4.652  15.666  0.00  0.00    +0.000 A 
ATOM      5  C   UNL     1       5.122   4.153  14.362  0.00  0.00    +0.000 A 
ATOM      6  C   UNL     1       6.371   4.137  13.764  0.00  0.00    +0.000 A 
ATOM      7  N   UNL     1       7.506   4.598  14.334  0.00  0.00    +0.000 NA
ATOM      8  C   UNL     1       7.459   5.103  15.586  0.00  0.00    +0.000 A 
ATOM      9  C   UNL     1       6.248   5.113  16.254  0.00  0.00    +0.000 A 
ENDROOT
BRANCH   1  11
ATOM     10  C   UNL     1       7.307   7.529  17.706  0.00  0.00    +0.000 C 
ATOM     11  C   UNL     1       6.797   6.259  18.373  0.00  0.00    +0.000 C 
ENDBRANCH   1  11
BRANCH   2  12
ATOM     12  C   UNL     1       3.623   5.537  18.939  0.00  0.00    +0.000 C 
BRANCH  12  13
ATOM     13  C   UNL     1       2.901   6.907  18.881  0.00  0.00    +0.000 A 
ATOM     14  C   UNL     1       2.127   7.358  19.966  0.00  0.00    +0.000 A 
ATOM     15  C   UNL     1       1.420   8.564  19.905  0.00  0.00    +0.000 A 
ATOM     16  C   UNL     1       1.474   9.352  18.759  0.00  0.00    +0.000 A 
ATOM     17  C   UNL     1       2.258   8.950  17.684  0.00  0.00    +0.000 A 
ATOM     18  C   UNL     1       2.978   7.755  17.752  0.00  0.00    +0.000 A 
ENDBRANCH  12  13
BRANCH  12  19
ATOM     19  C   UNL     1       2.658   4.368  19.250  0.00  0.00    +0.000 A 
ATOM     20  C   UNL     1       2.674   3.752  20.521  0.00  0.00    +0.000 A 
ATOM     21  C   UNL     1       1.910   2.611  20.792  0.00  0.00    +0.000 A 
ATOM     22  C   UNL     1       1.090   2.073  19.809  0.00  0.00    +0.000 A 
ATOM     23  C   UNL     1       0.993   2.706  18.573  0.00  0.00    +0.000 A 
ATOM     24  C   UNL     1       1.756   3.848  18.304  0.00  0.00    +0.000 A 
ENDBRANCH  12  19
BRANCH  12  25
ATOM     25  O   UNL     1       4.534   5.565  20.050  0.00  0.00    +0.000 OA
ATOM     26  H   UNL     1       5.421   5.559  19.668  0.00  0.00    +0.000 HD
ENDBRANCH  12  25
ENDBRANCH   2  12
BRANCH   6  27
ATOM     27  O   UNL     1       6.433   3.640  12.475  0.00  0.00    +0.000 OA
BRANCH  27  28
ATOM     28  C   UNL     1       5.273   2.857  12.149  0.00  0.00    +0.000 C 
BRANCH  28  29
ATOM     29  C   UNL     1       4.440   3.636  11.137  0.00  0.00    +0.000 C 
BRANCH  29  30
ATOM     30  O   UNL     1       3.287   2.888  10.754  0.00  0.00    +0.000 OA
ATOM     31  H   UNL     1       3.171   2.199  11.433  0.00  0.00    +0.000 HD
ENDBRANCH  29  30
ENDBRANCH  28  29
ENDBRANCH  27  28
ENDBRANCH   6  27
TORSDOF 9
ENDMDL
MODEL 9
REMARK VINA RESULT:      -7.3      3.479      7.754
REMARK  Name = 
REMARK  10 active torsions:
REMARK  status: ('A' for Active; 'I' for Inactive)
REMARK    1  A    between atoms: C_1  and  C_2
REMARK    2  A    between atoms: C_2  and  N_3
REMARK    3  A    between atoms: C_4  and  C_5
REMARK    4  A    between atoms: C_5  and  O_6
REMARK    5  A    between atoms: C_5  and  C_7
REMARK    6  A    between atoms: C_5  and  C_13
REMARK    7  A    between atoms: C_22  and  O_23
REMARK    8  A    between atoms: O_23  and  C_24
REMARK    9  A    between atoms: C_24  and  C_25
REMARK   10  A    between atoms: C_25  and  O_26
REMARK                            x       y       z     vdW  Elec       q    Type
REMARK                         _______ _______ _______ _____ _____    ______ ____
ROOT
ATOM      1  N   UNL     1       2.473   6.546  19.855  0.00  0.00    +0.000 N 
ATOM      2  C   UNL     1       3.081   6.692  18.608  0.00  0.00    +0.000 A 
ATOM      3  N   UNL     1       2.677   7.847  18.075  0.00  0.00    +0.000 NA
ATOM      4  C   UNL     1       1.872   8.471  18.987  0.00  0.00    +0.000 A 
ATOM      5  C   UNL     1       1.220   9.704  18.917  0.00  0.00    +0.000 A 
ATOM      6  C   UNL     1       0.494  10.059  20.042  0.00  0.00    +0.000 A 
ATOM      7  N   UNL     1       0.352   9.290  21.145  0.00  0.00    +0.000 NA
ATOM      8  C   UNL     1       0.964   8.087  21.194  0.00  0.00    +0.000 A 
ATOM      9  C   UNL     1       1.737   7.689  20.118  0.00  0.00    +0.000 A 
ENDROOT
BRANCH   1  11
ATOM     10  C   UNL     1       1.185   4.573  20.542  0.00  0.00    +0.000 C 
ATOM     11  C   UNL     1       2.439   5.408  20.759  0.00  0.00    +0.000 C 
ENDBRANCH   1  11
BRANCH   2  12
ATOM     12  C   UNL     1       4.066   5.707  17.899  0.00  0.00    +0.000 C 
BRANCH  12  13
ATOM     13  C   UNL     1       5.545   6.041  18.219  0.00  0.00    +0.000 A 
ATOM     14  C   UNL     1       6.269   6.944  17.419  0.00  0.00    +0.000 A 
ATOM     15  C   UNL     1       7.621   7.209  17.659  0.00  0.00    +0.000 A 
ATOM     16  C   UNL     1       8.283   6.580  18.710  0.00  0.00    +0.000 A 
ATOM     17  C   UNL     1       7.587   5.709  19.539  0.00  0.00    +0.000 A 
ATOM     18  C   UNL     1       6.232   5.459  19.310  0.00  0.00    +0.000 A 
ENDBRANCH  12  13
BRANCH  12  19
ATOM     19  C   UNL     1       3.725   4.218  18.143  0.00  0.00    +0.000 A 
ATOM     20  C   UNL     1       4.449   3.469  19.097  0.00  0.00    +0.000 A 
ATOM     21  C   UNL     1       4.255   2.092  19.249  0.00  0.00    +0.000 A 
ATOM     22  C   UNL     1       3.312   1.432  18.471  0.00  0.00    +0.000 A 
ATOM     23  C   UNL     1       2.527   2.159  17.580  0.00  0.00    +0.000 A 
ATOM     24  C   UNL     1       2.721   3.536  17.431  0.00  0.00    +0.000 A 
ENDBRANCH  12  19
BRANCH  12  25
ATOM     25  O   UNL     1       3.865   5.902  16.489  0.00  0.00    +0.000 OA
ATOM     26  H   UNL     1       4.491   6.588  16.222  0.00  0.00    +0.000 HD
ENDBRANCH  12  25
ENDBRANCH   2  12
BRANCH   6  27
ATOM     27  O   UNL     1      -0.154  11.280  20.000  0.00  0.00    +0.000 OA
BRANCH  27  28
ATOM     28  C   UNL     1       0.413  12.217  20.930  0.00  0.00    +0.000 C 
BRANCH  28  29
ATOM     29  C   UNL     1      -0.621  12.498  22.016  0.00  0.00    +0.000 C 
BRANCH  29  30
ATOM     30  O   UNL     1      -0.522  11.537  23.065  0.00  0.00    +0.000 OA
ATOM     31  H   UNL     1       0.357  11.124  22.974  0.00  0.00    +0.000 HD
ENDBRANCH  29  30
ENDBRANCH  28  29
ENDBRANCH  27  28
ENDBRANCH   6  27
TORSDOF 9
ENDMDL
