MODEL 1
REMARK VINA RESULT:      -8.7      0.000      0.000
REMARK  Name = 
REMARK  9 active torsions:
REMARK  status: ('A' for Active; 'I' for Inactive)
REMARK    1  A    between atoms: C_1  and  O_2
REMARK    2  A    between atoms: O_2  and  C_3
REMARK    3  A    between atoms: C_12  and  O_13
REMARK    4  A    between atoms: O_13  and  C_14
REMARK    5  A    between atoms: C_14  and  C_15
REMARK    6  A    between atoms: C_15  and  C_16
REMARK    7  A    between atoms: C_16  and  N_17
REMARK    8  A    between atoms: N_17  and  C_18
REMARK    9  A    between atoms: N_17  and  C_19
REMARK                            x       y       z     vdW  Elec       q    Type
REMARK                         _______ _______ _______ _____ _____    ______ ____
ROOT
ATOM      1  C   UNL     1      -0.978  11.519  22.264  0.00  0.00    +0.000 A 
ATOM      2  C   UNL     1      -0.949  10.425  23.135  0.00  0.00    +0.000 A 
ATOM      3  C   UNL     1      -0.299   9.248  22.789  0.00  0.00    +0.000 A 
ATOM      4  C   UNL     1       0.362   9.146  21.563  0.00  0.00    +0.000 A 
ATOM      5  C   UNL     1       0.975   7.951  21.214  0.00  0.00    +0.000 A 
ATOM      6  C   UNL     1       1.677   7.827  20.008  0.00  0.00    +0.000 A 
ATOM      7  N   UNL     1       1.739   8.900  19.174  0.00  0.00    +0.000 N 
ATOM      8  C   UNL     1       1.129  10.075  19.498  0.00  0.00    +0.000 A 
ATOM      9  C   UNL     1       0.411  10.243  20.693  0.00  0.00    +0.000 A 
ATOM     10  C   UNL     1      -0.240  11.459  21.062  0.00  0.00    +0.000 A 
ATOM     11  C   UNL     1       2.569   8.865  17.940  0.00  0.00    +0.000 C 
ATOM     12  C   UNL     1       2.468   7.518  17.249  0.00  0.00    +0.000 C 
ATOM     13  C   UNL     1       2.739   6.406  18.224  0.00  0.00    +0.000 A 
ATOM     14  C   UNL     1       3.310   5.202  17.772  0.00  0.00    +0.000 A 
ATOM     15  C   UNL     1       3.457   4.174  18.674  0.00  0.00    +0.000 A 
ATOM     16  C   UNL     1       3.073   4.315  19.981  0.00  0.00    +0.000 A 
ATOM     17  C   UNL     1       2.530   5.489  20.459  0.00  0.00    +0.000 A 
ATOM     18  C   UNL     1       2.330   6.572  19.576  0.00  0.00    +0.000 A 
ATOM     19  O   UNL     1       3.272   3.185  20.709  0.00  0.00    +0.000 OA
ATOM     20  C   UNL     1       3.772   2.289  19.691  0.00  0.00    +0.000 C 
ATOM     21  O   UNL     1       3.954   2.939  18.412  0.00  0.00    +0.000 OA
ENDROOT
BRANCH   1  23
ATOM     22  C   UNL     1      -2.960  12.456  23.177  0.00  0.00    +0.000 C 
ATOM     23  O   UNL     1      -1.670  12.656  22.588  0.00  0.00    +0.000 OA
ENDBRANCH   1  23
BRANCH  10  24
ATOM     24  O   UNL     1      -0.108  12.472  20.137  0.00  0.00    +0.000 OA
BRANCH  24  25
ATOM     25  C   UNL     1      -1.301  12.957  19.503  0.00  0.00    +0.000 C 
BRANCH  25  26
ATOM     26  C   UNL     1      -2.141  11.760  19.053  0.00  0.00    +0.000 C 
BRANCH  26  27
ATOM     27  C   UNL     1      -2.100  11.600  17.527  0.00  0.00    +0.000 C 
BRANCH  27  28
ATOM     28  N   UNL     1      -3.241  10.810  17.043  0.00  0.00    +0.000 N 
ATOM     29  C   UNL     1      -3.060  10.103  15.769  0.00  0.00    +0.000 C 
BRANCH  28  30
ATOM     30  C   UNL     1      -4.552  11.117  17.430  0.00  0.00    +0.000 A 
ATOM     31  C   UNL     1      -5.229  12.260  16.967  0.00  0.00    +0.000 A 
ATOM     32  C   UNL     1      -6.532  12.579  17.374  0.00  0.00    +0.000 A 
ATOM     33  C   UNL     1      -7.202  11.760  18.272  0.00  0.00    +0.000 A 
ATOM     34  C   UNL     1      -6.570  10.622  18.752  0.00  0.00    +0.000 A 
ATOM     35  C   UNL     1      -5.268  10.311  18.337  0.00  0.00    +0.000 A 
ENDBRANCH  28  30
ENDBRANCH  27  28
ENDBRANCH  26  27
ENDBRANCH  25  26
ENDBRANCH  24  25
ENDBRANCH  10  24
TORSDOF 7
ENDMDL
MODEL 2
REMARK VINA RESULT:      -8.6      3.632      9.917
REMARK  Name = 
REMARK  9 active torsions:
REMARK  status: ('A' for Active; 'I' for Inactive)
REMARK    1  A    between atoms: C_1  and  O_2
REMARK    2  A    between atoms: O_2  and  C_3
REMARK    3  A    between atoms: C_12  and  O_13
REMARK    4  A    between atoms: O_13  and  C_14
REMARK    5  A    between atoms: C_14  and  C_15
REMARK    6  A    between atoms: C_15  and  C_16
REMARK    7  A    between atoms: C_16  and  N_17
REMARK    8  A    between atoms: N_17  and  C_18
REMARK    9  A    between atoms: N_17  and  C_19
REMARK                            x       y       z     vdW  Elec       q    Type
REMARK                         _______ _______ _______ _____ _____    ______ ____
ROOT
ATOM      1  C   UNL     1       3.428   3.825  19.293  0.00  0.00    +0.000 A 
ATOM      2  C   UNL     1       2.773   3.822  20.530  0.00  0.00    +0.000 A 
ATOM      3  C   UNL     1       2.116   4.951  20.998  0.00  0.00    +0.000 A 
ATOM      4  C   UNL     1       2.079   6.113  20.224  0.00  0.00    +0.000 A 
ATOM      5  C   UNL     1       1.452   7.247  20.721  0.00  0.00    +0.000 A 
ATOM      6  C   UNL     1       1.366   8.417  19.957  0.00  0.00    +0.000 A 
ATOM      7  N   UNL     1       1.921   8.428  18.714  0.00  0.00    +0.000 N 
ATOM      8  C   UNL     1       2.553   7.326  18.219  0.00  0.00    +0.000 A 
ATOM      9  C   UNL     1       2.667   6.134  18.953  0.00  0.00    +0.000 A 
ATOM     10  C   UNL     1       3.322   4.963  18.465  0.00  0.00    +0.000 A 
ATOM     11  C   UNL     1       1.756   9.598  17.811  0.00  0.00    +0.000 C 
ATOM     12  C   UNL     1       1.869  10.903  18.578  0.00  0.00    +0.000 C 
ATOM     13  C   UNL     1       0.954  10.892  19.770  0.00  0.00    +0.000 A 
ATOM     14  C   UNL     1       0.408  12.099  20.246  0.00  0.00    +0.000 A 
ATOM     15  C   UNL     1      -0.349  12.061  21.394  0.00  0.00    +0.000 A 
ATOM     16  C   UNL     1      -0.581  10.885  22.055  0.00  0.00    +0.000 A 
ATOM     17  C   UNL     1      -0.076   9.683  21.603  0.00  0.00    +0.000 A 
ATOM     18  C   UNL     1       0.729   9.660  20.444  0.00  0.00    +0.000 A 
ATOM     19  O   UNL     1      -1.325  11.054  23.179  0.00  0.00    +0.000 OA
ATOM     20  C   UNL     1      -1.486  12.490  23.185  0.00  0.00    +0.000 C 
ATOM     21  O   UNL     1      -0.924  13.123  22.013  0.00  0.00    +0.000 OA
ENDROOT
BRANCH   1  23
ATOM     22  C   UNL     1       3.369   1.761  18.121  0.00  0.00    +0.000 C 
ATOM     23  O   UNL     1       4.122   2.726  18.864  0.00  0.00    +0.000 OA
ENDBRANCH   1  23
BRANCH  10  24
ATOM     24  O   UNL     1       3.845   5.097  17.197  0.00  0.00    +0.000 OA
BRANCH  24  25
ATOM     25  C   UNL     1       5.209   5.527  17.078  0.00  0.00    +0.000 C 
BRANCH  25  26
ATOM     26  C   UNL     1       5.609   5.496  15.602  0.00  0.00    +0.000 C 
BRANCH  26  27
ATOM     27  C   UNL     1       6.167   4.121  15.210  0.00  0.00    +0.000 C 
BRANCH  27  28
ATOM     28  N   UNL     1       6.703   4.133  13.841  0.00  0.00    +0.000 N 
ATOM     29  C   UNL     1       7.593   5.245  13.492  0.00  0.00    +0.000 C 
BRANCH  28  30
ATOM     30  C   UNL     1       6.028   3.492  12.793  0.00  0.00    +0.000 A 
ATOM     31  C   UNL     1       4.744   3.880  12.371  0.00  0.00    +0.000 A 
ATOM     32  C   UNL     1       4.061   3.223  11.339  0.00  0.00    +0.000 A 
ATOM     33  C   UNL     1       4.643   2.141  10.695  0.00  0.00    +0.000 A 
ATOM     34  C   UNL     1       5.910   1.726  11.080  0.00  0.00    +0.000 A 
ATOM     35  C   UNL     1       6.585   2.392  12.112  0.00  0.00    +0.000 A 
ENDBRANCH  28  30
ENDBRANCH  27  28
ENDBRANCH  26  27
ENDBRANCH  25  26
ENDBRANCH  24  25
ENDBRANCH  10  24
TORSDOF 7
ENDMDL
MODEL 3
REMARK VINA RESULT:      -8.5      3.448      9.790
REMARK  Name = 
REMARK  9 active torsions:
REMARK  status: ('A' for Active; 'I' for Inactive)
REMARK    1  A    between atoms: C_1  and  O_2
REMARK    2  A    between atoms: O_2  and  C_3
REMARK    3  A    between atoms: C_12  and  O_13
REMARK    4  A    between atoms: O_13  and  C_14
REMARK    5  A    between atoms: C_14  and  C_15
REMARK    6  A    between atoms: C_15  and  C_16
REMARK    7  A    between atoms: C_16  and  N_17
REMARK    8  A    between atoms: N_17  and  C_18
REMARK    9  A    between atoms: N_17  and  C_19
REMARK                            x       y       z     vdW  Elec       q    Type
REMARK                         _______ _______ _______ _____ _____    ______ ____
ROOT
ATOM      1  C   UNL     1       3.241   3.106  19.788  0.00  0.00    +0.000 A 
ATOM      2  C   UNL     1       2.651   3.305  21.041  0.00  0.00    +0.000 A 
ATOM      3  C   UNL     1       2.090   4.526  21.386  0.00  0.00    +0.000 A 
ATOM      4  C   UNL     1       2.086   5.580  20.470  0.00  0.00    +0.000 A 
ATOM      5  C   UNL     1       1.556   6.808  20.842  0.00  0.00    +0.000 A 
ATOM      6  C   UNL     1       1.503   7.874  19.936  0.00  0.00    +0.000 A 
ATOM      7  N   UNL     1       1.993   7.690  18.681  0.00  0.00    +0.000 N 
ATOM      8  C   UNL     1       2.530   6.495  18.306  0.00  0.00    +0.000 A 
ATOM      9  C   UNL     1       2.608   5.400  19.183  0.00  0.00    +0.000 A 
ATOM     10  C   UNL     1       3.164   4.135  18.823  0.00  0.00    +0.000 A 
ATOM     11  C   UNL     1       1.855   8.745  17.641  0.00  0.00    +0.000 C 
ATOM     12  C   UNL     1       2.087  10.125  18.226  0.00  0.00    +0.000 C 
ATOM     13  C   UNL     1       1.235  10.328  19.448  0.00  0.00    +0.000 A 
ATOM     14  C   UNL     1       0.790  11.620  19.786  0.00  0.00    +0.000 A 
ATOM     15  C   UNL     1       0.092  11.780  20.961  0.00  0.00    +0.000 A 
ATOM     16  C   UNL     1      -0.178  10.715  21.778  0.00  0.00    +0.000 A 
ATOM     17  C   UNL     1       0.227   9.434  21.465  0.00  0.00    +0.000 A 
ATOM     18  C   UNL     1       0.970   9.210  20.285  0.00  0.00    +0.000 A 
ATOM     19  O   UNL     1      -0.852  11.075  22.901  0.00  0.00    +0.000 OA
ATOM     20  C   UNL     1      -0.923  12.508  22.727  0.00  0.00    +0.000 C 
ATOM     21  O   UNL     1      -0.384  12.948  21.460  0.00  0.00    +0.000 OA
ENDROOT
BRANCH   1  23
ATOM     22  C   UNL     1       4.853   1.470  20.386  0.00  0.00    +0.000 C 
ATOM     23  O   UNL     1       3.844   1.917  19.475  0.00  0.00    +0.000 OA
ENDBRANCH   1  23
BRANCH  10  24
ATOM     24  O   UNL     1       3.629   4.071  17.527  0.00  0.00    +0.000 OA
BRANCH  24  25
ATOM     25  C   UNL     1       4.972   3.611  17.321  0.00  0.00    +0.000 C 
BRANCH  25  26
ATOM     26  C   UNL     1       5.942   4.672  17.845  0.00  0.00    +0.000 C 
BRANCH  26  27
ATOM     27  C   UNL     1       7.015   5.003  16.798  0.00  0.00    +0.000 C 
BRANCH  27  28
ATOM     28  N   UNL     1       6.420   5.606  15.597  0.00  0.00    +0.000 N 
ATOM     29  C   UNL     1       5.289   6.517  15.808  0.00  0.00    +0.000 C 
BRANCH  28  30
ATOM     30  C   UNL     1       6.521   4.982  14.346  0.00  0.00    +0.000 A 
ATOM     31  C   UNL     1       5.583   4.038  13.893  0.00  0.00    +0.000 A 
ATOM     32  C   UNL     1       5.699   3.397  12.652  0.00  0.00    +0.000 A 
ATOM     33  C   UNL     1       6.773   3.678  11.820  0.00  0.00    +0.000 A 
ATOM     34  C   UNL     1       7.722   4.605  12.228  0.00  0.00    +0.000 A 
ATOM     35  C   UNL     1       7.595   5.242  13.471  0.00  0.00    +0.000 A 
ENDBRANCH  28  30
ENDBRANCH  27  28
ENDBRANCH  26  27
ENDBRANCH  25  26
ENDBRANCH  24  25
ENDBRANCH  10  24
TORSDOF 7
ENDMDL
MODEL 4
REMARK VINA RESULT:      -8.2      3.011      4.555
REMARK  Name = 
REMARK  9 active torsions:
REMARK  status: ('A' for Active; 'I' for Inactive)
REMARK    1  A    between atoms: C_1  and  O_2
REMARK    2  A    between atoms: O_2  and  C_3
REMARK    3  A    between atoms: C_12  and  O_13
REMARK    4  A    between atoms: O_13  and  C_14
REMARK    5  A    between atoms: C_14  and  C_15
REMARK    6  A    between atoms: C_15  and  C_16
REMARK    7  A    between atoms: C_16  and  N_17
REMARK    8  A    between atoms: N_17  and  C_18
REMARK    9  A    between atoms: N_17  and  C_19
REMARK                            x       y       z     vdW  Elec       q    Type
REMARK                         _______ _______ _______ _____ _____    ______ ____
ROOT
ATOM      1  C   UNL     1      -1.033  11.578  22.305  0.00  0.00    +0.000 A 
ATOM      2  C   UNL     1      -0.977  10.498  23.193  0.00  0.00    +0.000 A 
ATOM      3  C   UNL     1      -0.328   9.320  22.852  0.00  0.00    +0.000 A 
ATOM      4  C   UNL     1       0.305   9.201  21.613  0.00  0.00    +0.000 A 
ATOM      5  C   UNL     1       0.916   8.003  21.269  0.00  0.00    +0.000 A 
ATOM      6  C   UNL     1       1.591   7.862  20.050  0.00  0.00    +0.000 A 
ATOM      7  N   UNL     1       1.627   8.922  19.197  0.00  0.00    +0.000 N 
ATOM      8  C   UNL     1       1.018  10.099  19.515  0.00  0.00    +0.000 A 
ATOM      9  C   UNL     1       0.327  10.283  20.724  0.00  0.00    +0.000 A 
ATOM     10  C   UNL     1      -0.322  11.502  21.087  0.00  0.00    +0.000 A 
ATOM     11  C   UNL     1       2.428   8.871  17.945  0.00  0.00    +0.000 C 
ATOM     12  C   UNL     1       2.320   7.512  17.279  0.00  0.00    +0.000 C 
ATOM     13  C   UNL     1       2.620   6.418  18.265  0.00  0.00    +0.000 A 
ATOM     14  C   UNL     1       3.187   5.210  17.820  0.00  0.00    +0.000 A 
ATOM     15  C   UNL     1       3.360   4.197  18.736  0.00  0.00    +0.000 A 
ATOM     16  C   UNL     1       3.006   4.358  20.049  0.00  0.00    +0.000 A 
ATOM     17  C   UNL     1       2.467   5.537  20.519  0.00  0.00    +0.000 A 
ATOM     18  C   UNL     1       2.241   6.604  19.623  0.00  0.00    +0.000 A 
ATOM     19  O   UNL     1       3.228   3.242  20.790  0.00  0.00    +0.000 OA
ATOM     20  C   UNL     1       3.709   2.332  19.776  0.00  0.00    +0.000 C 
ATOM     21  O   UNL     1       3.858   2.961  18.482  0.00  0.00    +0.000 OA
ENDROOT
BRANCH   1  23
ATOM     22  C   UNL     1      -3.121  12.546  22.887  0.00  0.00    +0.000 C 
ATOM     23  O   UNL     1      -1.724  12.716  22.626  0.00  0.00    +0.000 OA
ENDBRANCH   1  23
BRANCH  10  24
ATOM     24  O   UNL     1      -0.218  12.500  20.143  0.00  0.00    +0.000 OA
BRANCH  24  25
ATOM     25  C   UNL     1       0.677  13.588  20.416  0.00  0.00    +0.000 C 
BRANCH  25  26
ATOM     26  C   UNL     1       1.037  14.273  19.096  0.00  0.00    +0.000 C 
BRANCH  26  27
ATOM     27  C   UNL     1       2.386  14.998  19.202  0.00  0.00    +0.000 C 
BRANCH  27  28
ATOM     28  N   UNL     1       2.202  16.452  19.312  0.00  0.00    +0.000 N 
ATOM     29  C   UNL     1       2.472  17.053  20.623  0.00  0.00    +0.000 C 
BRANCH  28  30
ATOM     30  C   UNL     1       1.336  17.141  18.451  0.00  0.00    +0.000 A 
ATOM     31  C   UNL     1       1.778  17.759  17.268  0.00  0.00    +0.000 A 
ATOM     32  C   UNL     1       0.914  18.467  16.422  0.00  0.00    +0.000 A 
ATOM     33  C   UNL     1      -0.431  18.588  16.740  0.00  0.00    +0.000 A 
ATOM     34  C   UNL     1      -0.908  17.993  17.899  0.00  0.00    +0.000 A 
ATOM     35  C   UNL     1      -0.036  17.285  18.737  0.00  0.00    +0.000 A 
ENDBRANCH  28  30
ENDBRANCH  27  28
ENDBRANCH  26  27
ENDBRANCH  25  26
ENDBRANCH  24  25
ENDBRANCH  10  24
TORSDOF 7
ENDMDL
MODEL 5
REMARK VINA RESULT:      -8.2      3.295      9.687
REMARK  Name = 
REMARK  9 active torsions:
REMARK  status: ('A' for Active; 'I' for Inactive)
REMARK    1  A    between atoms: C_1  and  O_2
REMARK    2  A    between atoms: O_2  and  C_3
REMARK    3  A    between atoms: C_12  and  O_13
REMARK    4  A    between atoms: O_13  and  C_14
REMARK    5  A    between atoms: C_14  and  C_15
REMARK    6  A    between atoms: C_15  and  C_16
REMARK    7  A    between atoms: C_16  and  N_17
REMARK    8  A    between atoms: N_17  and  C_18
REMARK    9  A    between atoms: N_17  and  C_19
REMARK                            x       y       z     vdW  Elec       q    Type
REMARK                         _______ _______ _______ _____ _____    ______ ____
ROOT
ATOM      1  C   UNL     1       3.511   3.598  19.798  0.00  0.00    +0.000 A 
ATOM      2  C   UNL     1       2.778   3.639  20.990  0.00  0.00    +0.000 A 
ATOM      3  C   UNL     1       2.084   4.780  21.368  0.00  0.00    +0.000 A 
ATOM      4  C   UNL     1       2.088   5.908  20.546  0.00  0.00    +0.000 A 
ATOM      5  C   UNL     1       1.422   7.055  20.954  0.00  0.00    +0.000 A 
ATOM      6  C   UNL     1       1.375   8.191  20.138  0.00  0.00    +0.000 A 
ATOM      7  N   UNL     1       2.008   8.157  18.934  0.00  0.00    +0.000 N 
ATOM      8  C   UNL     1       2.679   7.043  18.526  0.00  0.00    +0.000 A 
ATOM      9  C   UNL     1       2.755   5.883  19.314  0.00  0.00    +0.000 A 
ATOM     10  C   UNL     1       3.449   4.700  18.918  0.00  0.00    +0.000 A 
ATOM     11  C   UNL     1       1.893   9.288  17.974  0.00  0.00    +0.000 C 
ATOM     12  C   UNL     1       1.946  10.624  18.691  0.00  0.00    +0.000 C 
ATOM     13  C   UNL     1       0.957  10.652  19.823  0.00  0.00    +0.000 A 
ATOM     14  C   UNL     1       0.373  11.872  20.212  0.00  0.00    +0.000 A 
ATOM     15  C   UNL     1      -0.455  11.874  21.310  0.00  0.00    +0.000 A 
ATOM     16  C   UNL     1      -0.720  10.723  22.004  0.00  0.00    +0.000 A 
ATOM     17  C   UNL     1      -0.179   9.510  21.635  0.00  0.00    +0.000 A 
ATOM     18  C   UNL     1       0.700   9.447  20.532  0.00  0.00    +0.000 A 
ATOM     19  O   UNL     1      -1.535  10.931  23.070  0.00  0.00    +0.000 OA
ATOM     20  C   UNL     1      -1.707  12.365  23.006  0.00  0.00    +0.000 C 
ATOM     21  O   UNL     1      -1.077  12.955  21.846  0.00  0.00    +0.000 OA
ENDROOT
BRANCH   1  23
ATOM     22  C   UNL     1       4.785   1.742  20.553  0.00  0.00    +0.000 C 
ATOM     23  O   UNL     1       4.240   2.489  19.460  0.00  0.00    +0.000 OA
ENDBRANCH   1  23
BRANCH  10  24
ATOM     24  O   UNL     1       4.051   4.787  17.681  0.00  0.00    +0.000 OA
BRANCH  24  25
ATOM     25  C   UNL     1       3.851   3.702  16.763  0.00  0.00    +0.000 C 
BRANCH  25  26
ATOM     26  C   UNL     1       4.412   4.103  15.397  0.00  0.00    +0.000 C 
BRANCH  26  27
ATOM     27  C   UNL     1       5.879   3.674  15.256  0.00  0.00    +0.000 C 
BRANCH  27  28
ATOM     28  N   UNL     1       6.778   4.837  15.265  0.00  0.00    +0.000 N 
ATOM     29  C   UNL     1       7.666   4.993  14.107  0.00  0.00    +0.000 C 
BRANCH  28  30
ATOM     30  C   UNL     1       7.174   5.437  16.468  0.00  0.00    +0.000 A 
ATOM     31  C   UNL     1       7.240   6.833  16.632  0.00  0.00    +0.000 A 
ATOM     32  C   UNL     1       7.660   7.430  17.828  0.00  0.00    +0.000 A 
ATOM     33  C   UNL     1       8.038   6.644  18.906  0.00  0.00    +0.000 A 
ATOM     34  C   UNL     1       7.987   5.262  18.787  0.00  0.00    +0.000 A 
ATOM     35  C   UNL     1       7.563   4.674  17.587  0.00  0.00    +0.000 A 
ENDBRANCH  28  30
ENDBRANCH  27  28
ENDBRANCH  26  27
ENDBRANCH  25  26
ENDBRANCH  24  25
ENDBRANCH  10  24
TORSDOF 7
ENDMDL
MODEL 6
REMARK VINA RESULT:      -8.2      0.866      1.032
REMARK  Name = 
REMARK  9 active torsions:
REMARK  status: ('A' for Active; 'I' for Inactive)
REMARK    1  A    between atoms: C_1  and  O_2
REMARK    2  A    between atoms: O_2  and  C_3
REMARK    3  A    between atoms: C_12  and  O_13
REMARK    4  A    between atoms: O_13  and  C_14
REMARK    5  A    between atoms: C_14  and  C_15
REMARK    6  A    between atoms: C_15  and  C_16
REMARK    7  A    between atoms: C_16  and  N_17
REMARK    8  A    between atoms: N_17  and  C_18
REMARK    9  A    between atoms: N_17  and  C_19
REMARK                            x       y       z     vdW  Elec       q    Type
REMARK                         _______ _______ _______ _____ _____    ______ ____
ROOT
ATOM      1  C   UNL     1      -1.058  11.593  22.103  0.00  0.00    +0.000 A 
ATOM      2  C   UNL     1      -1.046  10.536  23.020  0.00  0.00    +0.000 A 
ATOM      3  C   UNL     1      -0.396   9.344  22.735  0.00  0.00    +0.000 A 
ATOM      4  C   UNL     1       0.283   9.187  21.525  0.00  0.00    +0.000 A 
ATOM      5  C   UNL     1       0.896   7.976  21.236  0.00  0.00    +0.000 A 
ATOM      6  C   UNL     1       1.616   7.798  20.048  0.00  0.00    +0.000 A 
ATOM      7  N   UNL     1       1.695   8.834  19.170  0.00  0.00    +0.000 N 
ATOM      8  C   UNL     1       1.085  10.024  19.433  0.00  0.00    +0.000 A 
ATOM      9  C   UNL     1       0.350  10.245  20.609  0.00  0.00    +0.000 A 
ATOM     10  C   UNL     1      -0.302  11.479  20.916  0.00  0.00    +0.000 A 
ATOM     11  C   UNL     1       2.543   8.743  17.951  0.00  0.00    +0.000 C 
ATOM     12  C   UNL     1       2.447   7.369  17.317  0.00  0.00    +0.000 C 
ATOM     13  C   UNL     1       2.699   6.298  18.342  0.00  0.00    +0.000 A 
ATOM     14  C   UNL     1       3.272   5.074  17.951  0.00  0.00    +0.000 A 
ATOM     15  C   UNL     1       3.401   4.085  18.899  0.00  0.00    +0.000 A 
ATOM     16  C   UNL     1       2.998   4.283  20.192  0.00  0.00    +0.000 A 
ATOM     17  C   UNL     1       2.452   5.478  20.611  0.00  0.00    +0.000 A 
ATOM     18  C   UNL     1       2.270   6.523  19.679  0.00  0.00    +0.000 A 
ATOM     19  O   UNL     1       3.181   3.185  20.970  0.00  0.00    +0.000 OA
ATOM     20  C   UNL     1       3.692   2.245  19.999  0.00  0.00    +0.000 C 
ATOM     21  O   UNL     1       3.897   2.838  18.697  0.00  0.00    +0.000 OA
ENDROOT
BRANCH   1  23
ATOM     22  C   UNL     1      -2.456  12.777  23.612  0.00  0.00    +0.000 C 
ATOM     23  O   UNL     1      -1.750  12.745  22.367  0.00  0.00    +0.000 OA
ENDBRANCH   1  23
BRANCH  10  24
ATOM     24  O   UNL     1      -0.152  12.451  19.951  0.00  0.00    +0.000 OA
BRANCH  24  25
ATOM     25  C   UNL     1      -1.333  12.912  19.278  0.00  0.00    +0.000 C 
BRANCH  25  26
ATOM     26  C   UNL     1      -1.582  12.027  18.056  0.00  0.00    +0.000 C 
BRANCH  26  27
ATOM     27  C   UNL     1      -2.511  10.856  18.404  0.00  0.00    +0.000 C 
BRANCH  27  28
ATOM     28  N   UNL     1      -3.844  11.037  17.810  0.00  0.00    +0.000 N 
ATOM     29  C   UNL     1      -3.890  11.337  16.374  0.00  0.00    +0.000 C 
BRANCH  28  30
ATOM     30  C   UNL     1      -4.936  11.442  18.589  0.00  0.00    +0.000 A 
ATOM     31  C   UNL     1      -6.241  10.967  18.368  0.00  0.00    +0.000 A 
ATOM     32  C   UNL     1      -7.335  11.391  19.133  0.00  0.00    +0.000 A 
ATOM     33  C   UNL     1      -7.159  12.320  20.149  0.00  0.00    +0.000 A 
ATOM     34  C   UNL     1      -5.887  12.814  20.401  0.00  0.00    +0.000 A 
ATOM     35  C   UNL     1      -4.798  12.381  19.631  0.00  0.00    +0.000 A 
ENDBRANCH  28  30
ENDBRANCH  27  28
ENDBRANCH  26  27
ENDBRANCH  25  26
ENDBRANCH  24  25
ENDBRANCH  10  24
TORSDOF 7
ENDMDL
MODEL 7
REMARK VINA RESULT:      -8.2      1.053      1.504
REMARK  Name = 
REMARK  9 active torsions:
REMARK  status: ('A' for Active; 'I' for Inactive)
REMARK    1  A    between atoms: C_1  and  O_2
REMARK    2  A    between atoms: O_2  and  C_3
REMARK    3  A    between atoms: C_12  and  O_13
REMARK    4  A    between atoms: O_13  and  C_14
REMARK    5  A    between atoms: C_14  and  C_15
REMARK    6  A    between atoms: C_15  and  C_16
REMARK    7  A    between atoms: C_16  and  N_17
REMARK    8  A    between atoms: N_17  and  C_18
REMARK    9  A    between atoms: N_17  and  C_19
REMARK                            x       y       z     vdW  Elec       q    Type
REMARK                         _______ _______ _______ _____ _____    ______ ____
ROOT
ATOM      1  C   UNL     1      -1.106  11.493  22.367  0.00  0.00    +0.000 A 
ATOM      2  C   UNL     1      -1.025  10.407  23.245  0.00  0.00    +0.000 A 
ATOM      3  C   UNL     1      -0.350   9.247  22.893  0.00  0.00    +0.000 A 
ATOM      4  C   UNL     1       0.283   9.152  21.652  0.00  0.00    +0.000 A 
ATOM      5  C   UNL     1       0.921   7.972  21.297  0.00  0.00    +0.000 A 
ATOM      6  C   UNL     1       1.597   7.857  20.077  0.00  0.00    +0.000 A 
ATOM      7  N   UNL     1       1.609   8.924  19.233  0.00  0.00    +0.000 N 
ATOM      8  C   UNL     1       0.974  10.085  19.561  0.00  0.00    +0.000 A 
ATOM      9  C   UNL     1       0.281  10.242  20.772  0.00  0.00    +0.000 A 
ATOM     10  C   UNL     1      -0.396  11.443  21.148  0.00  0.00    +0.000 A 
ATOM     11  C   UNL     1       2.410   8.902  17.979  0.00  0.00    +0.000 C 
ATOM     12  C   UNL     1       2.331   7.547  17.302  0.00  0.00    +0.000 C 
ATOM     13  C   UNL     1       2.656   6.452  18.278  0.00  0.00    +0.000 A 
ATOM     14  C   UNL     1       3.250   5.260  17.822  0.00  0.00    +0.000 A 
ATOM     15  C   UNL     1       3.447   4.244  18.729  0.00  0.00    +0.000 A 
ATOM     16  C   UNL     1       3.091   4.385  20.044  0.00  0.00    +0.000 A 
ATOM     17  C   UNL     1       2.526   5.548  20.525  0.00  0.00    +0.000 A 
ATOM     18  C   UNL     1       2.275   6.617  19.638  0.00  0.00    +0.000 A 
ATOM     19  O   UNL     1       3.339   3.268  20.775  0.00  0.00    +0.000 OA
ATOM     20  C   UNL     1       3.839   2.378  19.752  0.00  0.00    +0.000 C 
ATOM     21  O   UNL     1       3.972   3.021  18.464  0.00  0.00    +0.000 OA
ENDROOT
BRANCH   1  23
ATOM     22  C   UNL     1      -1.094  13.641  23.378  0.00  0.00    +0.000 C 
ATOM     23  O   UNL     1      -1.822  12.613  22.698  0.00  0.00    +0.000 OA
ENDBRANCH   1  23
BRANCH  10  24
ATOM     24  O   UNL     1      -0.315  12.452  20.212  0.00  0.00    +0.000 OA
BRANCH  24  25
ATOM     25  C   UNL     1      -1.533  13.106  19.827  0.00  0.00    +0.000 C 
BRANCH  25  26
ATOM     26  C   UNL     1      -2.471  12.072  19.201  0.00  0.00    +0.000 C 
BRANCH  26  27
ATOM     27  C   UNL     1      -3.916  12.588  19.165  0.00  0.00    +0.000 C 
BRANCH  27  28
ATOM     28  N   UNL     1      -4.820  11.599  18.560  0.00  0.00    +0.000 N 
ATOM     29  C   UNL     1      -4.991  11.666  17.104  0.00  0.00    +0.000 C 
BRANCH  28  30
ATOM     30  C   UNL     1      -5.851  11.009  19.305  0.00  0.00    +0.000 A 
ATOM     31  C   UNL     1      -6.487  11.669  20.371  0.00  0.00    +0.000 A 
ATOM     32  C   UNL     1      -7.501  11.068  21.129  0.00  0.00    +0.000 A 
ATOM     33  C   UNL     1      -7.908   9.771  20.847  0.00  0.00    +0.000 A 
ATOM     34  C   UNL     1      -7.306   9.085  19.803  0.00  0.00    +0.000 A 
ATOM     35  C   UNL     1      -6.294   9.697  19.049  0.00  0.00    +0.000 A 
ENDBRANCH  28  30
ENDBRANCH  27  28
ENDBRANCH  26  27
ENDBRANCH  25  26
ENDBRANCH  24  25
ENDBRANCH  10  24
TORSDOF 7
ENDMDL
MODEL 8
REMARK VINA RESULT:      -8.1      3.233      9.815
REMARK  Name = 
REMARK  9 active torsions:
REMARK  status: ('A' for Active; 'I' for Inactive)
REMARK    1  A    between atoms: C_1  and  O_2
REMARK    2  A    between atoms: O_2  and  C_3
REMARK    3  A    between atoms: C_12  and  O_13
REMARK    4  A    between atoms: O_13  and  C_14
REMARK    5  A    between atoms: C_14  and  C_15
REMARK    6  A    between atoms: C_15  and  C_16
REMARK    7  A    between atoms: C_16  and  N_17
REMARK    8  A    between atoms: N_17  and  C_18
REMARK    9  A    between atoms: N_17  and  C_19
REMARK                            x       y       z     vdW  Elec       q    Type
REMARK                         _______ _______ _______ _____ _____    ______ ____
ROOT
ATOM      1  C   UNL     1       3.164   4.655  19.459  0.00  0.00    +0.000 A 
ATOM      2  C   UNL     1       2.424   4.575  20.644  0.00  0.00    +0.000 A 
ATOM      3  C   UNL     1       1.713   5.666  21.124  0.00  0.00    +0.000 A 
ATOM      4  C   UNL     1       1.707   6.867  20.412  0.00  0.00    +0.000 A 
ATOM      5  C   UNL     1       1.023   7.961  20.923  0.00  0.00    +0.000 A 
ATOM      6  C   UNL     1       0.966   9.169  20.217  0.00  0.00    +0.000 A 
ATOM      7  N   UNL     1       1.607   9.257  19.019  0.00  0.00    +0.000 N 
ATOM      8  C   UNL     1       2.294   8.195  18.513  0.00  0.00    +0.000 A 
ATOM      9  C   UNL     1       2.381   6.967  19.188  0.00  0.00    +0.000 A 
ATOM     10  C   UNL     1       3.093   5.835  18.686  0.00  0.00    +0.000 A 
ATOM     11  C   UNL     1       1.481  10.472  18.170  0.00  0.00    +0.000 C 
ATOM     12  C   UNL     1       1.513  11.734  19.011  0.00  0.00    +0.000 C 
ATOM     13  C   UNL     1       0.518  11.643  20.133  0.00  0.00    +0.000 A 
ATOM     14  C   UNL     1      -0.085  12.814  20.632  0.00  0.00    +0.000 A 
ATOM     15  C   UNL     1      -0.919  12.701  21.720  0.00  0.00    +0.000 A 
ATOM     16  C   UNL     1      -1.172  11.487  22.300  0.00  0.00    +0.000 A 
ATOM     17  C   UNL     1      -0.613  10.320  21.822  0.00  0.00    +0.000 A 
ATOM     18  C   UNL     1       0.272  10.373  20.723  0.00  0.00    +0.000 A 
ATOM     19  O   UNL     1      -1.996  11.583  23.375  0.00  0.00    +0.000 OA
ATOM     20  C   UNL     1      -2.187  13.014  23.446  0.00  0.00    +0.000 C 
ATOM     21  O   UNL     1      -1.558  13.719  22.351  0.00  0.00    +0.000 OA
ENDROOT
BRANCH   1  23
ATOM     22  C   UNL     1       4.037   2.501  19.939  0.00  0.00    +0.000 C 
ATOM     23  O   UNL     1       3.909   3.593  19.023  0.00  0.00    +0.000 OA
ENDBRANCH   1  23
BRANCH  10  24
ATOM     24  O   UNL     1       3.701   6.046  17.468  0.00  0.00    +0.000 OA
BRANCH  24  25
ATOM     25  C   UNL     1       4.860   6.891  17.436  0.00  0.00    +0.000 C 
BRANCH  25  26
ATOM     26  C   UNL     1       6.090   6.052  17.790  0.00  0.00    +0.000 C 
BRANCH  26  27
ATOM     27  C   UNL     1       6.926   5.746  16.540  0.00  0.00    +0.000 C 
BRANCH  27  28
ATOM     28  N   UNL     1       6.294   4.704  15.718  0.00  0.00    +0.000 N 
ATOM     29  C   UNL     1       5.794   3.520  16.425  0.00  0.00    +0.000 C 
BRANCH  28  30
ATOM     30  C   UNL     1       6.612   4.559  14.360  0.00  0.00    +0.000 A 
ATOM     31  C   UNL     1       7.566   5.367  13.716  0.00  0.00    +0.000 A 
ATOM     32  C   UNL     1       7.866   5.236  12.354  0.00  0.00    +0.000 A 
ATOM     33  C   UNL     1       7.207   4.289  11.582  0.00  0.00    +0.000 A 
ATOM     34  C   UNL     1       6.259   3.470  12.179  0.00  0.00    +0.000 A 
ATOM     35  C   UNL     1       5.969   3.608  13.544  0.00  0.00    +0.000 A 
ENDBRANCH  28  30
ENDBRANCH  27  28
ENDBRANCH  26  27
ENDBRANCH  25  26
ENDBRANCH  24  25
ENDBRANCH  10  24
TORSDOF 7
ENDMDL
MODEL 9
REMARK VINA RESULT:      -8.1      0.969      1.356
REMARK  Name = 
REMARK  9 active torsions:
REMARK  status: ('A' for Active; 'I' for Inactive)
REMARK    1  A    between atoms: C_1  and  O_2
REMARK    2  A    between atoms: O_2  and  C_3
REMARK    3  A    between atoms: C_12  and  O_13
REMARK    4  A    between atoms: O_13  and  C_14
REMARK    5  A    between atoms: C_14  and  C_15
REMARK    6  A    between atoms: C_15  and  C_16
REMARK    7  A    between atoms: C_16  and  N_17
REMARK    8  A    between atoms: N_17  and  C_18
REMARK    9  A    between atoms: N_17  and  C_19
REMARK                            x       y       z     vdW  Elec       q    Type
REMARK                         _______ _______ _______ _____ _____    ______ ____
ROOT
ATOM      1  C   UNL     1      -1.068  11.633  22.360  0.00  0.00    +0.000 A 
ATOM      2  C   UNL     1      -1.039  10.535  23.227  0.00  0.00    +0.000 A 
ATOM      3  C   UNL     1      -0.390   9.360  22.876  0.00  0.00    +0.000 A 
ATOM      4  C   UNL     1       0.270   9.262  21.649  0.00  0.00    +0.000 A 
ATOM      5  C   UNL     1       0.881   8.068  21.294  0.00  0.00    +0.000 A 
ATOM      6  C   UNL     1       1.582   7.947  20.088  0.00  0.00    +0.000 A 
ATOM      7  N   UNL     1       1.643   9.023  19.258  0.00  0.00    +0.000 N 
ATOM      8  C   UNL     1       1.034  10.198  19.586  0.00  0.00    +0.000 A 
ATOM      9  C   UNL     1       0.318  10.361  20.783  0.00  0.00    +0.000 A 
ATOM     10  C   UNL     1      -0.332  11.577  21.157  0.00  0.00    +0.000 A 
ATOM     11  C   UNL     1       2.471   8.992  18.022  0.00  0.00    +0.000 C 
ATOM     12  C   UNL     1       2.369   7.648  17.327  0.00  0.00    +0.000 C 
ATOM     13  C   UNL     1       2.641   6.533  18.297  0.00  0.00    +0.000 A 
ATOM     14  C   UNL     1       3.210   5.330  17.840  0.00  0.00    +0.000 A 
ATOM     15  C   UNL     1       3.358   4.298  18.738  0.00  0.00    +0.000 A 
ATOM     16  C   UNL     1       2.976   4.434  20.046  0.00  0.00    +0.000 A 
ATOM     17  C   UNL     1       2.434   5.607  20.529  0.00  0.00    +0.000 A 
ATOM     18  C   UNL     1       2.233   6.693  19.650  0.00  0.00    +0.000 A 
ATOM     19  O   UNL     1       3.175   3.302  20.769  0.00  0.00    +0.000 OA
ATOM     20  C   UNL     1       3.672   2.410  19.747  0.00  0.00    +0.000 C 
ATOM     21  O   UNL     1       3.854   3.064  18.471  0.00  0.00    +0.000 OA
ENDROOT
BRANCH   1  23
ATOM     22  C   UNL     1      -3.021  12.568  23.335  0.00  0.00    +0.000 C 
ATOM     23  O   UNL     1      -1.759  12.769  22.689  0.00  0.00    +0.000 OA
ENDBRANCH   1  23
BRANCH  10  24
ATOM     24  O   UNL     1      -0.201  12.593  20.236  0.00  0.00    +0.000 OA
BRANCH  24  25
ATOM     25  C   UNL     1      -1.401  13.177  19.709  0.00  0.00    +0.000 C 
BRANCH  25  26
ATOM     26  C   UNL     1      -2.261  12.068  19.099  0.00  0.00    +0.000 C 
BRANCH  26  27
ATOM     27  C   UNL     1      -3.695  12.120  19.643  0.00  0.00    +0.000 C 
BRANCH  27  28
ATOM     28  N   UNL     1      -4.679  11.880  18.578  0.00  0.00    +0.000 N 
ATOM     29  C   UNL     1      -4.227  11.084  17.430  0.00  0.00    +0.000 C 
BRANCH  28  30
ATOM     30  C   UNL     1      -5.755  12.755  18.373  0.00  0.00    +0.000 A 
ATOM     31  C   UNL     1      -6.320  12.976  17.104  0.00  0.00    +0.000 A 
ATOM     32  C   UNL     1      -7.379  13.869  16.898  0.00  0.00    +0.000 A 
ATOM     33  C   UNL     1      -7.907  14.584  17.964  0.00  0.00    +0.000 A 
ATOM     34  C   UNL     1      -7.379  14.395  19.233  0.00  0.00    +0.000 A 
ATOM     35  C   UNL     1      -6.321  13.497  19.429  0.00  0.00    +0.000 A 
ENDBRANCH  28  30
ENDBRANCH  27  28
ENDBRANCH  26  27
ENDBRANCH  25  26
ENDBRANCH  24  25
ENDBRANCH  10  24
TORSDOF 7
ENDMDL
