MODEL 1
REMARK VINA RESULT:      -7.2      0.000      0.000
REMARK  Name = 
REMARK  6 active torsions:
REMARK  status: ('A' for Active; 'I' for Inactive)
REMARK    1  A    between atoms: C_1  and  C_2
REMARK    2  A    between atoms: C_3  and  N_4
REMARK    3  A    between atoms: N_7  and  C_8
REMARK    4  A    between atoms: N_7  and  C_9
REMARK    5  A    between atoms: N_17  and  C_18
REMARK    6  A    between atoms: N_24  and  C_25
REMARK                            x       y       z     vdW  Elec       q    Type
REMARK                         _______ _______ _______ _____ _____    ______ ____
ROOT
ATOM      1  C   UNL     1       1.745   3.967  20.390  0.00  0.00    +0.000 C 
ATOM      2  C   UNL     1       2.584   4.772  19.445  0.00  0.00    +0.000 A 
ATOM      3  C   UNL     1       2.781   6.107  19.396  0.00  0.00    +0.000 A 
ATOM      4  C   UNL     1       3.967   6.293  18.465  0.00  0.00    +0.000 A 
ATOM      5  O   UNL     1       4.442   7.387  18.199  0.00  0.00    +0.000 OA
ATOM      6  N   UNL     1       4.305   5.013  17.993  0.00  0.00    +0.000 N 
ATOM      7  N   UNL     1       3.378   4.086  18.508  0.00  0.00    +0.000 N 
ATOM      8  C   UNL     1       3.798   2.695  18.706  0.00  0.00    +0.000 C 
ENDROOT
BRANCH   3   9
ATOM      9  N   UNL     1       2.182   7.196  20.006  0.00  0.00    +0.000 N 
ATOM     10  C   UNL     1       1.548   8.248  19.354  0.00  0.00    +0.000 C 
ATOM     11  O   UNL     1       1.444   8.281  18.132  0.00  0.00    +0.000 OA
ATOM     12  N   UNL     1       1.107   9.310  20.166  0.00  0.00    +0.000 N 
ATOM     13  C   UNL     1       1.186   9.387  21.629  0.00  0.00    +0.000 C 
ATOM     14  H   UNL     1       2.592   7.407  20.907  0.00  0.00    +0.000 HD
BRANCH  12  15
ATOM     15  C   UNL     1       0.567  10.486  19.534  0.00  0.00    +0.000 A 
ATOM     16  C   UNL     1       1.381  11.584  19.231  0.00  0.00    +0.000 A 
ATOM     17  C   UNL     1       0.846  12.725  18.623  0.00  0.00    +0.000 A 
ATOM     18  C   UNL     1      -0.517  12.792  18.334  0.00  0.00    +0.000 A 
ATOM     19  C   UNL     1      -1.339  11.708  18.633  0.00  0.00    +0.000 A 
ATOM     20  C   UNL     1      -0.796  10.554  19.210  0.00  0.00    +0.000 A 
ENDBRANCH  12  15
ENDBRANCH   3   9
BRANCH   6  21
ATOM     21  C   UNL     1       5.165   4.701  16.922  0.00  0.00    +0.000 A 
ATOM     22  C   UNL     1       4.640   4.477  15.644  0.00  0.00    +0.000 A 
ATOM     23  C   UNL     1       5.495   4.366  14.540  0.00  0.00    +0.000 A 
ATOM     24  C   UNL     1       6.879   4.435  14.706  0.00  0.00    +0.000 A 
ATOM     25  C   UNL     1       7.414   4.605  15.981  0.00  0.00    +0.000 A 
ATOM     26  C   UNL     1       6.564   4.747  17.079  0.00  0.00    +0.000 A 
ENDBRANCH   6  21
TORSDOF 3
ENDMDL
MODEL 2
REMARK VINA RESULT:      -7.0      0.669      1.167
REMARK  Name = 
REMARK  6 active torsions:
REMARK  status: ('A' for Active; 'I' for Inactive)
REMARK    1  A    between atoms: C_1  and  C_2
REMARK    2  A    between atoms: C_3  and  N_4
REMARK    3  A    between atoms: N_7  and  C_8
REMARK    4  A    between atoms: N_7  and  C_9
REMARK    5  A    between atoms: N_17  and  C_18
REMARK    6  A    between atoms: N_24  and  C_25
REMARK                            x       y       z     vdW  Elec       q    Type
REMARK                         _______ _______ _______ _____ _____    ______ ____
ROOT
ATOM      1  C   UNL     1       1.523   4.174  19.377  0.00  0.00    +0.000 C 
ATOM      2  C   UNL     1       2.453   5.042  18.586  0.00  0.00    +0.000 A 
ATOM      3  C   UNL     1       2.711   6.362  18.713  0.00  0.00    +0.000 A 
ATOM      4  C   UNL     1       3.959   6.597  17.878  0.00  0.00    +0.000 A 
ATOM      5  O   UNL     1       4.497   7.690  17.776  0.00  0.00    +0.000 OA
ATOM      6  N   UNL     1       4.268   5.368  17.272  0.00  0.00    +0.000 N 
ATOM      7  N   UNL     1       3.272   4.434  17.617  0.00  0.00    +0.000 N 
ATOM      8  C   UNL     1       3.617   3.010  17.665  0.00  0.00    +0.000 C 
ENDROOT
BRANCH   3   9
ATOM      9  N   UNL     1       2.125   7.398  19.418  0.00  0.00    +0.000 N 
ATOM     10  C   UNL     1       1.524   8.524  18.864  0.00  0.00    +0.000 C 
ATOM     11  O   UNL     1       1.443   8.679  17.649  0.00  0.00    +0.000 OA
ATOM     12  N   UNL     1       1.092   9.510  19.770  0.00  0.00    +0.000 N 
ATOM     13  C   UNL     1       1.147   9.441  21.234  0.00  0.00    +0.000 C 
ATOM     14  H   UNL     1       2.523   7.510  20.342  0.00  0.00    +0.000 HD
BRANCH  12  15
ATOM     15  C   UNL     1       0.588  10.754  19.248  0.00  0.00    +0.000 A 
ATOM     16  C   UNL     1       1.437  11.848  19.038  0.00  0.00    +0.000 A 
ATOM     17  C   UNL     1       0.936  13.056  18.538  0.00  0.00    +0.000 A 
ATOM     18  C   UNL     1      -0.426  13.193  18.267  0.00  0.00    +0.000 A 
ATOM     19  C   UNL     1      -1.281  12.113  18.475  0.00  0.00    +0.000 A 
ATOM     20  C   UNL     1      -0.774  10.896  18.943  0.00  0.00    +0.000 A 
ENDBRANCH  12  15
ENDBRANCH   3   9
BRANCH   6  21
ATOM     21  C   UNL     1       5.178   5.143  16.220  0.00  0.00    +0.000 A 
ATOM     22  C   UNL     1       6.550   5.325  16.430  0.00  0.00    +0.000 A 
ATOM     23  C   UNL     1       7.473   4.912  15.460  0.00  0.00    +0.000 A 
ATOM     24  C   UNL     1       7.034   4.355  14.257  0.00  0.00    +0.000 A 
ATOM     25  C   UNL     1       5.669   4.217  14.016  0.00  0.00    +0.000 A 
ATOM     26  C   UNL     1       4.749   4.599  14.995  0.00  0.00    +0.000 A 
ENDBRANCH   6  21
TORSDOF 3
ENDMDL
MODEL 3
REMARK VINA RESULT:      -7.0      2.608      8.815
REMARK  Name = 
REMARK  6 active torsions:
REMARK  status: ('A' for Active; 'I' for Inactive)
REMARK    1  A    between atoms: C_1  and  C_2
REMARK    2  A    between atoms: C_3  and  N_4
REMARK    3  A    between atoms: N_7  and  C_8
REMARK    4  A    between atoms: N_7  and  C_9
REMARK    5  A    between atoms: N_17  and  C_18
REMARK    6  A    between atoms: N_24  and  C_25
REMARK                            x       y       z     vdW  Elec       q    Type
REMARK                         _______ _______ _______ _____ _____    ______ ____
ROOT
ATOM      1  C   UNL     1      -0.175   9.620  17.892  0.00  0.00    +0.000 C 
ATOM      2  C   UNL     1       0.047   9.969  19.332  0.00  0.00    +0.000 A 
ATOM      3  C   UNL     1       0.694   9.276  20.294  0.00  0.00    +0.000 A 
ATOM      4  C   UNL     1       0.880  10.266  21.430  0.00  0.00    +0.000 A 
ATOM      5  O   UNL     1       1.452   9.985  22.473  0.00  0.00    +0.000 OA
ATOM      6  N   UNL     1       0.238  11.451  21.033  0.00  0.00    +0.000 N 
ATOM      7  N   UNL     1      -0.376  11.232  19.785  0.00  0.00    +0.000 N 
ATOM      8  C   UNL     1      -0.567  12.367  18.876  0.00  0.00    +0.000 C 
ENDROOT
BRANCH   3   9
ATOM      9  N   UNL     1       1.187   7.986  20.390  0.00  0.00    +0.000 N 
ATOM     10  C   UNL     1       2.176   7.430  19.587  0.00  0.00    +0.000 C 
ATOM     11  O   UNL     1       2.731   8.078  18.704  0.00  0.00    +0.000 OA
ATOM     12  N   UNL     1       2.446   6.063  19.786  0.00  0.00    +0.000 N 
ATOM     13  C   UNL     1       1.842   5.187  20.796  0.00  0.00    +0.000 C 
ATOM     14  H   UNL     1       0.510   7.343  20.781  0.00  0.00    +0.000 HD
BRANCH  12  15
ATOM     15  C   UNL     1       3.361   5.402  18.892  0.00  0.00    +0.000 A 
ATOM     16  C   UNL     1       2.901   4.713  17.763  0.00  0.00    +0.000 A 
ATOM     17  C   UNL     1       3.798   4.067  16.904  0.00  0.00    +0.000 A 
ATOM     18  C   UNL     1       5.166   4.080  17.179  0.00  0.00    +0.000 A 
ATOM     19  C   UNL     1       5.636   4.758  18.300  0.00  0.00    +0.000 A 
ATOM     20  C   UNL     1       4.742   5.432  19.140  0.00  0.00    +0.000 A 
ENDBRANCH  12  15
ENDBRANCH   3   9
BRANCH   6  21
ATOM     21  C   UNL     1      -0.078  12.561  21.842  0.00  0.00    +0.000 A 
ATOM     22  C   UNL     1       0.593  13.775  21.658  0.00  0.00    +0.000 A 
ATOM     23  C   UNL     1       0.150  14.932  22.313  0.00  0.00    +0.000 A 
ATOM     24  C   UNL     1      -0.936  14.878  23.188  0.00  0.00    +0.000 A 
ATOM     25  C   UNL     1      -1.578  13.664  23.419  0.00  0.00    +0.000 A 
ATOM     26  C   UNL     1      -1.158  12.516  22.743  0.00  0.00    +0.000 A 
ENDBRANCH   6  21
TORSDOF 3
ENDMDL
MODEL 4
REMARK VINA RESULT:      -6.9      1.738      2.268
REMARK  Name = 
REMARK  6 active torsions:
REMARK  status: ('A' for Active; 'I' for Inactive)
REMARK    1  A    between atoms: C_1  and  C_2
REMARK    2  A    between atoms: C_3  and  N_4
REMARK    3  A    between atoms: N_7  and  C_8
REMARK    4  A    between atoms: N_7  and  C_9
REMARK    5  A    between atoms: N_17  and  C_18
REMARK    6  A    between atoms: N_24  and  C_25
REMARK                            x       y       z     vdW  Elec       q    Type
REMARK                         _______ _______ _______ _____ _____    ______ ____
ROOT
ATOM      1  C   UNL     1       1.325   5.297  20.581  0.00  0.00    +0.000 C 
ATOM      2  C   UNL     1       2.218   5.733  19.460  0.00  0.00    +0.000 A 
ATOM      3  C   UNL     1       2.296   6.931  18.841  0.00  0.00    +0.000 A 
ATOM      4  C   UNL     1       3.585   6.872  18.040  0.00  0.00    +0.000 A 
ATOM      5  O   UNL     1       3.992   7.804  17.361  0.00  0.00    +0.000 OA
ATOM      6  N   UNL     1       4.106   5.580  18.220  0.00  0.00    +0.000 N 
ATOM      7  N   UNL     1       3.202   4.837  19.005  0.00  0.00    +0.000 N 
ATOM      8  C   UNL     1       3.714   3.745  19.838  0.00  0.00    +0.000 C 
ENDROOT
BRANCH   3   9
ATOM      9  N   UNL     1       1.515   8.073  18.844  0.00  0.00    +0.000 N 
ATOM     10  C   UNL     1       1.218   8.855  19.956  0.00  0.00    +0.000 C 
ATOM     11  O   UNL     1       1.666   8.592  21.068  0.00  0.00    +0.000 OA
ATOM     12  N   UNL     1       0.311   9.911  19.752  0.00  0.00    +0.000 N 
ATOM     13  C   UNL     1      -0.296  10.312  18.477  0.00  0.00    +0.000 C 
ATOM     14  H   UNL     1       0.832   8.076  18.097  0.00  0.00    +0.000 HD
BRANCH  12  15
ATOM     15  C   UNL     1      -0.139  10.667  20.892  0.00  0.00    +0.000 A 
ATOM     16  C   UNL     1      -0.711  10.032  22.002  0.00  0.00    +0.000 A 
ATOM     17  C   UNL     1      -1.151  10.777  23.102  0.00  0.00    +0.000 A 
ATOM     18  C   UNL     1      -1.049  12.168  23.095  0.00  0.00    +0.000 A 
ATOM     19  C   UNL     1      -0.485  12.811  21.996  0.00  0.00    +0.000 A 
ATOM     20  C   UNL     1      -0.014  12.064  20.911  0.00  0.00    +0.000 A 
ENDBRANCH  12  15
ENDBRANCH   3   9
BRANCH   6  21
ATOM     21  C   UNL     1       5.142   4.970  17.486  0.00  0.00    +0.000 A 
ATOM     22  C   UNL     1       4.864   4.361  16.257  0.00  0.00    +0.000 A 
ATOM     23  C   UNL     1       5.910   3.933  15.428  0.00  0.00    +0.000 A 
ATOM     24  C   UNL     1       7.237   4.069  15.838  0.00  0.00    +0.000 A 
ATOM     25  C   UNL     1       7.524   4.626  17.082  0.00  0.00    +0.000 A 
ATOM     26  C   UNL     1       6.484   5.082  17.895  0.00  0.00    +0.000 A 
ENDBRANCH   6  21
TORSDOF 3
ENDMDL
MODEL 5
REMARK VINA RESULT:      -6.9      4.388      7.766
REMARK  Name = 
REMARK  6 active torsions:
REMARK  status: ('A' for Active; 'I' for Inactive)
REMARK    1  A    between atoms: C_1  and  C_2
REMARK    2  A    between atoms: C_3  and  N_4
REMARK    3  A    between atoms: N_7  and  C_8
REMARK    4  A    between atoms: N_7  and  C_9
REMARK    5  A    between atoms: N_17  and  C_18
REMARK    6  A    between atoms: N_24  and  C_25
REMARK                            x       y       z     vdW  Elec       q    Type
REMARK                         _______ _______ _______ _____ _____    ______ ____
ROOT
ATOM      1  C   UNL     1      -0.327  14.313  18.926  0.00  0.00    +0.000 C 
ATOM      2  C   UNL     1      -0.526  12.829  18.975  0.00  0.00    +0.000 A 
ATOM      3  C   UNL     1      -1.662  12.111  18.838  0.00  0.00    +0.000 A 
ATOM      4  C   UNL     1      -1.196  10.678  18.645  0.00  0.00    +0.000 A 
ATOM      5  O   UNL     1      -1.965   9.744  18.468  0.00  0.00    +0.000 OA
ATOM      6  N   UNL     1       0.204  10.696  18.766  0.00  0.00    +0.000 N 
ATOM      7  N   UNL     1       0.610  12.007  19.084  0.00  0.00    +0.000 N 
ATOM      8  C   UNL     1       1.945  12.456  18.679  0.00  0.00    +0.000 C 
ENDROOT
BRANCH   3   9
ATOM      9  N   UNL     1      -3.009  12.427  18.810  0.00  0.00    +0.000 N 
ATOM     10  C   UNL     1      -3.826  12.614  19.920  0.00  0.00    +0.000 C 
ATOM     11  O   UNL     1      -3.389  12.532  21.064  0.00  0.00    +0.000 OA
ATOM     12  N   UNL     1      -5.194  12.817  19.661  0.00  0.00    +0.000 N 
ATOM     13  C   UNL     1      -5.831  12.922  18.343  0.00  0.00    +0.000 C 
ATOM     14  H   UNL     1      -3.464  12.101  17.966  0.00  0.00    +0.000 HD
BRANCH  12  15
ATOM     15  C   UNL     1      -6.107  12.879  20.773  0.00  0.00    +0.000 A 
ATOM     16  C   UNL     1      -6.923  11.791  21.101  0.00  0.00    +0.000 A 
ATOM     17  C   UNL     1      -7.812  11.863  22.180  0.00  0.00    +0.000 A 
ATOM     18  C   UNL     1      -7.915  13.037  22.927  0.00  0.00    +0.000 A 
ATOM     19  C   UNL     1      -7.111  14.128  22.609  0.00  0.00    +0.000 A 
ATOM     20  C   UNL     1      -6.198  14.043  21.552  0.00  0.00    +0.000 A 
ENDBRANCH  12  15
ENDBRANCH   3   9
BRANCH   6  21
ATOM     21  C   UNL     1       1.060   9.587  18.914  0.00  0.00    +0.000 A 
ATOM     22  C   UNL     1       1.174   8.950  20.155  0.00  0.00    +0.000 A 
ATOM     23  C   UNL     1       1.860   7.734  20.264  0.00  0.00    +0.000 A 
ATOM     24  C   UNL     1       2.473   7.165  19.147  0.00  0.00    +0.000 A 
ATOM     25  C   UNL     1       2.411   7.816  17.917  0.00  0.00    +0.000 A 
ATOM     26  C   UNL     1       1.701   9.012  17.799  0.00  0.00    +0.000 A 
ENDBRANCH   6  21
TORSDOF 3
ENDMDL
MODEL 6
REMARK VINA RESULT:      -6.9      2.609      8.746
REMARK  Name = 
REMARK  6 active torsions:
REMARK  status: ('A' for Active; 'I' for Inactive)
REMARK    1  A    between atoms: C_1  and  C_2
REMARK    2  A    between atoms: C_3  and  N_4
REMARK    3  A    between atoms: N_7  and  C_8
REMARK    4  A    between atoms: N_7  and  C_9
REMARK    5  A    between atoms: N_17  and  C_18
REMARK    6  A    between atoms: N_24  and  C_25
REMARK                            x       y       z     vdW  Elec       q    Type
REMARK                         _______ _______ _______ _____ _____    ______ ____
ROOT
ATOM      1  C   UNL     1      -0.234   9.613  17.753  0.00  0.00    +0.000 C 
ATOM      2  C   UNL     1      -0.035  10.019  19.181  0.00  0.00    +0.000 A 
ATOM      3  C   UNL     1       0.610   9.371  20.176  0.00  0.00    +0.000 A 
ATOM      4  C   UNL     1       0.767  10.406  21.277  0.00  0.00    +0.000 A 
ATOM      5  O   UNL     1       1.331  10.172  22.337  0.00  0.00    +0.000 OA
ATOM      6  N   UNL     1       0.113  11.565  20.828  0.00  0.00    +0.000 N 
ATOM      7  N   UNL     1      -0.482  11.291  19.582  0.00  0.00    +0.000 N 
ATOM      8  C   UNL     1      -0.678  12.388  18.630  0.00  0.00    +0.000 C 
ENDROOT
BRANCH   3   9
ATOM      9  N   UNL     1       1.121   8.094  20.326  0.00  0.00    +0.000 N 
ATOM     10  C   UNL     1       2.125   7.521  19.553  0.00  0.00    +0.000 C 
ATOM     11  O   UNL     1       2.678   8.143  18.651  0.00  0.00    +0.000 OA
ATOM     12  N   UNL     1       2.412   6.168  19.807  0.00  0.00    +0.000 N 
ATOM     13  C   UNL     1       1.812   5.322  20.845  0.00  0.00    +0.000 C 
ATOM     14  H   UNL     1       0.450   7.456  20.736  0.00  0.00    +0.000 HD
BRANCH  12  15
ATOM     15  C   UNL     1       3.345   5.486  18.947  0.00  0.00    +0.000 A 
ATOM     16  C   UNL     1       4.719   5.493  19.217  0.00  0.00    +0.000 A 
ATOM     17  C   UNL     1       5.617   4.834  18.371  0.00  0.00    +0.000 A 
ATOM     18  C   UNL     1       5.155   4.180  17.228  0.00  0.00    +0.000 A 
ATOM     19  C   UNL     1       3.792   4.168  16.946  0.00  0.00    +0.000 A 
ATOM     20  C   UNL     1       2.890   4.799  17.810  0.00  0.00    +0.000 A 
ENDBRANCH  12  15
ENDBRANCH   3   9
BRANCH   6  21
ATOM     21  C   UNL     1      -0.229  12.699  21.592  0.00  0.00    +0.000 A 
ATOM     22  C   UNL     1      -1.260  12.624  22.535  0.00  0.00    +0.000 A 
ATOM     23  C   UNL     1      -1.473  13.676  23.435  0.00  0.00    +0.000 A 
ATOM     24  C   UNL     1      -0.687  14.829  23.373  0.00  0.00    +0.000 A 
ATOM     25  C   UNL     1       0.308  14.936  22.405  0.00  0.00    +0.000 A 
ATOM     26  C   UNL     1       0.542  13.876  21.527  0.00  0.00    +0.000 A 
ENDBRANCH   6  21
TORSDOF 3
ENDMDL
MODEL 7
REMARK VINA RESULT:      -6.7      2.642      8.778
REMARK  Name = 
REMARK  6 active torsions:
REMARK  status: ('A' for Active; 'I' for Inactive)
REMARK    1  A    between atoms: C_1  and  C_2
REMARK    2  A    between atoms: C_3  and  N_4
REMARK    3  A    between atoms: N_7  and  C_8
REMARK    4  A    between atoms: N_7  and  C_9
REMARK    5  A    between atoms: N_17  and  C_18
REMARK    6  A    between atoms: N_24  and  C_25
REMARK                            x       y       z     vdW  Elec       q    Type
REMARK                         _______ _______ _______ _____ _____    ______ ____
ROOT
ATOM      1  C   UNL     1      -0.604   9.803  17.819  0.00  0.00    +0.000 C 
ATOM      2  C   UNL     1      -0.236  10.120  19.236  0.00  0.00    +0.000 A 
ATOM      3  C   UNL     1       0.610   9.474  20.068  0.00  0.00    +0.000 A 
ATOM      4  C   UNL     1       0.828  10.434  21.225  0.00  0.00    +0.000 A 
ATOM      5  O   UNL     1       1.563  10.185  22.170  0.00  0.00    +0.000 OA
ATOM      6  N   UNL     1       0.005  11.546  20.979  0.00  0.00    +0.000 N 
ATOM      7  N   UNL     1      -0.740  11.302  19.808  0.00  0.00    +0.000 N 
ATOM      8  C   UNL     1      -1.181  12.440  18.996  0.00  0.00    +0.000 C 
ENDROOT
BRANCH   3   9
ATOM      9  N   UNL     1       1.260   8.253  20.030  0.00  0.00    +0.000 N 
ATOM     10  C   UNL     1       2.182   7.850  19.070  0.00  0.00    +0.000 C 
ATOM     11  O   UNL     1       2.524   8.591  18.153  0.00  0.00    +0.000 OA
ATOM     12  N   UNL     1       2.635   6.521  19.159  0.00  0.00    +0.000 N 
ATOM     13  C   UNL     1       2.289   5.544  20.198  0.00  0.00    +0.000 C 
ATOM     14  H   UNL     1       0.726   7.518  20.478  0.00  0.00    +0.000 HD
BRANCH  12  15
ATOM     15  C   UNL     1       3.483   6.008  18.115  0.00  0.00    +0.000 A 
ATOM     16  C   UNL     1       4.406   6.832  17.460  0.00  0.00    +0.000 A 
ATOM     17  C   UNL     1       5.221   6.326  16.441  0.00  0.00    +0.000 A 
ATOM     18  C   UNL     1       5.104   4.993  16.046  0.00  0.00    +0.000 A 
ATOM     19  C   UNL     1       4.188   4.163  16.687  0.00  0.00    +0.000 A 
ATOM     20  C   UNL     1       3.397   4.661  17.728  0.00  0.00    +0.000 A 
ENDBRANCH  12  15
ENDBRANCH   3   9
BRANCH   6  21
ATOM     21  C   UNL     1      -0.329  12.575  21.882  0.00  0.00    +0.000 A 
ATOM     22  C   UNL     1       0.356  13.795  21.837  0.00  0.00    +0.000 A 
ATOM     23  C   UNL     1      -0.099  14.887  22.587  0.00  0.00    +0.000 A 
ATOM     24  C   UNL     1      -1.213  14.760  23.418  0.00  0.00    +0.000 A 
ATOM     25  C   UNL     1      -1.871  13.536  23.510  0.00  0.00    +0.000 A 
ATOM     26  C   UNL     1      -1.438  12.455  22.740  0.00  0.00    +0.000 A 
ENDBRANCH   6  21
TORSDOF 3
ENDMDL
MODEL 8
REMARK VINA RESULT:      -6.7      4.720      7.991
REMARK  Name = 
REMARK  6 active torsions:
REMARK  status: ('A' for Active; 'I' for Inactive)
REMARK    1  A    between atoms: C_1  and  C_2
REMARK    2  A    between atoms: C_3  and  N_4
REMARK    3  A    between atoms: N_7  and  C_8
REMARK    4  A    between atoms: N_7  and  C_9
REMARK    5  A    between atoms: N_17  and  C_18
REMARK    6  A    between atoms: N_24  and  C_25
REMARK                            x       y       z     vdW  Elec       q    Type
REMARK                         _______ _______ _______ _____ _____    ______ ____
ROOT
ATOM      1  C   UNL     1      -0.285  14.476  19.833  0.00  0.00    +0.000 C 
ATOM      2  C   UNL     1      -0.612  13.025  19.652  0.00  0.00    +0.000 A 
ATOM      3  C   UNL     1      -1.810  12.434  19.453  0.00  0.00    +0.000 A 
ATOM      4  C   UNL     1      -1.477  11.019  19.012  0.00  0.00    +0.000 A 
ATOM      5  O   UNL     1      -2.330  10.192  18.722  0.00  0.00    +0.000 OA
ATOM      6  N   UNL     1      -0.078  10.903  19.071  0.00  0.00    +0.000 N 
ATOM      7  N   UNL     1       0.451  12.106  19.578  0.00  0.00    +0.000 N 
ATOM      8  C   UNL     1       1.807  12.506  19.191  0.00  0.00    +0.000 C 
ENDROOT
BRANCH   3   9
ATOM      9  N   UNL     1      -3.124  12.859  19.536  0.00  0.00    +0.000 N 
ATOM     10  C   UNL     1      -3.852  13.034  20.708  0.00  0.00    +0.000 C 
ATOM     11  O   UNL     1      -3.353  12.840  21.812  0.00  0.00    +0.000 OA
ATOM     12  N   UNL     1      -5.211  13.365  20.555  0.00  0.00    +0.000 N 
ATOM     13  C   UNL     1      -5.918  13.611  19.293  0.00  0.00    +0.000 C 
ATOM     14  H   UNL     1      -3.656  12.629  18.706  0.00  0.00    +0.000 HD
BRANCH  12  15
ATOM     15  C   UNL     1      -6.044  13.424  21.728  0.00  0.00    +0.000 A 
ATOM     16  C   UNL     1      -6.017  14.535  22.581  0.00  0.00    +0.000 A 
ATOM     17  C   UNL     1      -6.826  14.579  23.722  0.00  0.00    +0.000 A 
ATOM     18  C   UNL     1      -7.653  13.502  24.040  0.00  0.00    +0.000 A 
ATOM     19  C   UNL     1      -7.687  12.390  23.201  0.00  0.00    +0.000 A 
ATOM     20  C   UNL     1      -6.903  12.360  22.043  0.00  0.00    +0.000 A 
ENDBRANCH  12  15
ENDBRANCH   3   9
BRANCH   6  21
ATOM     21  C   UNL     1       0.682   9.718  19.001  0.00  0.00    +0.000 A 
ATOM     22  C   UNL     1       1.269   9.334  17.790  0.00  0.00    +0.000 A 
ATOM     23  C   UNL     1       2.187   8.276  17.756  0.00  0.00    +0.000 A 
ATOM     24  C   UNL     1       2.493   7.567  18.918  0.00  0.00    +0.000 A 
ATOM     25  C   UNL     1       1.875   7.907  20.119  0.00  0.00    +0.000 A 
ATOM     26  C   UNL     1       0.984   8.981  20.162  0.00  0.00    +0.000 A 
ENDBRANCH   6  21
TORSDOF 3
ENDMDL
MODEL 9
REMARK VINA RESULT:      -6.6      2.613      8.803
REMARK  Name = 
REMARK  6 active torsions:
REMARK  status: ('A' for Active; 'I' for Inactive)
REMARK    1  A    between atoms: C_1  and  C_2
REMARK    2  A    between atoms: C_3  and  N_4
REMARK    3  A    between atoms: N_7  and  C_8
REMARK    4  A    between atoms: N_7  and  C_9
REMARK    5  A    between atoms: N_17  and  C_18
REMARK    6  A    between atoms: N_24  and  C_25
REMARK                            x       y       z     vdW  Elec       q    Type
REMARK                         _______ _______ _______ _____ _____    ______ ____
ROOT
ATOM      1  C   UNL     1      -0.678   9.779  17.702  0.00  0.00    +0.000 C 
ATOM      2  C   UNL     1      -0.313  10.188  19.097  0.00  0.00    +0.000 A 
ATOM      3  C   UNL     1       0.507   9.581  19.982  0.00  0.00    +0.000 A 
ATOM      4  C   UNL     1       0.741  10.616  21.069  0.00  0.00    +0.000 A 
ATOM      5  O   UNL     1       1.461  10.417  22.037  0.00  0.00    +0.000 OA
ATOM      6  N   UNL     1      -0.049  11.729  20.734  0.00  0.00    +0.000 N 
ATOM      7  N   UNL     1      -0.790  11.421  19.576  0.00  0.00    +0.000 N 
ATOM      8  C   UNL     1      -1.192  12.508  18.679  0.00  0.00    +0.000 C 
ENDROOT
BRANCH   3   9
ATOM      9  N   UNL     1       1.123   8.343  20.039  0.00  0.00    +0.000 N 
ATOM     10  C   UNL     1       2.042   7.847  19.121  0.00  0.00    +0.000 C 
ATOM     11  O   UNL     1       2.414   8.510  18.158  0.00  0.00    +0.000 OA
ATOM     12  N   UNL     1       2.458   6.516  19.311  0.00  0.00    +0.000 N 
ATOM     13  C   UNL     1       2.075   5.626  20.414  0.00  0.00    +0.000 C 
ATOM     14  H   UNL     1       0.565   7.657  20.533  0.00  0.00    +0.000 HD
BRANCH  12  15
ATOM     15  C   UNL     1       3.302   5.906  18.316  0.00  0.00    +0.000 A 
ATOM     16  C   UNL     1       2.949   4.693  17.713  0.00  0.00    +0.000 A 
ATOM     17  C   UNL     1       3.780   4.104  16.752  0.00  0.00    +0.000 A 
ATOM     18  C   UNL     1       4.987   4.710  16.402  0.00  0.00    +0.000 A 
ATOM     19  C   UNL     1       5.350   5.915  16.997  0.00  0.00    +0.000 A 
ATOM     20  C   UNL     1       4.504   6.520  17.932  0.00  0.00    +0.000 A 
ENDBRANCH  12  15
ENDBRANCH   3   9
BRANCH   6  21
ATOM     21  C   UNL     1      -0.361  12.830  21.556  0.00  0.00    +0.000 A 
ATOM     22  C   UNL     1      -1.354  12.712  22.536  0.00  0.00    +0.000 A 
ATOM     23  C   UNL     1      -1.532  13.726  23.486  0.00  0.00    +0.000 A 
ATOM     24  C   UNL     1      -0.751  14.883  23.440  0.00  0.00    +0.000 A 
ATOM     25  C   UNL     1       0.204  15.033  22.438  0.00  0.00    +0.000 A 
ATOM     26  C   UNL     1       0.404  14.010  21.509  0.00  0.00    +0.000 A 
ENDBRANCH   6  21
TORSDOF 3
ENDMDL
