MODEL 1
REMARK VINA RESULT:      -6.8      0.000      0.000
REMARK  Name = 
REMARK  5 active torsions:
REMARK  status: ('A' for Active; 'I' for Inactive)
REMARK    1  A    between atoms: C_1  and  C_2
REMARK    2  A    between atoms: C_2  and  C_15
REMARK    3  A    between atoms: C_3  and  C_5
REMARK    4  A    between atoms: C_12  and  C_13
REMARK    5  A    between atoms: C_13  and  O_14
REMARK                            x       y       z     vdW  Elec       q    Type
REMARK                         _______ _______ _______ _____ _____    ______ ____
ROOT
ATOM      1  C   UNL     1       5.350   4.945  18.821  0.00  0.00    +0.000 C 
ATOM      2  O   UNL     1       6.012   5.578  19.641  0.00  0.00    +0.000 OA
ATOM      3  N   UNL     1       5.469   5.158  17.442  0.00  0.00    +0.000 N 
ATOM      4  C   UNL     1       4.631   4.518  16.418  0.00  0.00    +0.000 C 
ATOM      5  C   UNL     1       5.466   3.561  15.584  0.00  0.00    +0.000 C 
ATOM      6  C   UNL     1       6.539   4.355  14.857  0.00  0.00    +0.000 C 
ATOM      7  C   UNL     1       7.386   5.149  15.850  0.00  0.00    +0.000 C 
ATOM      8  C   UNL     1       6.544   6.007  16.833  0.00  0.00    +0.000 C 
ENDROOT
BRANCH   1  11
ATOM      9  C   UNL     1       2.219   5.151  19.223  0.00  0.00    +0.000 C 
ATOM     10  C   UNL     1       3.086   3.968  19.570  0.00  0.00    +0.000 C 
ATOM     11  C   UNL     1       4.410   3.875  19.317  0.00  0.00    +0.000 C 
ATOM     12  F   UNL     1       4.955   2.651  19.489  0.00  0.00    +0.000 F 
BRANCH  10  13
ATOM     13  C   UNL     1       2.369   2.820  20.188  0.00  0.00    +0.000 C 
ATOM     14  C   UNL     1       2.330   2.767  21.703  0.00  0.00    +0.000 C 
ATOM     15  C   UNL     1       1.070   3.001  20.932  0.00  0.00    +0.000 C 
ENDBRANCH  10  13
ENDBRANCH   1  11
BRANCH   8  16
ATOM     16  C   UNL     1       7.534   6.764  17.746  0.00  0.00    +0.000 C 
BRANCH  16  17
ATOM     17  O   UNL     1       7.799   8.080  17.274  0.00  0.00    +0.000 OA
ATOM     18  H   UNL     1       8.773   8.172  17.360  0.00  0.00    +0.000 HD
ENDBRANCH  16  17
ENDBRANCH   8  16
TORSDOF 4
ENDMDL
MODEL 2
REMARK VINA RESULT:      -6.7      2.718      5.951
REMARK  Name = 
REMARK  5 active torsions:
REMARK  status: ('A' for Active; 'I' for Inactive)
REMARK    1  A    between atoms: C_1  and  C_2
REMARK    2  A    between atoms: C_2  and  C_15
REMARK    3  A    between atoms: C_3  and  C_5
REMARK    4  A    between atoms: C_12  and  C_13
REMARK    5  A    between atoms: C_13  and  O_14
REMARK                            x       y       z     vdW  Elec       q    Type
REMARK                         _______ _______ _______ _____ _____    ______ ____
ROOT
ATOM      1  C   UNL     1       3.624   3.797  17.775  0.00  0.00    +0.000 C 
ATOM      2  O   UNL     1       3.643   2.568  17.740  0.00  0.00    +0.000 OA
ATOM      3  N   UNL     1       2.567   4.510  18.353  0.00  0.00    +0.000 N 
ATOM      4  C   UNL     1       2.429   5.974  18.328  0.00  0.00    +0.000 C 
ATOM      5  C   UNL     1       2.587   6.536  19.732  0.00  0.00    +0.000 C 
ATOM      6  C   UNL     1       1.467   5.992  20.604  0.00  0.00    +0.000 C 
ATOM      7  C   UNL     1       1.468   4.464  20.588  0.00  0.00    +0.000 C 
ATOM      8  C   UNL     1       1.482   3.862  19.158  0.00  0.00    +0.000 C 
ENDROOT
BRANCH   1  11
ATOM      9  C   UNL     1       6.055   5.057  19.360  0.00  0.00    +0.000 C 
ATOM     10  C   UNL     1       5.803   5.170  17.879  0.00  0.00    +0.000 C 
ATOM     11  C   UNL     1       4.799   4.558  17.213  0.00  0.00    +0.000 C 
ATOM     12  F   UNL     1       4.881   4.595  15.865  0.00  0.00    +0.000 F 
BRANCH  10  13
ATOM     13  C   UNL     1       6.795   5.988  17.130  0.00  0.00    +0.000 C 
ATOM     14  C   UNL     1       6.587   7.490  17.123  0.00  0.00    +0.000 C 
ATOM     15  C   UNL     1       7.765   6.903  17.835  0.00  0.00    +0.000 C 
ENDBRANCH  10  13
ENDBRANCH   1  11
BRANCH   8  16
ATOM     16  C   UNL     1       1.452   2.325  19.307  0.00  0.00    +0.000 C 
BRANCH  16  17
ATOM     17  O   UNL     1       0.762   1.695  18.234  0.00  0.00    +0.000 OA
ATOM     18  H   UNL     1       1.460   1.182  17.771  0.00  0.00    +0.000 HD
ENDBRANCH  16  17
ENDBRANCH   8  16
TORSDOF 4
ENDMDL
MODEL 3
REMARK VINA RESULT:      -6.6      1.936      2.748
REMARK  Name = 
REMARK  5 active torsions:
REMARK  status: ('A' for Active; 'I' for Inactive)
REMARK    1  A    between atoms: C_1  and  C_2
REMARK    2  A    between atoms: C_2  and  C_15
REMARK    3  A    between atoms: C_3  and  C_5
REMARK    4  A    between atoms: C_12  and  C_13
REMARK    5  A    between atoms: C_13  and  O_14
REMARK                            x       y       z     vdW  Elec       q    Type
REMARK                         _______ _______ _______ _____ _____    ______ ____
ROOT
ATOM      1  C   UNL     1       4.544   3.930  16.703  0.00  0.00    +0.000 C 
ATOM      2  O   UNL     1       4.399   3.902  15.483  0.00  0.00    +0.000 OA
ATOM      3  N   UNL     1       5.772   4.240  17.301  0.00  0.00    +0.000 N 
ATOM      4  C   UNL     1       6.041   4.180  18.745  0.00  0.00    +0.000 C 
ATOM      5  C   UNL     1       6.274   5.580  19.291  0.00  0.00    +0.000 C 
ATOM      6  C   UNL     1       7.509   6.165  18.625  0.00  0.00    +0.000 C 
ATOM      7  C   UNL     1       7.356   6.152  17.105  0.00  0.00    +0.000 C 
ATOM      8  C   UNL     1       6.947   4.768  16.536  0.00  0.00    +0.000 C 
ENDROOT
BRANCH   1  11
ATOM      9  C   UNL     1       2.720   6.040  18.198  0.00  0.00    +0.000 C 
ATOM     10  C   UNL     1       2.608   4.540  18.292  0.00  0.00    +0.000 C 
ATOM     11  C   UNL     1       3.350   3.660  17.584  0.00  0.00    +0.000 C 
ATOM     12  F   UNL     1       2.941   2.373  17.637  0.00  0.00    +0.000 F 
BRANCH  10  13
ATOM     13  C   UNL     1       1.549   4.043  19.211  0.00  0.00    +0.000 C 
ATOM     14  C   UNL     1       2.000   3.492  20.550  0.00  0.00    +0.000 C 
ATOM     15  C   UNL     1       1.208   4.760  20.493  0.00  0.00    +0.000 C 
ENDBRANCH  10  13
ENDBRANCH   1  11
BRANCH   8  16
ATOM     16  C   UNL     1       6.862   4.909  15.000  0.00  0.00    +0.000 C 
BRANCH  16  17
ATOM     17  O   UNL     1       7.969   5.625  14.465  0.00  0.00    +0.000 OA
ATOM     18  H   UNL     1       8.713   5.395  15.063  0.00  0.00    +0.000 HD
ENDBRANCH  16  17
ENDBRANCH   8  16
TORSDOF 4
ENDMDL
MODEL 4
REMARK VINA RESULT:      -6.6      2.047      5.698
REMARK  Name = 
REMARK  5 active torsions:
REMARK  status: ('A' for Active; 'I' for Inactive)
REMARK    1  A    between atoms: C_1  and  C_2
REMARK    2  A    between atoms: C_2  and  C_15
REMARK    3  A    between atoms: C_3  and  C_5
REMARK    4  A    between atoms: C_12  and  C_13
REMARK    5  A    between atoms: C_13  and  O_14
REMARK                            x       y       z     vdW  Elec       q    Type
REMARK                         _______ _______ _______ _____ _____    ______ ____
ROOT
ATOM      1  C   UNL     1       3.666   5.420  18.147  0.00  0.00    +0.000 C 
ATOM      2  O   UNL     1       3.411   6.602  17.928  0.00  0.00    +0.000 OA
ATOM      3  N   UNL     1       3.297   4.787  19.340  0.00  0.00    +0.000 N 
ATOM      4  C   UNL     1       3.669   3.413  19.712  0.00  0.00    +0.000 C 
ATOM      5  C   UNL     1       2.434   2.527  19.736  0.00  0.00    +0.000 C 
ATOM      6  C   UNL     1       1.484   3.042  20.804  0.00  0.00    +0.000 C 
ATOM      7  C   UNL     1       1.140   4.510  20.555  0.00  0.00    +0.000 C 
ATOM      8  C   UNL     1       2.387   5.411  20.354  0.00  0.00    +0.000 C 
ENDROOT
BRANCH   1  11
ATOM      9  C   UNL     1       6.691   5.616  17.238  0.00  0.00    +0.000 C 
ATOM     10  C   UNL     1       5.630   4.740  16.623  0.00  0.00    +0.000 C 
ATOM     11  C   UNL     1       4.364   4.616  17.079  0.00  0.00    +0.000 C 
ATOM     12  F   UNL     1       3.641   3.612  16.536  0.00  0.00    +0.000 F 
BRANCH  10  13
ATOM     13  C   UNL     1       6.079   3.929  15.459  0.00  0.00    +0.000 C 
ATOM     14  C   UNL     1       5.552   4.332  14.095  0.00  0.00    +0.000 C 
ATOM     15  C   UNL     1       7.006   4.490  14.410  0.00  0.00    +0.000 C 
ENDBRANCH  10  13
ENDBRANCH   1  11
BRANCH   8  16
ATOM     16  C   UNL     1       1.881   6.855  20.143  0.00  0.00    +0.000 C 
BRANCH  16  17
ATOM     17  O   UNL     1       1.885   7.607  21.352  0.00  0.00    +0.000 OA
ATOM     18  H   UNL     1       2.667   8.195  21.264  0.00  0.00    +0.000 HD
ENDBRANCH  16  17
ENDBRANCH   8  16
TORSDOF 4
ENDMDL
MODEL 5
REMARK VINA RESULT:      -6.5      1.604      1.843
REMARK  Name = 
REMARK  5 active torsions:
REMARK  status: ('A' for Active; 'I' for Inactive)
REMARK    1  A    between atoms: C_1  and  C_2
REMARK    2  A    between atoms: C_2  and  C_15
REMARK    3  A    between atoms: C_3  and  C_5
REMARK    4  A    between atoms: C_12  and  C_13
REMARK    5  A    between atoms: C_13  and  O_14
REMARK                            x       y       z     vdW  Elec       q    Type
REMARK                         _______ _______ _______ _____ _____    ______ ____
ROOT
ATOM      1  C   UNL     1       5.006   5.261  18.826  0.00  0.00    +0.000 C 
ATOM      2  O   UNL     1       5.665   5.246  19.863  0.00  0.00    +0.000 OA
ATOM      3  N   UNL     1       5.579   5.546  17.581  0.00  0.00    +0.000 N 
ATOM      4  C   UNL     1       4.830   5.691  16.324  0.00  0.00    +0.000 C 
ATOM      5  C   UNL     1       5.170   4.550  15.380  0.00  0.00    +0.000 C 
ATOM      6  C   UNL     1       6.648   4.624  15.035  0.00  0.00    +0.000 C 
ATOM      7  C   UNL     1       7.498   4.600  16.304  0.00  0.00    +0.000 C 
ATOM      8  C   UNL     1       7.059   5.646  17.363  0.00  0.00    +0.000 C 
ENDROOT
BRANCH   1  11
ATOM      9  C   UNL     1       3.616   2.510  18.110  0.00  0.00    +0.000 C 
ATOM     10  C   UNL     1       2.918   3.781  18.518  0.00  0.00    +0.000 C 
ATOM     11  C   UNL     1       3.538   4.922  18.894  0.00  0.00    +0.000 C 
ATOM     12  F   UNL     1       2.743   5.867  19.443  0.00  0.00    +0.000 F 
BRANCH  10  13
ATOM     13  C   UNL     1       1.432   3.705  18.543  0.00  0.00    +0.000 C 
ATOM     14  C   UNL     1       0.816   2.350  18.836  0.00  0.00    +0.000 C 
ATOM     15  C   UNL     1       0.669   3.467  19.821  0.00  0.00    +0.000 C 
ENDBRANCH  10  13
ENDBRANCH   1  11
BRANCH   8  16
ATOM     16  C   UNL     1       8.022   5.517  18.564  0.00  0.00    +0.000 C 
BRANCH  16  17
ATOM     17  O   UNL     1       8.323   6.780  19.147  0.00  0.00    +0.000 OA
ATOM     18  H   UNL     1       8.988   6.570  19.839  0.00  0.00    +0.000 HD
ENDBRANCH  16  17
ENDBRANCH   8  16
TORSDOF 4
ENDMDL
MODEL 6
REMARK VINA RESULT:      -6.4      2.452      5.889
REMARK  Name = 
REMARK  5 active torsions:
REMARK  status: ('A' for Active; 'I' for Inactive)
REMARK    1  A    between atoms: C_1  and  C_2
REMARK    2  A    between atoms: C_2  and  C_15
REMARK    3  A    between atoms: C_3  and  C_5
REMARK    4  A    between atoms: C_12  and  C_13
REMARK    5  A    between atoms: C_13  and  O_14
REMARK                            x       y       z     vdW  Elec       q    Type
REMARK                         _______ _______ _______ _____ _____    ______ ____
ROOT
ATOM      1  C   UNL     1       4.123   4.340  17.946  0.00  0.00    +0.000 C 
ATOM      2  O   UNL     1       4.559   3.415  17.263  0.00  0.00    +0.000 OA
ATOM      3  N   UNL     1       2.818   4.340  18.455  0.00  0.00    +0.000 N 
ATOM      4  C   UNL     1       2.200   5.460  19.180  0.00  0.00    +0.000 C 
ATOM      5  C   UNL     1       1.966   5.075  20.632  0.00  0.00    +0.000 C 
ATOM      6  C   UNL     1       0.987   3.913  20.678  0.00  0.00    +0.000 C 
ATOM      7  C   UNL     1       1.504   2.742  19.843  0.00  0.00    +0.000 C 
ATOM      8  C   UNL     1       1.916   3.145  18.402  0.00  0.00    +0.000 C 
ENDROOT
BRANCH   1  11
ATOM      9  C   UNL     1       5.195   6.590  15.996  0.00  0.00    +0.000 C 
ATOM     10  C   UNL     1       5.569   6.414  17.446  0.00  0.00    +0.000 C 
ATOM     11  C   UNL     1       5.037   5.492  18.278  0.00  0.00    +0.000 C 
ATOM     12  F   UNL     1       5.330   5.648  19.588  0.00  0.00    +0.000 F 
BRANCH  10  13
ATOM     13  C   UNL     1       6.564   7.392  17.963  0.00  0.00    +0.000 C 
ATOM     14  C   UNL     1       7.940   6.857  18.308  0.00  0.00    +0.000 C 
ATOM     15  C   UNL     1       7.772   7.799  17.158  0.00  0.00    +0.000 C 
ENDBRANCH  10  13
ENDBRANCH   1  11
BRANCH   8  16
ATOM     16  C   UNL     1       2.386   1.861  17.683  0.00  0.00    +0.000 C 
BRANCH  16  17
ATOM     17  O   UNL     1       3.266   1.086  18.489  0.00  0.00    +0.000 OA
ATOM     18  H   UNL     1       3.169   0.174  18.138  0.00  0.00    +0.000 HD
ENDBRANCH  16  17
ENDBRANCH   8  16
TORSDOF 4
ENDMDL
MODEL 7
REMARK VINA RESULT:      -6.4      2.080      2.933
REMARK  Name = 
REMARK  5 active torsions:
REMARK  status: ('A' for Active; 'I' for Inactive)
REMARK    1  A    between atoms: C_1  and  C_2
REMARK    2  A    between atoms: C_2  and  C_15
REMARK    3  A    between atoms: C_3  and  C_5
REMARK    4  A    between atoms: C_12  and  C_13
REMARK    5  A    between atoms: C_13  and  O_14
REMARK                            x       y       z     vdW  Elec       q    Type
REMARK                         _______ _______ _______ _____ _____    ______ ____
ROOT
ATOM      1  C   UNL     1       4.326   4.151  16.882  0.00  0.00    +0.000 C 
ATOM      2  O   UNL     1       4.175   4.056  15.665  0.00  0.00    +0.000 OA
ATOM      3  N   UNL     1       5.588   4.303  17.467  0.00  0.00    +0.000 N 
ATOM      4  C   UNL     1       5.848   4.310  18.915  0.00  0.00    +0.000 C 
ATOM      5  C   UNL     1       6.304   5.690  19.357  0.00  0.00    +0.000 C 
ATOM      6  C   UNL     1       7.615   6.018  18.662  0.00  0.00    +0.000 C 
ATOM      7  C   UNL     1       7.460   5.916  17.146  0.00  0.00    +0.000 C 
ATOM      8  C   UNL     1       6.832   4.577  16.677  0.00  0.00    +0.000 C 
ENDROOT
BRANCH   1  11
ATOM      9  C   UNL     1       3.142   1.724  18.530  0.00  0.00    +0.000 C 
ATOM     10  C   UNL     1       2.540   3.100  18.415  0.00  0.00    +0.000 C 
ATOM     11  C   UNL     1       3.105   4.143  17.768  0.00  0.00    +0.000 C 
ATOM     12  F   UNL     1       2.526   5.345  17.976  0.00  0.00    +0.000 F 
BRANCH  10  13
ATOM     13  C   UNL     1       1.249   3.287  19.132  0.00  0.00    +0.000 C 
ATOM     14  C   UNL     1       1.175   2.783  20.560  0.00  0.00    +0.000 C 
ATOM     15  C   UNL     1       1.111   4.251  20.282  0.00  0.00    +0.000 C 
ENDBRANCH  10  13
ENDBRANCH   1  11
BRANCH   8  16
ATOM     16  C   UNL     1       6.768   4.614  15.134  0.00  0.00    +0.000 C 
BRANCH  16  17
ATOM     17  O   UNL     1       7.765   5.462  14.576  0.00  0.00    +0.000 OA
ATOM     18  H   UNL     1       7.760   6.252  15.160  0.00  0.00    +0.000 HD
ENDBRANCH  16  17
ENDBRANCH   8  16
TORSDOF 4
ENDMDL
MODEL 8
REMARK VINA RESULT:      -6.4      2.492      5.858
REMARK  Name = 
REMARK  5 active torsions:
REMARK  status: ('A' for Active; 'I' for Inactive)
REMARK    1  A    between atoms: C_1  and  C_2
REMARK    2  A    between atoms: C_2  and  C_15
REMARK    3  A    between atoms: C_3  and  C_5
REMARK    4  A    between atoms: C_12  and  C_13
REMARK    5  A    between atoms: C_13  and  O_14
REMARK                            x       y       z     vdW  Elec       q    Type
REMARK                         _______ _______ _______ _____ _____    ______ ____
ROOT
ATOM      1  C   UNL     1       4.081   3.923  17.890  0.00  0.00    +0.000 C 
ATOM      2  O   UNL     1       4.081   2.764  17.480  0.00  0.00    +0.000 OA
ATOM      3  N   UNL     1       2.914   4.556  18.336  0.00  0.00    +0.000 N 
ATOM      4  C   UNL     1       2.823   5.969  18.731  0.00  0.00    +0.000 C 
ATOM      5  C   UNL     1       2.556   6.077  20.224  0.00  0.00    +0.000 C 
ATOM      6  C   UNL     1       1.212   5.437  20.527  0.00  0.00    +0.000 C 
ATOM      7  C   UNL     1       1.182   3.991  20.036  0.00  0.00    +0.000 C 
ATOM      8  C   UNL     1       1.620   3.832  18.556  0.00  0.00    +0.000 C 
ENDROOT
BRANCH   1  11
ATOM      9  C   UNL     1       5.299   5.878  15.722  0.00  0.00    +0.000 C 
ATOM     10  C   UNL     1       5.961   5.448  17.005  0.00  0.00    +0.000 C 
ATOM     11  C   UNL     1       5.388   4.672  17.952  0.00  0.00    +0.000 C 
ATOM     12  F   UNL     1       6.053   4.593  19.126  0.00  0.00    +0.000 F 
BRANCH  10  13
ATOM     13  C   UNL     1       7.330   5.988  17.222  0.00  0.00    +0.000 C 
ATOM     14  C   UNL     1       7.453   7.482  17.456  0.00  0.00    +0.000 C 
ATOM     15  C   UNL     1       7.771   6.524  18.560  0.00  0.00    +0.000 C 
ENDBRANCH  10  13
ENDBRANCH   1  11
BRANCH   8  16
ATOM     16  C   UNL     1       1.511   2.332  18.203  0.00  0.00    +0.000 C 
BRANCH  16  17
ATOM     17  O   UNL     1       1.993   1.498  19.251  0.00  0.00    +0.000 OA
ATOM     18  H   UNL     1       2.522   0.813  18.786  0.00  0.00    +0.000 HD
ENDBRANCH  16  17
ENDBRANCH   8  16
TORSDOF 4
ENDMDL
MODEL 9
REMARK VINA RESULT:      -6.4      2.597      5.793
REMARK  Name = 
REMARK  5 active torsions:
REMARK  status: ('A' for Active; 'I' for Inactive)
REMARK    1  A    between atoms: C_1  and  C_2
REMARK    2  A    between atoms: C_2  and  C_15
REMARK    3  A    between atoms: C_3  and  C_5
REMARK    4  A    between atoms: C_12  and  C_13
REMARK    5  A    between atoms: C_13  and  O_14
REMARK                            x       y       z     vdW  Elec       q    Type
REMARK                         _______ _______ _______ _____ _____    ______ ____
ROOT
ATOM      1  C   UNL     1       3.725   3.267  18.700  0.00  0.00    +0.000 C 
ATOM      2  O   UNL     1       3.825   2.149  19.202  0.00  0.00    +0.000 OA
ATOM      3  N   UNL     1       2.659   4.125  18.996  0.00  0.00    +0.000 N 
ATOM      4  C   UNL     1       2.420   5.423  18.347  0.00  0.00    +0.000 C 
ATOM      5  C   UNL     1       2.624   6.550  19.346  0.00  0.00    +0.000 C 
ATOM      6  C   UNL     1       1.601   6.408  20.460  0.00  0.00    +0.000 C 
ATOM      7  C   UNL     1       1.704   5.030  21.112  0.00  0.00    +0.000 C 
ATOM      8  C   UNL     1       1.672   3.860  20.093  0.00  0.00    +0.000 C 
ENDROOT
BRANCH   1  11
ATOM      9  C   UNL     1       6.134   5.211  19.354  0.00  0.00    +0.000 C 
ATOM     10  C   UNL     1       5.797   4.633  18.004  0.00  0.00    +0.000 C 
ATOM     11  C   UNL     1       4.809   3.743  17.765  0.00  0.00    +0.000 C 
ATOM     12  F   UNL     1       4.818   3.172  16.541  0.00  0.00    +0.000 F 
BRANCH  10  13
ATOM     13  C   UNL     1       6.685   5.067  16.892  0.00  0.00    +0.000 C 
ATOM     14  C   UNL     1       6.145   6.127  15.951  0.00  0.00    +0.000 C 
ATOM     15  C   UNL     1       7.295   6.446  16.853  0.00  0.00    +0.000 C 
ENDBRANCH  10  13
ENDBRANCH   1  11
BRANCH   8  16
ATOM     16  C   UNL     1       1.757   2.545  20.899  0.00  0.00    +0.000 C 
BRANCH  16  17
ATOM     17  O   UNL     1       2.642   2.652  22.008  0.00  0.00    +0.000 OA
ATOM     18  H   UNL     1       2.060   2.919  22.753  0.00  0.00    +0.000 HD
ENDBRANCH  16  17
ENDBRANCH   8  16
TORSDOF 4
ENDMDL
