MODEL 1
REMARK VINA RESULT:      -7.3      0.000      0.000
REMARK  Name = 
REMARK  6 active torsions:
REMARK  status: ('A' for Active; 'I' for Inactive)
REMARK    1  A    between atoms: C_1  and  O_2
REMARK    2  A    between atoms: O_2  and  C_3
REMARK    3  A    between atoms: C_6  and  N_7
REMARK    4  A    between atoms: N_7  and  C_8
REMARK    5  A    between atoms: C_8  and  C_9
REMARK    6  A    between atoms: N_21  and  C_22
REMARK                            x       y       z     vdW  Elec       q    Type
REMARK                         _______ _______ _______ _____ _____    ______ ____
ROOT
ATOM      1  N   UNL     1       0.319  11.290  18.971  0.00  0.00    +0.000 N 
ATOM      2  C   UNL     1       0.892  12.576  19.072  0.00  0.00    +0.000 C 
ATOM      3  O   UNL     1       0.270  13.604  18.796  0.00  0.00    +0.000 OA
ATOM      4  N   UNL     1       2.237  12.591  19.404  0.00  0.00    +0.000 N 
ATOM      5  H   UNL     1       2.745  11.765  19.102  0.00  0.00    +0.000 HD
ENDROOT
BRANCH   1   9
ATOM      6  C   UNL     1      -3.794  11.116  17.873  0.00  0.00    +0.000 A 
ATOM      7  C   UNL     1      -3.386  11.702  19.075  0.00  0.00    +0.000 A 
ATOM      8  C   UNL     1      -2.033  11.757  19.417  0.00  0.00    +0.000 A 
ATOM      9  C   UNL     1      -1.060  11.188  18.585  0.00  0.00    +0.000 A 
ATOM     10  C   UNL     1      -1.477  10.532  17.417  0.00  0.00    +0.000 A 
ATOM     11  C   UNL     1      -2.830  10.498  17.066  0.00  0.00    +0.000 A 
ATOM     12 CL   UNL     1      -3.282   9.697  15.598  0.00  0.00    +0.000 Cl
BRANCH   6  14
ATOM     13  C   UNL     1      -5.660  12.364  17.142  0.00  0.00    +0.000 C 
ATOM     14  O   UNL     1      -5.109  11.093  17.473  0.00  0.00    +0.000 OA
ENDBRANCH   6  14
ENDBRANCH   1   9
BRANCH   4  15
ATOM     15  C   UNL     1       3.008  13.768  19.342  0.00  0.00    +0.000 A 
ATOM     16  C   UNL     1       3.523  14.248  18.137  0.00  0.00    +0.000 A 
ATOM     17  C   UNL     1       4.322  15.393  18.130  0.00  0.00    +0.000 A 
ATOM     18  C   UNL     1       4.622  16.038  19.331  0.00  0.00    +0.000 A 
ATOM     19 CL   UNL     1       5.661  17.409  19.328  0.00  0.00    +0.000 Cl
ATOM     20  C   UNL     1       4.094  15.575  20.533  0.00  0.00    +0.000 A 
ATOM     21  C   UNL     1       3.260  14.454  20.535  0.00  0.00    +0.000 A 
ENDBRANCH   4  15
BRANCH   1  22
ATOM     22  C   UNL     1       0.852  10.108  19.687  0.00  0.00    +0.000 C 
BRANCH  22  23
ATOM     23  C   UNL     1       1.491   9.069  18.815  0.00  0.00    +0.000 A 
ATOM     24  N   UNL     1       1.822   9.245  17.550  0.00  0.00    +0.000 NA
ATOM     25  N   UNL     1       2.667   8.247  17.170  0.00  0.00    +0.000 NA
ATOM     26  C   UNL     1       2.859   7.453  18.205  0.00  0.00    +0.000 A 
ATOM     27  N   UNL     1       2.022   7.864  19.219  0.00  0.00    +0.000 N 
ATOM     28  C   UNL     1       1.702   7.127  20.424  0.00  0.00    +0.000 C 
ATOM     29  C   UNL     1       1.577   5.627  20.166  0.00  0.00    +0.000 C 
ATOM     30  C   UNL     1       2.919   4.894  20.146  0.00  0.00    +0.000 C 
ATOM     31  C   UNL     1       4.097   5.695  19.590  0.00  0.00    +0.000 C 
ATOM     32  C   UNL     1       3.825   6.315  18.225  0.00  0.00    +0.000 C 
ENDBRANCH  22  23
ENDBRANCH   1  22
TORSDOF 5
ENDMDL
MODEL 2
REMARK VINA RESULT:      -7.2      1.798      6.555
REMARK  Name = 
REMARK  6 active torsions:
REMARK  status: ('A' for Active; 'I' for Inactive)
REMARK    1  A    between atoms: C_1  and  O_2
REMARK    2  A    between atoms: O_2  and  C_3
REMARK    3  A    between atoms: C_6  and  N_7
REMARK    4  A    between atoms: N_7  and  C_8
REMARK    5  A    between atoms: C_8  and  C_9
REMARK    6  A    between atoms: N_21  and  C_22
REMARK                            x       y       z     vdW  Elec       q    Type
REMARK                         _______ _______ _______ _____ _____    ______ ____
ROOT
ATOM      1  N   UNL     1       0.747  11.658  18.816  0.00  0.00    +0.000 N 
ATOM      2  C   UNL     1      -0.549  12.112  18.496  0.00  0.00    +0.000 C 
ATOM      3  O   UNL     1      -0.881  13.296  18.590  0.00  0.00    +0.000 OA
ATOM      4  N   UNL     1      -1.453  11.114  18.169  0.00  0.00    +0.000 N 
ATOM      5  H   UNL     1      -1.257  10.220  18.609  0.00  0.00    +0.000 HD
ENDROOT
BRANCH   1   9
ATOM      6  C   UNL     1       3.690  14.459  20.103  0.00  0.00    +0.000 A 
ATOM      7  C   UNL     1       2.818  13.850  21.011  0.00  0.00    +0.000 A 
ATOM      8  C   UNL     1       1.862  12.929  20.573  0.00  0.00    +0.000 A 
ATOM      9  C   UNL     1       1.729  12.627  19.211  0.00  0.00    +0.000 A 
ATOM     10  C   UNL     1       2.552  13.296  18.293  0.00  0.00    +0.000 A 
ATOM     11  C   UNL     1       3.522  14.201  18.735  0.00  0.00    +0.000 A 
ATOM     12 CL   UNL     1       4.528  14.975  17.556  0.00  0.00    +0.000 Cl
BRANCH   6  14
ATOM     13  C   UNL     1       4.252  16.662  20.737  0.00  0.00    +0.000 C 
ATOM     14  O   UNL     1       4.680  15.325  20.498  0.00  0.00    +0.000 OA
ENDBRANCH   6  14
ENDBRANCH   1   9
BRANCH   4  15
ATOM     15  C   UNL     1      -2.831  11.371  18.028  0.00  0.00    +0.000 A 
ATOM     16  C   UNL     1      -3.491  11.200  16.810  0.00  0.00    +0.000 A 
ATOM     17  C   UNL     1      -4.848  11.512  16.707  0.00  0.00    +0.000 A 
ATOM     18  C   UNL     1      -5.532  12.015  17.814  0.00  0.00    +0.000 A 
ATOM     19 CL   UNL     1      -7.187  12.460  17.666  0.00  0.00    +0.000 Cl
ATOM     20  C   UNL     1      -4.883  12.167  19.036  0.00  0.00    +0.000 A 
ATOM     21  C   UNL     1      -3.537  11.816  19.152  0.00  0.00    +0.000 A 
ENDBRANCH   4  15
BRANCH   1  22
ATOM     22  C   UNL     1       1.304  10.380  18.315  0.00  0.00    +0.000 C 
BRANCH  22  23
ATOM     23  C   UNL     1       1.547   9.336  19.363  0.00  0.00    +0.000 A 
ATOM     24  N   UNL     1       1.169   9.430  20.624  0.00  0.00    +0.000 NA
ATOM     25  N   UNL     1       1.241   8.198  21.201  0.00  0.00    +0.000 NA
ATOM     26  C   UNL     1       1.662   7.341  20.292  0.00  0.00    +0.000 A 
ATOM     27  N   UNL     1       1.999   8.051  19.161  0.00  0.00    +0.000 N 
ATOM     28  C   UNL     1       2.754   7.558  18.027  0.00  0.00    +0.000 C 
ATOM     29  C   UNL     1       3.876   6.612  18.451  0.00  0.00    +0.000 C 
ATOM     30  C   UNL     1       3.410   5.175  18.689  0.00  0.00    +0.000 C 
ATOM     31  C   UNL     1       1.997   5.028  19.255  0.00  0.00    +0.000 C 
ATOM     32  C   UNL     1       1.748   5.865  20.503  0.00  0.00    +0.000 C 
ENDBRANCH  22  23
ENDBRANCH   1  22
TORSDOF 5
ENDMDL
MODEL 3
REMARK VINA RESULT:      -7.2      1.829      6.705
REMARK  Name = 
REMARK  6 active torsions:
REMARK  status: ('A' for Active; 'I' for Inactive)
REMARK    1  A    between atoms: C_1  and  O_2
REMARK    2  A    between atoms: O_2  and  C_3
REMARK    3  A    between atoms: C_6  and  N_7
REMARK    4  A    between atoms: N_7  and  C_8
REMARK    5  A    between atoms: C_8  and  C_9
REMARK    6  A    between atoms: N_21  and  C_22
REMARK                            x       y       z     vdW  Elec       q    Type
REMARK                         _______ _______ _______ _____ _____    ______ ____
ROOT
ATOM      1  N   UNL     1       0.856  11.786  18.832  0.00  0.00    +0.000 N 
ATOM      2  C   UNL     1      -0.450  12.253  18.574  0.00  0.00    +0.000 C 
ATOM      3  O   UNL     1      -0.778  13.431  18.731  0.00  0.00    +0.000 OA
ATOM      4  N   UNL     1      -1.364  11.270  18.233  0.00  0.00    +0.000 N 
ATOM      5  H   UNL     1      -1.155  10.357  18.627  0.00  0.00    +0.000 HD
ENDROOT
BRANCH   1   9
ATOM      6  C   UNL     1       3.832  14.536  20.152  0.00  0.00    +0.000 A 
ATOM      7  C   UNL     1       2.924  13.960  21.047  0.00  0.00    +0.000 A 
ATOM      8  C   UNL     1       1.958  13.056  20.599  0.00  0.00    +0.000 A 
ATOM      9  C   UNL     1       1.851  12.738  19.238  0.00  0.00    +0.000 A 
ATOM     10  C   UNL     1       2.711  13.375  18.331  0.00  0.00    +0.000 A 
ATOM     11  C   UNL     1       3.691  14.263  18.785  0.00  0.00    +0.000 A 
ATOM     12 CL   UNL     1       4.742  14.998  17.620  0.00  0.00    +0.000 Cl
BRANCH   6  14
ATOM     13  C   UNL     1       5.974  14.744  21.123  0.00  0.00    +0.000 C 
ATOM     14  O   UNL     1       4.832  15.384  20.560  0.00  0.00    +0.000 OA
ENDBRANCH   6  14
ENDBRANCH   1   9
BRANCH   4  15
ATOM     15  C   UNL     1      -2.746  11.531  18.148  0.00  0.00    +0.000 A 
ATOM     16  C   UNL     1      -3.479  11.977  19.249  0.00  0.00    +0.000 A 
ATOM     17  C   UNL     1      -4.856  12.177  19.130  0.00  0.00    +0.000 A 
ATOM     18  C   UNL     1      -5.496  11.908  17.920  0.00  0.00    +0.000 A 
ATOM     19 CL   UNL     1      -7.202  12.092  17.796  0.00  0.00    +0.000 Cl
ATOM     20  C   UNL     1      -4.765  11.482  16.814  0.00  0.00    +0.000 A 
ATOM     21  C   UNL     1      -3.382  11.323  16.919  0.00  0.00    +0.000 A 
ENDBRANCH   4  15
BRANCH   1  22
ATOM     22  C   UNL     1       1.396  10.532  18.258  0.00  0.00    +0.000 C 
BRANCH  22  23
ATOM     23  C   UNL     1       1.652   9.436  19.249  0.00  0.00    +0.000 A 
ATOM     24  N   UNL     1       1.280   9.460  20.514  0.00  0.00    +0.000 NA
ATOM     25  N   UNL     1       1.365   8.200  21.025  0.00  0.00    +0.000 NA
ATOM     26  C   UNL     1       1.790   7.396  20.070  0.00  0.00    +0.000 A 
ATOM     27  N   UNL     1       2.114   8.167  18.976  0.00  0.00    +0.000 N 
ATOM     28  C   UNL     1       2.869   7.742  17.814  0.00  0.00    +0.000 C 
ATOM     29  C   UNL     1       4.001   6.785  18.183  0.00  0.00    +0.000 C 
ATOM     30  C   UNL     1       3.548   5.333  18.346  0.00  0.00    +0.000 C 
ATOM     31  C   UNL     1       2.139   5.144  18.910  0.00  0.00    +0.000 C 
ATOM     32  C   UNL     1       1.890   5.912  20.202  0.00  0.00    +0.000 C 
ENDBRANCH  22  23
ENDBRANCH   1  22
TORSDOF 5
ENDMDL
MODEL 4
REMARK VINA RESULT:      -7.1      1.898      6.680
REMARK  Name = 
REMARK  6 active torsions:
REMARK  status: ('A' for Active; 'I' for Inactive)
REMARK    1  A    between atoms: C_1  and  O_2
REMARK    2  A    between atoms: O_2  and  C_3
REMARK    3  A    between atoms: C_6  and  N_7
REMARK    4  A    between atoms: N_7  and  C_8
REMARK    5  A    between atoms: C_8  and  C_9
REMARK    6  A    between atoms: N_21  and  C_22
REMARK                            x       y       z     vdW  Elec       q    Type
REMARK                         _______ _______ _______ _____ _____    ______ ____
ROOT
ATOM      1  N   UNL     1       0.774  11.601  18.704  0.00  0.00    +0.000 N 
ATOM      2  C   UNL     1      -0.527  12.057  18.404  0.00  0.00    +0.000 C 
ATOM      3  O   UNL     1      -0.841  13.248  18.446  0.00  0.00    +0.000 OA
ATOM      4  N   UNL     1      -1.454  11.056  18.161  0.00  0.00    +0.000 N 
ATOM      5  H   UNL     1      -1.254  10.183  18.642  0.00  0.00    +0.000 HD
ENDROOT
BRANCH   1   9
ATOM      6  C   UNL     1       3.745  14.551  19.497  0.00  0.00    +0.000 A 
ATOM      7  C   UNL     1       3.644  13.938  18.244  0.00  0.00    +0.000 A 
ATOM      8  C   UNL     1       2.661  12.977  17.998  0.00  0.00    +0.000 A 
ATOM      9  C   UNL     1       1.781  12.576  19.013  0.00  0.00    +0.000 A 
ATOM     10  C   UNL     1       1.933  13.135  20.291  0.00  0.00    +0.000 A 
ATOM     11  C   UNL     1       2.904  14.112  20.528  0.00  0.00    +0.000 A 
ATOM     12 CL   UNL     1       3.026  14.786  22.120  0.00  0.00    +0.000 Cl
BRANCH   6  14
ATOM     13  C   UNL     1       6.004  15.232  19.405  0.00  0.00    +0.000 C 
ATOM     14  O   UNL     1       4.660  15.542  19.762  0.00  0.00    +0.000 OA
ENDBRANCH   6  14
ENDBRANCH   1   9
BRANCH   4  15
ATOM     15  C   UNL     1      -2.833  11.324  18.054  0.00  0.00    +0.000 A 
ATOM     16  C   UNL     1      -3.526  11.146  16.856  0.00  0.00    +0.000 A 
ATOM     17  C   UNL     1      -4.882  11.470  16.785  0.00  0.00    +0.000 A 
ATOM     18  C   UNL     1      -5.532  11.993  17.903  0.00  0.00    +0.000 A 
ATOM     19 CL   UNL     1      -7.186  12.452  17.794  0.00  0.00    +0.000 Cl
ATOM     20  C   UNL     1      -4.850  12.153  19.106  0.00  0.00    +0.000 A 
ATOM     21  C   UNL     1      -3.504  11.790  19.190  0.00  0.00    +0.000 A 
ENDBRANCH   4  15
BRANCH   1  22
ATOM     22  C   UNL     1       1.297  10.291  18.253  0.00  0.00    +0.000 C 
BRANCH  22  23
ATOM     23  C   UNL     1       1.535   9.290  19.344  0.00  0.00    +0.000 A 
ATOM     24  N   UNL     1       1.166   9.442  20.601  0.00  0.00    +0.000 NA
ATOM     25  N   UNL     1       1.227   8.236  21.231  0.00  0.00    +0.000 NA
ATOM     26  C   UNL     1       1.634   7.336  20.358  0.00  0.00    +0.000 A 
ATOM     27  N   UNL     1       1.971   7.992  19.194  0.00  0.00    +0.000 N 
ATOM     28  C   UNL     1       2.715   7.443  18.079  0.00  0.00    +0.000 C 
ATOM     29  C   UNL     1       3.829   6.503  18.537  0.00  0.00    +0.000 C 
ATOM     30  C   UNL     1       3.348   5.083  18.839  0.00  0.00    +0.000 C 
ATOM     31  C   UNL     1       1.937   4.977  19.419  0.00  0.00    +0.000 C 
ATOM     32  C   UNL     1       1.705   5.870  20.631  0.00  0.00    +0.000 C 
ENDBRANCH  22  23
ENDBRANCH   1  22
TORSDOF 5
ENDMDL
MODEL 5
REMARK VINA RESULT:      -7.1      2.937      6.757
REMARK  Name = 
REMARK  6 active torsions:
REMARK  status: ('A' for Active; 'I' for Inactive)
REMARK    1  A    between atoms: C_1  and  O_2
REMARK    2  A    between atoms: O_2  and  C_3
REMARK    3  A    between atoms: C_6  and  N_7
REMARK    4  A    between atoms: N_7  and  C_8
REMARK    5  A    between atoms: C_8  and  C_9
REMARK    6  A    between atoms: N_21  and  C_22
REMARK                            x       y       z     vdW  Elec       q    Type
REMARK                         _______ _______ _______ _____ _____    ______ ____
ROOT
ATOM      1  N   UNL     1       0.407  12.116  20.074  0.00  0.00    +0.000 N 
ATOM      2  C   UNL     1      -0.716  12.753  20.641  0.00  0.00    +0.000 C 
ATOM      3  O   UNL     1      -0.727  13.952  20.928  0.00  0.00    +0.000 OA
ATOM      4  N   UNL     1      -1.771  11.909  20.950  0.00  0.00    +0.000 N 
ATOM      5  H   UNL     1      -1.489  10.957  21.165  0.00  0.00    +0.000 HD
ENDROOT
BRANCH   1   9
ATOM      6  C   UNL     1       3.756  14.552  19.070  0.00  0.00    +0.000 A 
ATOM      7  C   UNL     1       2.926  14.013  18.083  0.00  0.00    +0.000 A 
ATOM      8  C   UNL     1       1.829  13.221  18.429  0.00  0.00    +0.000 A 
ATOM      9  C   UNL     1       1.560  12.916  19.770  0.00  0.00    +0.000 A 
ATOM     10  C   UNL     1       2.438  13.392  20.755  0.00  0.00    +0.000 A 
ATOM     11  C   UNL     1       3.523  14.203  20.407  0.00  0.00    +0.000 A 
ATOM     12 CL   UNL     1       4.556  14.785  21.670  0.00  0.00    +0.000 Cl
BRANCH   6  14
ATOM     13  C   UNL     1       5.773  14.839  17.877  0.00  0.00    +0.000 C 
ATOM     14  O   UNL     1       4.811  15.382  18.775  0.00  0.00    +0.000 OA
ENDBRANCH   6  14
ENDBRANCH   1   9
BRANCH   4  15
ATOM     15  C   UNL     1      -2.878  12.342  21.707  0.00  0.00    +0.000 A 
ATOM     16  C   UNL     1      -2.870  12.313  23.103  0.00  0.00    +0.000 A 
ATOM     17  C   UNL     1      -4.007  12.707  23.811  0.00  0.00    +0.000 A 
ATOM     18  C   UNL     1      -5.153  13.104  23.121  0.00  0.00    +0.000 A 
ATOM     19 CL   UNL     1      -6.574  13.526  23.994  0.00  0.00    +0.000 Cl
ATOM     20  C   UNL     1      -5.158  13.154  21.729  0.00  0.00    +0.000 A 
ATOM     21  C   UNL     1      -4.007  12.801  21.021  0.00  0.00    +0.000 A 
ENDBRANCH   4  15
BRANCH   1  22
ATOM     22  C   UNL     1       0.324  10.839  19.329  0.00  0.00    +0.000 C 
BRANCH  22  23
ATOM     23  C   UNL     1       1.042   9.684  19.961  0.00  0.00    +0.000 A 
ATOM     24  N   UNL     1       1.055   9.419  21.253  0.00  0.00    +0.000 NA
ATOM     25  N   UNL     1       1.500   8.146  21.441  0.00  0.00    +0.000 NA
ATOM     26  C   UNL     1       1.760   7.622  20.259  0.00  0.00    +0.000 A 
ATOM     27  N   UNL     1       1.615   8.613  19.313  0.00  0.00    +0.000 N 
ATOM     28  C   UNL     1       2.061   8.560  17.935  0.00  0.00    +0.000 C 
ATOM     29  C   UNL     1       3.398   7.837  17.791  0.00  0.00    +0.000 C 
ATOM     30  C   UNL     1       3.269   6.314  17.744  0.00  0.00    +0.000 C 
ATOM     31  C   UNL     1       2.139   5.724  18.589  0.00  0.00    +0.000 C 
ATOM     32  C   UNL     1       2.148   6.198  20.037  0.00  0.00    +0.000 C 
ENDBRANCH  22  23
ENDBRANCH   1  22
TORSDOF 5
ENDMDL
MODEL 6
REMARK VINA RESULT:      -7.1      3.315      7.681
REMARK  Name = 
REMARK  6 active torsions:
REMARK  status: ('A' for Active; 'I' for Inactive)
REMARK    1  A    between atoms: C_1  and  O_2
REMARK    2  A    between atoms: O_2  and  C_3
REMARK    3  A    between atoms: C_6  and  N_7
REMARK    4  A    between atoms: N_7  and  C_8
REMARK    5  A    between atoms: C_8  and  C_9
REMARK    6  A    between atoms: N_21  and  C_22
REMARK                            x       y       z     vdW  Elec       q    Type
REMARK                         _______ _______ _______ _____ _____    ______ ____
ROOT
ATOM      1  N   UNL     1      -0.526  12.810  19.779  0.00  0.00    +0.000 N 
ATOM      2  C   UNL     1       0.513  11.861  19.682  0.00  0.00    +0.000 C 
ATOM      3  O   UNL     1       1.702  12.182  19.611  0.00  0.00    +0.000 OA
ATOM      4  N   UNL     1       0.094  10.546  19.567  0.00  0.00    +0.000 N 
ATOM      5  H   UNL     1      -0.815  10.440  19.125  0.00  0.00    +0.000 HD
ENDROOT
BRANCH   1   9
ATOM      6  C   UNL     1       0.634  16.900  20.074  0.00  0.00    +0.000 A 
ATOM      7  C   UNL     1       0.774  16.024  21.155  0.00  0.00    +0.000 A 
ATOM      8  C   UNL     1       0.394  14.684  21.040  0.00  0.00    +0.000 A 
ATOM      9  C   UNL     1      -0.173  14.200  19.854  0.00  0.00    +0.000 A 
ATOM     10  C   UNL     1      -0.384  15.097  18.796  0.00  0.00    +0.000 A 
ATOM     11  C   UNL     1       0.017  16.432  18.907  0.00  0.00    +0.000 A 
ATOM     12 CL   UNL     1      -0.245  17.487  17.557  0.00  0.00    +0.000 Cl
BRANCH   6  14
ATOM     13  C   UNL     1       1.899  18.528  21.225  0.00  0.00    +0.000 C 
ATOM     14  O   UNL     1       1.049  18.209  20.128  0.00  0.00    +0.000 OA
ENDBRANCH   6  14
ENDBRANCH   1   9
BRANCH   4  15
ATOM     15  C   UNL     1       0.985   9.501  19.253  0.00  0.00    +0.000 A 
ATOM     16  C   UNL     1       1.545   9.370  17.982  0.00  0.00    +0.000 A 
ATOM     17  C   UNL     1       2.387   8.291  17.703  0.00  0.00    +0.000 A 
ATOM     18  C   UNL     1       2.645   7.338  18.688  0.00  0.00    +0.000 A 
ATOM     19 CL   UNL     1       3.630   5.975  18.323  0.00  0.00    +0.000 Cl
ATOM     20  C   UNL     1       2.105   7.477  19.965  0.00  0.00    +0.000 A 
ATOM     21  C   UNL     1       1.297   8.578  20.257  0.00  0.00    +0.000 A 
ENDBRANCH   4  15
BRANCH   1  22
ATOM     22  C   UNL     1      -1.875  12.484  20.296  0.00  0.00    +0.000 C 
BRANCH  22  23
ATOM     23  C   UNL     1      -2.909  12.204  19.247  0.00  0.00    +0.000 A 
ATOM     24  N   UNL     1      -2.657  11.708  18.051  0.00  0.00    +0.000 NA
ATOM     25  N   UNL     1      -3.821  11.271  17.498  0.00  0.00    +0.000 NA
ATOM     26  C   UNL     1      -4.796  11.496  18.356  0.00  0.00    +0.000 A 
ATOM     27  N   UNL     1      -4.277  12.211  19.413  0.00  0.00    +0.000 N 
ATOM     28  C   UNL     1      -5.030  12.902  20.439  0.00  0.00    +0.000 C 
ATOM     29  C   UNL     1      -6.291  13.560  19.882  0.00  0.00    +0.000 C 
ATOM     30  C   UNL     1      -7.474  12.600  19.744  0.00  0.00    +0.000 C 
ATOM     31  C   UNL     1      -7.112  11.158  19.387  0.00  0.00    +0.000 C 
ATOM     32  C   UNL     1      -6.205  11.039  18.169  0.00  0.00    +0.000 C 
ENDBRANCH  22  23
ENDBRANCH   1  22
TORSDOF 5
ENDMDL
MODEL 7
REMARK VINA RESULT:      -7.0      3.260      7.075
REMARK  Name = 
REMARK  6 active torsions:
REMARK  status: ('A' for Active; 'I' for Inactive)
REMARK    1  A    between atoms: C_1  and  O_2
REMARK    2  A    between atoms: O_2  and  C_3
REMARK    3  A    between atoms: C_6  and  N_7
REMARK    4  A    between atoms: N_7  and  C_8
REMARK    5  A    between atoms: C_8  and  C_9
REMARK    6  A    between atoms: N_21  and  C_22
REMARK                            x       y       z     vdW  Elec       q    Type
REMARK                         _______ _______ _______ _____ _____    ______ ____
ROOT
ATOM      1  N   UNL     1      -0.021  11.595  20.308  0.00  0.00    +0.000 N 
ATOM      2  C   UNL     1       0.173  10.226  20.028  0.00  0.00    +0.000 C 
ATOM      3  O   UNL     1      -0.593   9.349  20.434  0.00  0.00    +0.000 OA
ATOM      4  N   UNL     1       1.345   9.929  19.351  0.00  0.00    +0.000 N 
ATOM      5  H   UNL     1       2.100  10.586  19.527  0.00  0.00    +0.000 HD
ENDROOT
BRANCH   1   9
ATOM      6  C   UNL     1      -3.407  12.792  22.602  0.00  0.00    +0.000 A 
ATOM      7  C   UNL     1      -2.254  12.290  23.214  0.00  0.00    +0.000 A 
ATOM      8  C   UNL     1      -1.150  11.908  22.448  0.00  0.00    +0.000 A 
ATOM      9  C   UNL     1      -1.190  11.979  21.049  0.00  0.00    +0.000 A 
ATOM     10  C   UNL     1      -2.374  12.409  20.432  0.00  0.00    +0.000 A 
ATOM     11  C   UNL     1      -3.470  12.811  21.202  0.00  0.00    +0.000 A 
ATOM     12 CL   UNL     1      -4.896  13.359  20.385  0.00  0.00    +0.000 Cl
BRANCH   6  14
ATOM     13  C   UNL     1      -4.735  12.530  24.536  0.00  0.00    +0.000 C 
ATOM     14  O   UNL     1      -4.492  13.232  23.321  0.00  0.00    +0.000 OA
ENDBRANCH   6  14
ENDBRANCH   1   9
BRANCH   4  15
ATOM     15  C   UNL     1       1.793   8.605  19.178  0.00  0.00    +0.000 A 
ATOM     16  C   UNL     1       2.179   8.117  17.929  0.00  0.00    +0.000 A 
ATOM     17  C   UNL     1       2.571   6.783  17.796  0.00  0.00    +0.000 A 
ATOM     18  C   UNL     1       2.553   5.939  18.907  0.00  0.00    +0.000 A 
ATOM     19 CL   UNL     1       2.974   4.281  18.729  0.00  0.00    +0.000 Cl
ATOM     20  C   UNL     1       2.188   6.428  20.160  0.00  0.00    +0.000 A 
ATOM     21  C   UNL     1       1.836   7.772  20.301  0.00  0.00    +0.000 A 
ENDBRANCH   4  15
BRANCH   1  22
ATOM     22  C   UNL     1       0.589  12.680  19.505  0.00  0.00    +0.000 C 
BRANCH  22  23
ATOM     23  C   UNL     1       1.706  13.420  20.178  0.00  0.00    +0.000 A 
ATOM     24  N   UNL     1       2.144  13.179  21.399  0.00  0.00    +0.000 NA
ATOM     25  N   UNL     1       3.354  13.781  21.563  0.00  0.00    +0.000 NA
ATOM     26  C   UNL     1       3.666  14.394  20.438  0.00  0.00    +0.000 A 
ATOM     27  N   UNL     1       2.584  14.303  19.590  0.00  0.00    +0.000 N 
ATOM     28  C   UNL     1       2.380  15.058  18.370  0.00  0.00    +0.000 C 
ATOM     29  C   UNL     1       2.879  16.496  18.492  0.00  0.00    +0.000 C 
ATOM     30  C   UNL     1       4.383  16.645  18.262  0.00  0.00    +0.000 C 
ATOM     31  C   UNL     1       5.240  15.469  18.734  0.00  0.00    +0.000 C 
ATOM     32  C   UNL     1       4.976  15.061  20.177  0.00  0.00    +0.000 C 
ENDBRANCH  22  23
ENDBRANCH   1  22
TORSDOF 5
ENDMDL
MODEL 8
REMARK VINA RESULT:      -7.0      1.740      6.559
REMARK  Name = 
REMARK  6 active torsions:
REMARK  status: ('A' for Active; 'I' for Inactive)
REMARK    1  A    between atoms: C_1  and  O_2
REMARK    2  A    between atoms: O_2  and  C_3
REMARK    3  A    between atoms: C_6  and  N_7
REMARK    4  A    between atoms: N_7  and  C_8
REMARK    5  A    between atoms: C_8  and  C_9
REMARK    6  A    between atoms: N_21  and  C_22
REMARK                            x       y       z     vdW  Elec       q    Type
REMARK                         _______ _______ _______ _____ _____    ______ ____
ROOT
ATOM      1  N   UNL     1       0.630  12.014  19.864  0.00  0.00    +0.000 N 
ATOM      2  C   UNL     1      -0.539  12.256  19.112  0.00  0.00    +0.000 C 
ATOM      3  O   UNL     1      -0.666  13.238  18.377  0.00  0.00    +0.000 OA
ATOM      4  N   UNL     1      -1.575  11.365  19.341  0.00  0.00    +0.000 N 
ATOM      5  H   UNL     1      -1.573  10.960  20.273  0.00  0.00    +0.000 HD
ENDROOT
BRANCH   1   9
ATOM      6  C   UNL     1       3.859  14.737  19.301  0.00  0.00    +0.000 A 
ATOM      7  C   UNL     1       3.441  13.881  18.277  0.00  0.00    +0.000 A 
ATOM      8  C   UNL     1       2.377  12.999  18.476  0.00  0.00    +0.000 A 
ATOM      9  C   UNL     1       1.732  12.921  19.718  0.00  0.00    +0.000 A 
ATOM     10  C   UNL     1       2.202  13.724  20.768  0.00  0.00    +0.000 A 
ATOM     11  C   UNL     1       3.253  14.622  20.560  0.00  0.00    +0.000 A 
ATOM     12 CL   UNL     1       3.772  15.608  21.888  0.00  0.00    +0.000 Cl
BRANCH   6  14
ATOM     13  C   UNL     1       6.179  15.118  19.091  0.00  0.00    +0.000 C 
ATOM     14  O   UNL     1       4.862  15.659  19.129  0.00  0.00    +0.000 OA
ENDBRANCH   6  14
ENDBRANCH   1   9
BRANCH   4  15
ATOM     15  C   UNL     1      -2.873  11.581  18.836  0.00  0.00    +0.000 A 
ATOM     16  C   UNL     1      -3.256  11.125  17.574  0.00  0.00    +0.000 A 
ATOM     17  C   UNL     1      -4.538  11.404  17.096  0.00  0.00    +0.000 A 
ATOM     18  C   UNL     1      -5.421  12.157  17.871  0.00  0.00    +0.000 A 
ATOM     19 CL   UNL     1      -6.976  12.556  17.253  0.00  0.00    +0.000 Cl
ATOM     20  C   UNL     1      -5.049  12.597  19.140  0.00  0.00    +0.000 A 
ATOM     21  C   UNL     1      -3.782  12.282  19.636  0.00  0.00    +0.000 A 
ENDBRANCH   4  15
BRANCH   1  22
ATOM     22  C   UNL     1       0.992  10.677  20.390  0.00  0.00    +0.000 C 
BRANCH  22  23
ATOM     23  C   UNL     1       1.261   9.633  19.347  0.00  0.00    +0.000 A 
ATOM     24  N   UNL     1       1.256   9.847  18.046  0.00  0.00    +0.000 NA
ATOM     25  N   UNL     1       1.859   8.798  17.422  0.00  0.00    +0.000 NA
ATOM     26  C   UNL     1       2.239   7.934  18.342  0.00  0.00    +0.000 A 
ATOM     27  N   UNL     1       1.752   8.364  19.557  0.00  0.00    +0.000 N 
ATOM     28  C   UNL     1       1.693   7.594  20.783  0.00  0.00    +0.000 C 
ATOM     29  C   UNL     1       1.348   6.129  20.526  0.00  0.00    +0.000 C 
ATOM     30  C   UNL     1       2.551   5.277  20.120  0.00  0.00    +0.000 C 
ATOM     31  C   UNL     1       3.613   5.995  19.286  0.00  0.00    +0.000 C 
ATOM     32  C   UNL     1       3.050   6.711  18.065  0.00  0.00    +0.000 C 
ENDBRANCH  22  23
ENDBRANCH   1  22
TORSDOF 5
ENDMDL
MODEL 9
REMARK VINA RESULT:      -7.0      1.429      1.679
REMARK  Name = 
REMARK  6 active torsions:
REMARK  status: ('A' for Active; 'I' for Inactive)
REMARK    1  A    between atoms: C_1  and  O_2
REMARK    2  A    between atoms: O_2  and  C_3
REMARK    3  A    between atoms: C_6  and  N_7
REMARK    4  A    between atoms: N_7  and  C_8
REMARK    5  A    between atoms: C_8  and  C_9
REMARK    6  A    between atoms: N_21  and  C_22
REMARK                            x       y       z     vdW  Elec       q    Type
REMARK                         _______ _______ _______ _____ _____    ______ ____
ROOT
ATOM      1  N   UNL     1       0.205  11.818  19.384  0.00  0.00    +0.000 N 
ATOM      2  C   UNL     1       0.935  13.025  19.387  0.00  0.00    +0.000 C 
ATOM      3  O   UNL     1       0.408  14.121  19.183  0.00  0.00    +0.000 OA
ATOM      4  N   UNL     1       2.305  12.878  19.530  0.00  0.00    +0.000 N 
ATOM      5  H   UNL     1       2.665  11.997  19.174  0.00  0.00    +0.000 HD
ENDROOT
BRANCH   1   9
ATOM      6  C   UNL     1      -4.006  11.895  18.737  0.00  0.00    +0.000 A 
ATOM      7  C   UNL     1      -3.117  11.566  17.709  0.00  0.00    +0.000 A 
ATOM      8  C   UNL     1      -1.740  11.540  17.939  0.00  0.00    +0.000 A 
ATOM      9  C   UNL     1      -1.216  11.883  19.193  0.00  0.00    +0.000 A 
ATOM     10  C   UNL     1      -2.102  12.287  20.202  0.00  0.00    +0.000 A 
ATOM     11  C   UNL     1      -3.482  12.292  19.975  0.00  0.00    +0.000 A 
ATOM     12 CL   UNL     1      -4.530  12.775  21.268  0.00  0.00    +0.000 Cl
BRANCH   6  14
ATOM     13  C   UNL     1      -5.973  10.592  18.678  0.00  0.00    +0.000 C 
ATOM     14  O   UNL     1      -5.369  11.877  18.568  0.00  0.00    +0.000 OA
ENDBRANCH   6  14
ENDBRANCH   1   9
BRANCH   4  15
ATOM     15  C   UNL     1       3.196  13.954  19.345  0.00  0.00    +0.000 A 
ATOM     16  C   UNL     1       3.594  14.369  18.073  0.00  0.00    +0.000 A 
ATOM     17  C   UNL     1       4.515  15.409  17.940  0.00  0.00    +0.000 A 
ATOM     18  C   UNL     1       5.052  16.013  19.078  0.00  0.00    +0.000 A 
ATOM     19 CL   UNL     1       6.236  17.250  18.912  0.00  0.00    +0.000 Cl
ATOM     20  C   UNL     1       4.642  15.616  20.348  0.00  0.00    +0.000 A 
ATOM     21  C   UNL     1       3.689  14.604  20.482  0.00  0.00    +0.000 A 
ENDBRANCH   4  15
BRANCH   1  22
ATOM     22  C   UNL     1       0.687  10.579  20.038  0.00  0.00    +0.000 C 
BRANCH  22  23
ATOM     23  C   UNL     1       1.167   9.510  19.103  0.00  0.00    +0.000 A 
ATOM     24  N   UNL     1       1.337   9.664  17.804  0.00  0.00    +0.000 NA
ATOM     25  N   UNL     1       2.088   8.631  17.329  0.00  0.00    +0.000 NA
ATOM     26  C   UNL     1       2.383   7.838  18.340  0.00  0.00    +0.000 A 
ATOM     27  N   UNL     1       1.701   8.288  19.449  0.00  0.00    +0.000 N 
ATOM     28  C   UNL     1       1.513   7.572  20.694  0.00  0.00    +0.000 C 
ATOM     29  C   UNL     1       1.299   6.077  20.472  0.00  0.00    +0.000 C 
ATOM     30  C   UNL     1       2.598   5.292  20.286  0.00  0.00    +0.000 C 
ATOM     31  C   UNL     1       3.723   6.043  19.573  0.00  0.00    +0.000 C 
ATOM     32  C   UNL     1       3.300   6.663  18.248  0.00  0.00    +0.000 C 
ENDBRANCH  22  23
ENDBRANCH   1  22
TORSDOF 5
ENDMDL
