MODEL 1
REMARK VINA RESULT:      -7.9      0.000      0.000
REMARK  Name = 
REMARK  9 active torsions:
REMARK  status: ('A' for Active; 'I' for Inactive)
REMARK    1  A    between atoms: C_1  and  O_2
REMARK    2  A    between atoms: O_2  and  C_3
REMARK    3  A    between atoms: C_8  and  N_9
REMARK    4  A    between atoms: N_12  and  C_13
REMARK    5  A    between atoms: C_13  and  C_14
REMARK    6  A    between atoms: C_14  and  C_15
REMARK    7  A    between atoms: C_15  and  C_16
REMARK    8  A    between atoms: C_16  and  C_17
REMARK    9  A    between atoms: C_19  and  C_20
REMARK                            x       y       z     vdW  Elec       q    Type
REMARK                         _______ _______ _______ _____ _____    ______ ____
ROOT
ATOM      1  C   UNL     1       7.339   6.482  17.122  0.00  0.00    +0.000 C 
ENDROOT
BRANCH   1   5
ATOM      2  N   UNL     1       4.412   4.540  18.047  0.00  0.00    +0.000 N 
ATOM      3  C   UNL     1       5.139   5.430  18.957  0.00  0.00    +0.000 C 
ATOM      4  C   UNL     1       6.626   5.024  18.965  0.00  0.00    +0.000 C 
ATOM      5  N   UNL     1       7.266   5.100  17.622  0.00  0.00    +0.000 NA
ATOM      6  C   UNL     1       6.484   4.232  16.706  0.00  0.00    +0.000 C 
ATOM      7  C   UNL     1       4.952   4.483  16.677  0.00  0.00    +0.000 C 
BRANCH   2  13
ATOM      8  C   UNL     1       3.105   2.988  19.472  0.00  0.00    +0.000 A 
ATOM      9  C   UNL     1       1.873   2.384  19.765  0.00  0.00    +0.000 A 
ATOM     10  C   UNL     1       0.733   2.698  19.032  0.00  0.00    +0.000 A 
ATOM     11  C   UNL     1       0.818   3.610  17.994  0.00  0.00    +0.000 A 
ATOM     12  C   UNL     1       2.043   4.211  17.692  0.00  0.00    +0.000 A 
ATOM     13  C   UNL     1       3.223   3.924  18.409  0.00  0.00    +0.000 A 
BRANCH   8  15
ATOM     14  C   UNL     1       4.848   1.386  19.656  0.00  0.00    +0.000 C 
ATOM     15  O   UNL     1       4.251   2.590  20.131  0.00  0.00    +0.000 OA
ENDBRANCH   8  15
ENDBRANCH   2  13
ENDBRANCH   1   5
BRANCH   1  16
ATOM     16  C   UNL     1       7.766   7.478  18.214  0.00  0.00    +0.000 C 
BRANCH  16  17
ATOM     17  C   UNL     1       8.214   8.834  17.657  0.00  0.00    +0.000 C 
BRANCH  17  18
ATOM     18  C   UNL     1       8.899   9.660  18.743  0.00  0.00    +0.000 C 
BRANCH  18  19
ATOM     19  C   UNL     1       9.365  10.961  18.241  0.00  0.00    +0.000 A 
ATOM     20  C   UNL     1       8.856  12.228  18.322  0.00  0.00    +0.000 A 
ATOM     21  C   UNL     1       9.864  13.053  17.763  0.00  0.00    +0.000 A 
ATOM     22  N   UNL     1      10.881  12.302  17.307  0.00  0.00    +0.000 NA
ATOM     23  O   UNL     1      10.566  10.994  17.618  0.00  0.00    +0.000 OA
BRANCH  21  24
ATOM     24  C   UNL     1       9.877  14.508  17.691  0.00  0.00    +0.000 A 
ATOM     25  C   UNL     1      11.022  15.185  17.237  0.00  0.00    +0.000 A 
ATOM     26  C   UNL     1      11.028  16.577  17.157  0.00  0.00    +0.000 A 
ATOM     27  C   UNL     1       9.893  17.287  17.533  0.00  0.00    +0.000 A 
ATOM     28  F   UNL     1       9.900  18.622  17.451  0.00  0.00    +0.000 F 
ATOM     29  C   UNL     1       8.752  16.636  17.982  0.00  0.00    +0.000 A 
ATOM     30  C   UNL     1       8.742  15.241  18.060  0.00  0.00    +0.000 A 
ENDBRANCH  21  24
ENDBRANCH  18  19
ENDBRANCH  17  18
ENDBRANCH  16  17
ENDBRANCH   1  16
TORSDOF 8
ENDMDL
MODEL 2
REMARK VINA RESULT:      -7.8      0.910      1.262
REMARK  Name = 
REMARK  9 active torsions:
REMARK  status: ('A' for Active; 'I' for Inactive)
REMARK    1  A    between atoms: C_1  and  O_2
REMARK    2  A    between atoms: O_2  and  C_3
REMARK    3  A    between atoms: C_8  and  N_9
REMARK    4  A    between atoms: N_12  and  C_13
REMARK    5  A    between atoms: C_13  and  C_14
REMARK    6  A    between atoms: C_14  and  C_15
REMARK    7  A    between atoms: C_15  and  C_16
REMARK    8  A    between atoms: C_16  and  C_17
REMARK    9  A    between atoms: C_19  and  C_20
REMARK                            x       y       z     vdW  Elec       q    Type
REMARK                         _______ _______ _______ _____ _____    ______ ____
ROOT
ATOM      1  C   UNL     1       7.220   6.349  16.805  0.00  0.00    +0.000 C 
ENDROOT
BRANCH   1   5
ATOM      2  N   UNL     1       4.466   4.752  18.554  0.00  0.00    +0.000 N 
ATOM      3  C   UNL     1       5.570   5.457  19.212  0.00  0.00    +0.000 C 
ATOM      4  C   UNL     1       6.903   4.853  18.726  0.00  0.00    +0.000 C 
ATOM      5  N   UNL     1       7.094   4.953  17.253  0.00  0.00    +0.000 NA
ATOM      6  C   UNL     1       5.939   4.279  16.607  0.00  0.00    +0.000 C 
ATOM      7  C   UNL     1       4.534   4.737  17.082  0.00  0.00    +0.000 C 
BRANCH   2  13
ATOM      8  C   UNL     1       3.289   2.971  19.814  0.00  0.00    +0.000 A 
ATOM      9  C   UNL     1       2.136   2.548  20.493  0.00  0.00    +0.000 A 
ATOM     10  C   UNL     1       1.048   3.401  20.649  0.00  0.00    +0.000 A 
ATOM     11  C   UNL     1       1.101   4.680  20.120  0.00  0.00    +0.000 A 
ATOM     12  C   UNL     1       2.244   5.106  19.438  0.00  0.00    +0.000 A 
ATOM     13  C   UNL     1       3.370   4.276  19.258  0.00  0.00    +0.000 A 
BRANCH   8  15
ATOM     14  C   UNL     1       5.039   1.645  20.719  0.00  0.00    +0.000 C 
ATOM     15  O   UNL     1       4.319   2.084  19.569  0.00  0.00    +0.000 OA
ENDBRANCH   8  15
ENDBRANCH   2  13
ENDBRANCH   1   5
BRANCH   1  16
ATOM     16  C   UNL     1       7.369   7.330  17.981  0.00  0.00    +0.000 C 
BRANCH  16  17
ATOM     17  C   UNL     1       8.049   8.647  17.591  0.00  0.00    +0.000 C 
BRANCH  17  18
ATOM     18  C   UNL     1       8.641   9.329  18.821  0.00  0.00    +0.000 C 
BRANCH  18  19
ATOM     19  C   UNL     1       9.313  10.594  18.487  0.00  0.00    +0.000 A 
ATOM     20  C   UNL     1       8.858  11.795  18.018  0.00  0.00    +0.000 A 
ATOM     21  C   UNL     1       9.994  12.643  18.052  0.00  0.00    +0.000 A 
ATOM     22  N   UNL     1      11.078  11.954  18.448  0.00  0.00    +0.000 NA
ATOM     23  O   UNL     1      10.642  10.674  18.728  0.00  0.00    +0.000 OA
BRANCH  21  24
ATOM     24  C   UNL     1      10.044  14.067  17.748  0.00  0.00    +0.000 A 
ATOM     25  C   UNL     1       9.032  14.927  18.208  0.00  0.00    +0.000 A 
ATOM     26  C   UNL     1       9.089  16.291  17.926  0.00  0.00    +0.000 A 
ATOM     27  C   UNL     1      10.152  16.791  17.183  0.00  0.00    +0.000 A 
ATOM     28  F   UNL     1      10.207  18.100  16.916  0.00  0.00    +0.000 F 
ATOM     29  C   UNL     1      11.163  15.958  16.720  0.00  0.00    +0.000 A 
ATOM     30  C   UNL     1      11.110  14.590  17.005  0.00  0.00    +0.000 A 
ENDBRANCH  21  24
ENDBRANCH  18  19
ENDBRANCH  17  18
ENDBRANCH  16  17
ENDBRANCH   1  16
TORSDOF 8
ENDMDL
MODEL 3
REMARK VINA RESULT:      -7.8      3.862      4.495
REMARK  Name = 
REMARK  9 active torsions:
REMARK  status: ('A' for Active; 'I' for Inactive)
REMARK    1  A    between atoms: C_1  and  O_2
REMARK    2  A    between atoms: O_2  and  C_3
REMARK    3  A    between atoms: C_8  and  N_9
REMARK    4  A    between atoms: N_12  and  C_13
REMARK    5  A    between atoms: C_13  and  C_14
REMARK    6  A    between atoms: C_14  and  C_15
REMARK    7  A    between atoms: C_15  and  C_16
REMARK    8  A    between atoms: C_16  and  C_17
REMARK    9  A    between atoms: C_19  and  C_20
REMARK                            x       y       z     vdW  Elec       q    Type
REMARK                         _______ _______ _______ _____ _____    ______ ____
ROOT
ATOM      1  C   UNL     1       7.330   7.881  17.644  0.00  0.00    +0.000 C 
ENDROOT
BRANCH   1   5
ATOM      2  N   UNL     1       4.894   5.190  17.787  0.00  0.00    +0.000 N 
ATOM      3  C   UNL     1       5.647   5.691  18.942  0.00  0.00    +0.000 C 
ATOM      4  C   UNL     1       7.153   5.632  18.614  0.00  0.00    +0.000 C 
ATOM      5  N   UNL     1       7.529   6.441  17.421  0.00  0.00    +0.000 NA
ATOM      6  C   UNL     1       6.718   5.952  16.278  0.00  0.00    +0.000 C 
ATOM      7  C   UNL     1       5.186   5.875  16.516  0.00  0.00    +0.000 C 
BRANCH   2  13
ATOM      8  C   UNL     1       2.534   4.579  18.239  0.00  0.00    +0.000 A 
ATOM      9  C   UNL     1       1.565   3.574  18.380  0.00  0.00    +0.000 A 
ATOM     10  C   UNL     1       1.894   2.235  18.197  0.00  0.00    +0.000 A 
ATOM     11  C   UNL     1       3.197   1.890  17.879  0.00  0.00    +0.000 A 
ATOM     12  C   UNL     1       4.169   2.884  17.742  0.00  0.00    +0.000 A 
ATOM     13  C   UNL     1       3.880   4.254  17.917  0.00  0.00    +0.000 A 
BRANCH   8  15
ATOM     14  C   UNL     1       2.242   6.237  19.913  0.00  0.00    +0.000 C 
ATOM     15  O   UNL     1       2.225   5.893  18.529  0.00  0.00    +0.000 OA
ENDBRANCH   8  15
ENDBRANCH   2  13
ENDBRANCH   1   5
BRANCH   1  16
ATOM     16  C   UNL     1       8.535   8.539  18.338  0.00  0.00    +0.000 C 
BRANCH  16  17
ATOM     17  C   UNL     1       8.727  10.011  17.955  0.00  0.00    +0.000 C 
BRANCH  17  18
ATOM     18  C   UNL     1       9.863  10.631  18.764  0.00  0.00    +0.000 C 
BRANCH  18  19
ATOM     19  C   UNL     1       9.368  11.505  19.839  0.00  0.00    +0.000 A 
ATOM     20  C   UNL     1       9.259  11.345  21.193  0.00  0.00    +0.000 A 
ATOM     21  C   UNL     1       8.846  12.615  21.669  0.00  0.00    +0.000 A 
ATOM     22  N   UNL     1       8.649  13.456  20.639  0.00  0.00    +0.000 NA
ATOM     23  O   UNL     1       8.987  12.757  19.497  0.00  0.00    +0.000 OA
BRANCH  21  24
ATOM     24  C   UNL     1       8.673  13.027  23.056  0.00  0.00    +0.000 A 
ATOM     25  C   UNL     1       8.378  12.074  24.047  0.00  0.00    +0.000 A 
ATOM     26  C   UNL     1       8.225  12.470  25.375  0.00  0.00    +0.000 A 
ATOM     27  C   UNL     1       8.361  13.812  25.708  0.00  0.00    +0.000 A 
ATOM     28  F   UNL     1       8.217  14.188  26.983  0.00  0.00    +0.000 F 
ATOM     29  C   UNL     1       8.653  14.768  24.744  0.00  0.00    +0.000 A 
ATOM     30  C   UNL     1       8.811  14.374  23.411  0.00  0.00    +0.000 A 
ENDBRANCH  21  24
ENDBRANCH  18  19
ENDBRANCH  17  18
ENDBRANCH  16  17
ENDBRANCH   1  16
TORSDOF 8
ENDMDL
MODEL 4
REMARK VINA RESULT:      -7.7      4.086     12.196
REMARK  Name = 
REMARK  9 active torsions:
REMARK  status: ('A' for Active; 'I' for Inactive)
REMARK    1  A    between atoms: C_1  and  O_2
REMARK    2  A    between atoms: O_2  and  C_3
REMARK    3  A    between atoms: C_8  and  N_9
REMARK    4  A    between atoms: N_12  and  C_13
REMARK    5  A    between atoms: C_13  and  C_14
REMARK    6  A    between atoms: C_14  and  C_15
REMARK    7  A    between atoms: C_15  and  C_16
REMARK    8  A    between atoms: C_16  and  C_17
REMARK    9  A    between atoms: C_19  and  C_20
REMARK                            x       y       z     vdW  Elec       q    Type
REMARK                         _______ _______ _______ _____ _____    ______ ____
ROOT
ATOM      1  C   UNL     1       9.047  10.679  18.713  0.00  0.00    +0.000 C 
ENDROOT
BRANCH   1   5
ATOM      2  N   UNL     1      10.347  14.013  19.333  0.00  0.00    +0.000 N 
ATOM      3  C   UNL     1      10.810  13.128  18.260  0.00  0.00    +0.000 C 
ATOM      4  C   UNL     1      11.235  11.780  18.878  0.00  0.00    +0.000 C 
ATOM      5  N   UNL     1      10.135  11.094  19.611  0.00  0.00    +0.000 NA
ATOM      6  C   UNL     1       9.648  12.028  20.658  0.00  0.00    +0.000 C 
ATOM      7  C   UNL     1       9.273  13.454  20.174  0.00  0.00    +0.000 C 
BRANCH   2  13
ATOM      8  C   UNL     1      10.297  16.393  18.641  0.00  0.00    +0.000 A 
ATOM      9  C   UNL     1      10.801  17.694  18.793  0.00  0.00    +0.000 A 
ATOM     10  C   UNL     1      11.777  17.973  19.745  0.00  0.00    +0.000 A 
ATOM     11  C   UNL     1      12.262  16.953  20.546  0.00  0.00    +0.000 A 
ATOM     12  C   UNL     1      11.768  15.654  20.396  0.00  0.00    +0.000 A 
ATOM     13  C   UNL     1      10.780  15.325  19.445  0.00  0.00    +0.000 A 
BRANCH   8  15
ATOM     14  C   UNL     1       8.031  16.158  17.974  0.00  0.00    +0.000 C 
ATOM     15  O   UNL     1       9.411  16.103  17.622  0.00  0.00    +0.000 OA
ENDBRANCH   8  15
ENDBRANCH   2  13
ENDBRANCH   1   5
BRANCH   1  16
ATOM     16  C   UNL     1       8.888   9.150  18.653  0.00  0.00    +0.000 C 
BRANCH  16  17
ATOM     17  C   UNL     1       7.828   8.687  17.647  0.00  0.00    +0.000 C 
BRANCH  17  18
ATOM     18  C   UNL     1       7.849   7.168  17.505  0.00  0.00    +0.000 C 
BRANCH  18  19
ATOM     19  C   UNL     1       6.497   6.589  17.508  0.00  0.00    +0.000 A 
ATOM     20  C   UNL     1       5.841   5.759  18.375  0.00  0.00    +0.000 A 
ATOM     21  C   UNL     1       4.516   5.701  17.877  0.00  0.00    +0.000 A 
ATOM     22  N   UNL     1       4.416   6.400  16.733  0.00  0.00    +0.000 NA
ATOM     23  O   UNL     1       5.659   6.961  16.513  0.00  0.00    +0.000 OA
BRANCH  21  24
ATOM     24  C   UNL     1       3.372   5.030  18.481  0.00  0.00    +0.000 A 
ATOM     25  C   UNL     1       3.065   5.235  19.837  0.00  0.00    +0.000 A 
ATOM     26  C   UNL     1       1.963   4.600  20.410  0.00  0.00    +0.000 A 
ATOM     27  C   UNL     1       1.175   3.762  19.629  0.00  0.00    +0.000 A 
ATOM     28  F   UNL     1       0.117   3.158  20.179  0.00  0.00    +0.000 F 
ATOM     29  C   UNL     1       1.462   3.549  18.287  0.00  0.00    +0.000 A 
ATOM     30  C   UNL     1       2.564   4.186  17.709  0.00  0.00    +0.000 A 
ENDBRANCH  21  24
ENDBRANCH  18  19
ENDBRANCH  17  18
ENDBRANCH  16  17
ENDBRANCH   1  16
TORSDOF 8
ENDMDL
MODEL 5
REMARK VINA RESULT:      -7.7      6.401      8.884
REMARK  Name = 
REMARK  9 active torsions:
REMARK  status: ('A' for Active; 'I' for Inactive)
REMARK    1  A    between atoms: C_1  and  O_2
REMARK    2  A    between atoms: O_2  and  C_3
REMARK    3  A    between atoms: C_8  and  N_9
REMARK    4  A    between atoms: N_12  and  C_13
REMARK    5  A    between atoms: C_13  and  C_14
REMARK    6  A    between atoms: C_14  and  C_15
REMARK    7  A    between atoms: C_15  and  C_16
REMARK    8  A    between atoms: C_16  and  C_17
REMARK    9  A    between atoms: C_19  and  C_20
REMARK                            x       y       z     vdW  Elec       q    Type
REMARK                         _______ _______ _______ _____ _____    ______ ____
ROOT
ATOM      1  C   UNL     1       1.481   3.612  20.335  0.00  0.00    +0.000 C 
ENDROOT
BRANCH   1   5
ATOM      2  N   UNL     1       4.082   3.973  17.825  0.00  0.00    +0.000 N 
ATOM      3  C   UNL     1       2.924   4.863  17.954  0.00  0.00    +0.000 C 
ATOM      4  C   UNL     1       1.638   4.011  17.918  0.00  0.00    +0.000 C 
ATOM      5  N   UNL     1       1.573   2.994  19.003  0.00  0.00    +0.000 NA
ATOM      6  C   UNL     1       2.780   2.138  18.885  0.00  0.00    +0.000 C 
ATOM      7  C   UNL     1       4.139   2.886  18.818  0.00  0.00    +0.000 C 
BRANCH   2  13
ATOM      8  C   UNL     1       6.310   4.919  17.287  0.00  0.00    +0.000 A 
ATOM      9  C   UNL     1       7.303   5.167  16.327  0.00  0.00    +0.000 A 
ATOM     10  C   UNL     1       7.150   4.736  15.014  0.00  0.00    +0.000 A 
ATOM     11  C   UNL     1       5.998   4.060  14.647  0.00  0.00    +0.000 A 
ATOM     12  C   UNL     1       5.002   3.814  15.596  0.00  0.00    +0.000 A 
ATOM     13  C   UNL     1       5.115   4.231  16.938  0.00  0.00    +0.000 A 
BRANCH   8  15
ATOM     14  C   UNL     1       7.690   6.006  18.883  0.00  0.00    +0.000 C 
ATOM     15  O   UNL     1       6.421   5.444  18.558  0.00  0.00    +0.000 OA
ENDBRANCH   8  15
ENDBRANCH   2  13
ENDBRANCH   1   5
BRANCH   1  16
ATOM     16  C   UNL     1       0.876   5.025  20.284  0.00  0.00    +0.000 C 
BRANCH  16  17
ATOM     17  C   UNL     1       1.723   6.075  21.015  0.00  0.00    +0.000 C 
BRANCH  17  18
ATOM     18  C   UNL     1       1.814   7.357  20.192  0.00  0.00    +0.000 C 
BRANCH  18  19
ATOM     19  C   UNL     1       1.189   8.501  20.873  0.00  0.00    +0.000 A 
ATOM     20  C   UNL     1       0.311   9.465  20.461  0.00  0.00    +0.000 A 
ATOM     21  C   UNL     1      -0.010  10.181  21.640  0.00  0.00    +0.000 A 
ATOM     22  N   UNL     1       0.702   9.712  22.680  0.00  0.00    +0.000 NA
ATOM     23  O   UNL     1       1.444   8.654  22.193  0.00  0.00    +0.000 OA
BRANCH  21  24
ATOM     24  C   UNL     1      -0.982  11.257  21.785  0.00  0.00    +0.000 A 
ATOM     25  C   UNL     1      -1.398  11.670  23.063  0.00  0.00    +0.000 A 
ATOM     26  C   UNL     1      -2.319  12.708  23.199  0.00  0.00    +0.000 A 
ATOM     27  C   UNL     1      -2.824  13.326  22.061  0.00  0.00    +0.000 A 
ATOM     28  F   UNL     1      -3.705  14.324  22.195  0.00  0.00    +0.000 F 
ATOM     29  C   UNL     1      -2.425  12.933  20.791  0.00  0.00    +0.000 A 
ATOM     30  C   UNL     1      -1.499  11.895  20.651  0.00  0.00    +0.000 A 
ENDBRANCH  21  24
ENDBRANCH  18  19
ENDBRANCH  17  18
ENDBRANCH  16  17
ENDBRANCH   1  16
TORSDOF 8
ENDMDL
MODEL 6
REMARK VINA RESULT:      -7.6      4.109     12.347
REMARK  Name = 
REMARK  9 active torsions:
REMARK  status: ('A' for Active; 'I' for Inactive)
REMARK    1  A    between atoms: C_1  and  O_2
REMARK    2  A    between atoms: O_2  and  C_3
REMARK    3  A    between atoms: C_8  and  N_9
REMARK    4  A    between atoms: N_12  and  C_13
REMARK    5  A    between atoms: C_13  and  C_14
REMARK    6  A    between atoms: C_14  and  C_15
REMARK    7  A    between atoms: C_15  and  C_16
REMARK    8  A    between atoms: C_16  and  C_17
REMARK    9  A    between atoms: C_19  and  C_20
REMARK                            x       y       z     vdW  Elec       q    Type
REMARK                         _______ _______ _______ _____ _____    ______ ____
ROOT
ATOM      1  C   UNL     1       9.733  10.703  17.956  0.00  0.00    +0.000 C 
ENDROOT
BRANCH   1   5
ATOM      2  N   UNL     1      10.397  14.246  18.396  0.00  0.00    +0.000 N 
ATOM      3  C   UNL     1      11.164  13.362  17.513  0.00  0.00    +0.000 C 
ATOM      4  C   UNL     1      11.672  12.160  18.335  0.00  0.00    +0.000 C 
ATOM      5  N   UNL     1      10.578  11.367  18.960  0.00  0.00    +0.000 NA
ATOM      6  C   UNL     1       9.785  12.293  19.808  0.00  0.00    +0.000 C 
ATOM      7  C   UNL     1       9.291  13.592  19.117  0.00  0.00    +0.000 C 
BRANCH   2  13
ATOM      8  C   UNL     1      11.062  16.325  19.573  0.00  0.00    +0.000 A 
ATOM      9  C   UNL     1      11.225  17.719  19.539  0.00  0.00    +0.000 A 
ATOM     10  C   UNL     1      10.954  18.440  18.381  0.00  0.00    +0.000 A 
ATOM     11  C   UNL     1      10.510  17.775  17.250  0.00  0.00    +0.000 A 
ATOM     12  C   UNL     1      10.341  16.389  17.278  0.00  0.00    +0.000 A 
ATOM     13  C   UNL     1      10.605  15.617  18.428  0.00  0.00    +0.000 A 
BRANCH   8  15
ATOM     14  C   UNL     1      10.974  16.375  21.945  0.00  0.00    +0.000 C 
ATOM     15  O   UNL     1      11.228  15.631  20.755  0.00  0.00    +0.000 OA
ENDBRANCH   8  15
ENDBRANCH   2  13
ENDBRANCH   1   5
BRANCH   1  16
ATOM     16  C   UNL     1       8.637   9.833  18.595  0.00  0.00    +0.000 C 
BRANCH  16  17
ATOM     17  C   UNL     1       8.050   8.792  17.634  0.00  0.00    +0.000 C 
BRANCH  17  18
ATOM     18  C   UNL     1       8.104   7.399  18.254  0.00  0.00    +0.000 C 
BRANCH  18  19
ATOM     19  C   UNL     1       6.908   6.602  17.939  0.00  0.00    +0.000 A 
ATOM     20  C   UNL     1       6.294   5.555  18.570  0.00  0.00    +0.000 A 
ATOM     21  C   UNL     1       5.104   5.344  17.830  0.00  0.00    +0.000 A 
ATOM     22  N   UNL     1       5.058   6.173  16.773  0.00  0.00    +0.000 NA
ATOM     23  O   UNL     1       6.187   6.965  16.853  0.00  0.00    +0.000 OA
BRANCH  21  24
ATOM     24  C   UNL     1       4.030   4.406  18.131  0.00  0.00    +0.000 A 
ATOM     25  C   UNL     1       3.598   4.225  19.456  0.00  0.00    +0.000 A 
ATOM     26  C   UNL     1       2.562   3.336  19.740  0.00  0.00    +0.000 A 
ATOM     27  C   UNL     1       1.965   2.630  18.702  0.00  0.00    +0.000 A 
ATOM     28  F   UNL     1       0.968   1.780  18.976  0.00  0.00    +0.000 F 
ATOM     29  C   UNL     1       2.376   2.796  17.386  0.00  0.00    +0.000 A 
ATOM     30  C   UNL     1       3.413   3.689  17.099  0.00  0.00    +0.000 A 
ENDBRANCH  21  24
ENDBRANCH  18  19
ENDBRANCH  17  18
ENDBRANCH  16  17
ENDBRANCH   1  16
TORSDOF 8
ENDMDL
MODEL 7
REMARK VINA RESULT:      -7.6      4.522     11.609
REMARK  Name = 
REMARK  9 active torsions:
REMARK  status: ('A' for Active; 'I' for Inactive)
REMARK    1  A    between atoms: C_1  and  O_2
REMARK    2  A    between atoms: O_2  and  C_3
REMARK    3  A    between atoms: C_8  and  N_9
REMARK    4  A    between atoms: N_12  and  C_13
REMARK    5  A    between atoms: C_13  and  C_14
REMARK    6  A    between atoms: C_14  and  C_15
REMARK    7  A    between atoms: C_15  and  C_16
REMARK    8  A    between atoms: C_16  and  C_17
REMARK    9  A    between atoms: C_19  and  C_20
REMARK                            x       y       z     vdW  Elec       q    Type
REMARK                         _______ _______ _______ _____ _____    ______ ____
ROOT
ATOM      1  C   UNL     1       8.579  10.243  18.102  0.00  0.00    +0.000 C 
ENDROOT
BRANCH   1   5
ATOM      2  N   UNL     1       9.682  13.051  20.124  0.00  0.00    +0.000 N 
ATOM      3  C   UNL     1       8.679  13.139  19.058  0.00  0.00    +0.000 C 
ATOM      4  C   UNL     1       9.285  12.569  17.759  0.00  0.00    +0.000 C 
ATOM      5  N   UNL     1       9.717  11.149  17.883  0.00  0.00    +0.000 NA
ATOM      6  C   UNL     1      10.692  11.076  19.000  0.00  0.00    +0.000 C 
ATOM      7  C   UNL     1      10.233  11.702  20.344  0.00  0.00    +0.000 C 
BRANCH   2  13
ATOM      8  C   UNL     1       9.291  14.388  22.175  0.00  0.00    +0.000 A 
ATOM      9  C   UNL     1       9.620  15.508  22.954  0.00  0.00    +0.000 A 
ATOM     10  C   UNL     1      10.629  16.380  22.558  0.00  0.00    +0.000 A 
ATOM     11  C   UNL     1      11.311  16.143  21.376  0.00  0.00    +0.000 A 
ATOM     12  C   UNL     1      10.985  15.033  20.593  0.00  0.00    +0.000 A 
ATOM     13  C   UNL     1       9.971  14.123  20.955  0.00  0.00    +0.000 A 
BRANCH   8  15
ATOM     14  C   UNL     1       6.931  14.135  22.230  0.00  0.00    +0.000 C 
ATOM     15  O   UNL     1       8.217  13.591  22.518  0.00  0.00    +0.000 OA
ENDBRANCH   8  15
ENDBRANCH   2  13
ENDBRANCH   1   5
BRANCH   1  16
ATOM     16  C   UNL     1       8.956   9.029  18.969  0.00  0.00    +0.000 C 
BRANCH  16  17
ATOM     17  C   UNL     1       8.248   7.737  18.546  0.00  0.00    +0.000 C 
BRANCH  17  18
ATOM     18  C   UNL     1       7.439   7.961  17.272  0.00  0.00    +0.000 C 
BRANCH  18  19
ATOM     19  C   UNL     1       6.425   6.916  17.064  0.00  0.00    +0.000 A 
ATOM     20  C   UNL     1       5.731   6.108  17.923  0.00  0.00    +0.000 A 
ATOM     21  C   UNL     1       4.801   5.429  17.097  0.00  0.00    +0.000 A 
ATOM     22  N   UNL     1       4.990   5.763  15.809  0.00  0.00    +0.000 NA
ATOM     23  O   UNL     1       6.003   6.702  15.797  0.00  0.00    +0.000 OA
BRANCH  21  24
ATOM     24  C   UNL     1       3.747   4.515  17.517  0.00  0.00    +0.000 A 
ATOM     25  C   UNL     1       2.511   5.015  17.964  0.00  0.00    +0.000 A 
ATOM     26  C   UNL     1       1.500   4.138  18.354  0.00  0.00    +0.000 A 
ATOM     27  C   UNL     1       1.726   2.768  18.302  0.00  0.00    +0.000 A 
ATOM     28  F   UNL     1       0.754   1.929  18.673  0.00  0.00    +0.000 F 
ATOM     29  C   UNL     1       2.940   2.255  17.862  0.00  0.00    +0.000 A 
ATOM     30  C   UNL     1       3.954   3.131  17.467  0.00  0.00    +0.000 A 
ENDBRANCH  21  24
ENDBRANCH  18  19
ENDBRANCH  17  18
ENDBRANCH  16  17
ENDBRANCH   1  16
TORSDOF 8
ENDMDL
MODEL 8
REMARK VINA RESULT:      -7.6      1.730      2.217
REMARK  Name = 
REMARK  9 active torsions:
REMARK  status: ('A' for Active; 'I' for Inactive)
REMARK    1  A    between atoms: C_1  and  O_2
REMARK    2  A    between atoms: O_2  and  C_3
REMARK    3  A    between atoms: C_8  and  N_9
REMARK    4  A    between atoms: N_12  and  C_13
REMARK    5  A    between atoms: C_13  and  C_14
REMARK    6  A    between atoms: C_14  and  C_15
REMARK    7  A    between atoms: C_15  and  C_16
REMARK    8  A    between atoms: C_16  and  C_17
REMARK    9  A    between atoms: C_19  and  C_20
REMARK                            x       y       z     vdW  Elec       q    Type
REMARK                         _______ _______ _______ _____ _____    ______ ____
ROOT
ATOM      1  C   UNL     1       7.413   6.522  16.786  0.00  0.00    +0.000 C 
ENDROOT
BRANCH   1   5
ATOM      2  N   UNL     1       4.592   4.738  18.220  0.00  0.00    +0.000 N 
ATOM      3  C   UNL     1       5.697   5.307  18.998  0.00  0.00    +0.000 C 
ATOM      4  C   UNL     1       7.027   4.755  18.446  0.00  0.00    +0.000 C 
ATOM      5  N   UNL     1       7.250   5.077  17.010  0.00  0.00    +0.000 NA
ATOM      6  C   UNL     1       6.095   4.538  16.248  0.00  0.00    +0.000 C 
ATOM      7  C   UNL     1       4.690   4.948  16.765  0.00  0.00    +0.000 C 
BRANCH   2  13
ATOM      8  C   UNL     1       2.551   4.921  19.615  0.00  0.00    +0.000 A 
ATOM      9  C   UNL     1       1.453   4.287  20.217  0.00  0.00    +0.000 A 
ATOM     10  C   UNL     1       1.233   2.925  20.043  0.00  0.00    +0.000 A 
ATOM     11  C   UNL     1       2.113   2.183  19.273  0.00  0.00    +0.000 A 
ATOM     12  C   UNL     1       3.212   2.807  18.674  0.00  0.00    +0.000 A 
ATOM     13  C   UNL     1       3.473   4.184  18.823  0.00  0.00    +0.000 A 
BRANCH   8  15
ATOM     14  C   UNL     1       2.348   7.180  18.913  0.00  0.00    +0.000 C 
ATOM     15  O   UNL     1       2.823   6.248  19.882  0.00  0.00    +0.000 OA
ENDBRANCH   8  15
ENDBRANCH   2  13
ENDBRANCH   1   5
BRANCH   1  16
ATOM     16  C   UNL     1       7.781   7.276  18.075  0.00  0.00    +0.000 C 
BRANCH  16  17
ATOM     17  C   UNL     1       7.946   8.787  17.869  0.00  0.00    +0.000 C 
BRANCH  17  18
ATOM     18  C   UNL     1       8.978   9.351  18.841  0.00  0.00    +0.000 C 
BRANCH  18  19
ATOM     19  C   UNL     1       9.088  10.815  18.750  0.00  0.00    +0.000 A 
ATOM     20  C   UNL     1       9.714  11.752  19.524  0.00  0.00    +0.000 A 
ATOM     21  C   UNL     1       9.561  12.965  18.807  0.00  0.00    +0.000 A 
ATOM     22  N   UNL     1       8.817  12.765  17.706  0.00  0.00    +0.000 NA
ATOM     23  O   UNL     1       8.532  11.414  17.671  0.00  0.00    +0.000 OA
BRANCH  21  24
ATOM     24  C   UNL     1      10.126  14.266  19.139  0.00  0.00    +0.000 A 
ATOM     25  C   UNL     1       9.409  15.443  18.859  0.00  0.00    +0.000 A 
ATOM     26  C   UNL     1       9.948  16.686  19.189  0.00  0.00    +0.000 A 
ATOM     27  C   UNL     1      11.199  16.751  19.791  0.00  0.00    +0.000 A 
ATOM     28  F   UNL     1      11.711  17.945  20.109  0.00  0.00    +0.000 F 
ATOM     29  C   UNL     1      11.921  15.600  20.076  0.00  0.00    +0.000 A 
ATOM     30  C   UNL     1      11.383  14.352  19.750  0.00  0.00    +0.000 A 
ENDBRANCH  21  24
ENDBRANCH  18  19
ENDBRANCH  17  18
ENDBRANCH  16  17
ENDBRANCH   1  16
TORSDOF 8
ENDMDL
MODEL 9
REMARK VINA RESULT:      -7.6      2.699      2.949
REMARK  Name = 
REMARK  9 active torsions:
REMARK  status: ('A' for Active; 'I' for Inactive)
REMARK    1  A    between atoms: C_1  and  O_2
REMARK    2  A    between atoms: O_2  and  C_3
REMARK    3  A    between atoms: C_8  and  N_9
REMARK    4  A    between atoms: N_12  and  C_13
REMARK    5  A    between atoms: C_13  and  C_14
REMARK    6  A    between atoms: C_14  and  C_15
REMARK    7  A    between atoms: C_15  and  C_16
REMARK    8  A    between atoms: C_16  and  C_17
REMARK    9  A    between atoms: C_19  and  C_20
REMARK                            x       y       z     vdW  Elec       q    Type
REMARK                         _______ _______ _______ _____ _____    ______ ____
ROOT
ATOM      1  C   UNL     1       7.887   7.113  18.169  0.00  0.00    +0.000 C 
ENDROOT
BRANCH   1   5
ATOM      2  N   UNL     1       4.882   5.071  18.181  0.00  0.00    +0.000 N 
ATOM      3  C   UNL     1       6.072   4.802  18.995  0.00  0.00    +0.000 C 
ATOM      4  C   UNL     1       7.301   4.730  18.067  0.00  0.00    +0.000 C 
ATOM      5  N   UNL     1       7.533   5.983  17.296  0.00  0.00    +0.000 NA
ATOM      6  C   UNL     1       6.299   6.263  16.520  0.00  0.00    +0.000 C 
ATOM      7  C   UNL     1       4.975   6.271  17.330  0.00  0.00    +0.000 C 
BRANCH   2  13
ATOM      8  C   UNL     1       2.684   4.656  19.250  0.00  0.00    +0.000 A 
ATOM      9  C   UNL     1       1.537   3.854  19.353  0.00  0.00    +0.000 A 
ATOM     10  C   UNL     1       1.371   2.738  18.540  0.00  0.00    +0.000 A 
ATOM     11  C   UNL     1       2.356   2.409  17.622  0.00  0.00    +0.000 A 
ATOM     12  C   UNL     1       3.503   3.200  17.517  0.00  0.00    +0.000 A 
ATOM     13  C   UNL     1       3.712   4.340  18.320  0.00  0.00    +0.000 A 
BRANCH   8  15
ATOM     14  C   UNL     1       2.272   6.932  19.785  0.00  0.00    +0.000 C 
ATOM     15  O   UNL     1       2.891   5.696  20.134  0.00  0.00    +0.000 OA
ENDBRANCH   8  15
ENDBRANCH   2  13
ENDBRANCH   1   5
BRANCH   1  16
ATOM     16  C   UNL     1       8.003   8.437  17.395  0.00  0.00    +0.000 C 
BRANCH  16  17
ATOM     17  C   UNL     1       8.079   9.668  18.306  0.00  0.00    +0.000 C 
BRANCH  17  18
ATOM     18  C   UNL     1       9.388  10.420  18.083  0.00  0.00    +0.000 C 
BRANCH  18  19
ATOM     19  C   UNL     1       9.699  11.337  19.189  0.00  0.00    +0.000 A 
ATOM     20  C   UNL     1      10.063  12.655  19.233  0.00  0.00    +0.000 A 
ATOM     21  C   UNL     1      10.066  12.977  20.613  0.00  0.00    +0.000 A 
ATOM     22  N   UNL     1       9.794  11.885  21.347  0.00  0.00    +0.000 NA
ATOM     23  O   UNL     1       9.556  10.864  20.449  0.00  0.00    +0.000 OA
BRANCH  21  24
ATOM     24  C   UNL     1      10.292  14.285  21.215  0.00  0.00    +0.000 A 
ATOM     25  C   UNL     1      11.174  15.200  20.614  0.00  0.00    +0.000 A 
ATOM     26  C   UNL     1      11.378  16.455  21.186  0.00  0.00    +0.000 A 
ATOM     27  C   UNL     1      10.707  16.790  22.356  0.00  0.00    +0.000 A 
ATOM     28  F   UNL     1      10.902  17.996  22.901  0.00  0.00    +0.000 F 
ATOM     29  C   UNL     1       9.831  15.900  22.964  0.00  0.00    +0.000 A 
ATOM     30  C   UNL     1       9.621  14.642  22.391  0.00  0.00    +0.000 A 
ENDBRANCH  21  24
ENDBRANCH  18  19
ENDBRANCH  17  18
ENDBRANCH  16  17
ENDBRANCH   1  16
TORSDOF 8
ENDMDL
