MODEL 1
REMARK VINA RESULT:      -8.4      0.000      0.000
REMARK  Name = 
REMARK  7 active torsions:
REMARK  status: ('A' for Active; 'I' for Inactive)
REMARK    1  A    between atoms: S_2  and  O_5
REMARK    2  A    between atoms: O_5  and  C_6
REMARK    3  A    between atoms: C_8  and  C_9
REMARK    4  A    between atoms: C_10  and  C_11
REMARK    5  A    between atoms: C_14  and  O_15
REMARK    6  A    between atoms: C_19  and  O_20
REMARK    7  A    between atoms: O_20  and  S_21
REMARK                            x       y       z     vdW  Elec       q    Type
REMARK                         _______ _______ _______ _____ _____    ______ ____
ROOT
ATOM      1  C   UNL     1       3.960   4.609  18.367  0.00  0.00    +0.000 A 
ATOM      2  C   UNL     1       3.218   5.756  18.682  0.00  0.00    +0.000 A 
ATOM      3  C   UNL     1       3.447   6.980  18.047  0.00  0.00    +0.000 A 
ATOM      4  C   UNL     1       4.399   7.028  17.024  0.00  0.00    +0.000 A 
ATOM      5  C   UNL     1       5.095   5.873  16.648  0.00  0.00    +0.000 A 
ATOM      6  C   UNL     1       4.906   4.671  17.346  0.00  0.00    +0.000 A 
ENDROOT
BRANCH   3   7
ATOM      7  C   UNL     1       2.654   8.182  18.363  0.00  0.00    +0.000 C 
ATOM      8  C   UNL     1       1.485   8.489  17.780  0.00  0.00    +0.000 C 
BRANCH   8   9
ATOM      9  C   UNL     1       0.692   9.695  18.068  0.00  0.00    +0.000 A 
ATOM     10  C   UNL     1       1.342  10.821  18.600  0.00  0.00    +0.000 A 
ATOM     11  C   UNL     1       0.636  12.002  18.847  0.00  0.00    +0.000 A 
ATOM     12  C   UNL     1      -0.722  12.060  18.556  0.00  0.00    +0.000 A 
ATOM     13  C   UNL     1      -1.380  10.961  18.023  0.00  0.00    +0.000 A 
ATOM     14  C   UNL     1      -0.673   9.782  17.773  0.00  0.00    +0.000 A 
BRANCH  12  15
ATOM     15  O   UNL     1      -1.449  13.192  18.773  0.00  0.00    +0.000 OA
ATOM     16  H   UNL     1      -0.915  13.810  19.298  0.00  0.00    +0.000 HD
ENDBRANCH  12  15
ENDBRANCH   8   9
ENDBRANCH   3   7
BRANCH   1  17
ATOM     17  O   UNL     1       3.570   3.499  19.059  0.00  0.00    +0.000 OA
BRANCH  17  19
ATOM     18  O   UNL     1       1.694   2.009  19.462  0.00  0.00    +0.000 OA
ATOM     19  S   UNL     1       2.741   2.241  18.450  0.00  0.00    +0.000 S 
ATOM     20  O   UNL     1       3.630   1.105  18.410  0.00  0.00    +0.000 OA
ATOM     21  O   UNL     1       2.156   2.703  17.197  0.00  0.00    +0.000 OA
ENDBRANCH  17  19
ENDBRANCH   1  17
BRANCH   5  22
ATOM     22  O   UNL     1       5.937   6.016  15.569  0.00  0.00    +0.000 OA
BRANCH  22  23
ATOM     23  S   UNL     1       6.993   4.855  15.115  0.00  0.00    +0.000 S 
ATOM     24  O   UNL     1       6.157   3.707  14.697  0.00  0.00    +0.000 OA
ATOM     25  O   UNL     1       7.743   5.469  14.013  0.00  0.00    +0.000 OA
ATOM     26  O   UNL     1       7.770   4.579  16.306  0.00  0.00    +0.000 OA
ENDBRANCH  22  23
ENDBRANCH   5  22
TORSDOF 7
ENDMDL
MODEL 2
REMARK VINA RESULT:      -8.4      1.630      4.742
REMARK  Name = 
REMARK  7 active torsions:
REMARK  status: ('A' for Active; 'I' for Inactive)
REMARK    1  A    between atoms: S_2  and  O_5
REMARK    2  A    between atoms: O_5  and  C_6
REMARK    3  A    between atoms: C_8  and  C_9
REMARK    4  A    between atoms: C_10  and  C_11
REMARK    5  A    between atoms: C_14  and  O_15
REMARK    6  A    between atoms: C_19  and  O_20
REMARK    7  A    between atoms: O_20  and  S_21
REMARK                            x       y       z     vdW  Elec       q    Type
REMARK                         _______ _______ _______ _____ _____    ______ ____
ROOT
ATOM      1  C   UNL     1       4.587   5.258  18.016  0.00  0.00    +0.000 A 
ATOM      2  C   UNL     1       4.011   6.507  17.742  0.00  0.00    +0.000 A 
ATOM      3  C   UNL     1       2.939   7.004  18.487  0.00  0.00    +0.000 A 
ATOM      4  C   UNL     1       2.485   6.254  19.576  0.00  0.00    +0.000 A 
ATOM      5  C   UNL     1       3.101   5.041  19.908  0.00  0.00    +0.000 A 
ATOM      6  C   UNL     1       4.126   4.521  19.104  0.00  0.00    +0.000 A 
ENDROOT
BRANCH   3   7
ATOM      7  C   UNL     1       2.345   8.325  18.212  0.00  0.00    +0.000 C 
ATOM      8  C   UNL     1       1.503   8.960  19.042  0.00  0.00    +0.000 C 
BRANCH   8   9
ATOM      9  C   UNL     1       0.885  10.268  18.773  0.00  0.00    +0.000 A 
ATOM     10  C   UNL     1      -0.481  10.318  18.447  0.00  0.00    +0.000 A 
ATOM     11  C   UNL     1      -1.118  11.543  18.228  0.00  0.00    +0.000 A 
ATOM     12  C   UNL     1      -0.391  12.722  18.342  0.00  0.00    +0.000 A 
ATOM     13  C   UNL     1       0.958  12.694  18.672  0.00  0.00    +0.000 A 
ATOM     14  C   UNL     1       1.593  11.470  18.894  0.00  0.00    +0.000 A 
BRANCH  12  15
ATOM     15  O   UNL     1      -0.971  13.939  18.146  0.00  0.00    +0.000 OA
ATOM     16  H   UNL     1      -1.564  14.125  18.891  0.00  0.00    +0.000 HD
ENDBRANCH  12  15
ENDBRANCH   8   9
ENDBRANCH   3   7
BRANCH   1  17
ATOM     17  O   UNL     1       5.648   4.957  17.211  0.00  0.00    +0.000 OA
BRANCH  17  19
ATOM     18  O   UNL     1       7.410   6.474  16.506  0.00  0.00    +0.000 OA
ATOM     19  S   UNL     1       7.194   5.384  17.475  0.00  0.00    +0.000 S 
ATOM     20  O   UNL     1       8.028   4.259  17.125  0.00  0.00    +0.000 OA
ATOM     21  O   UNL     1       7.254   5.886  18.842  0.00  0.00    +0.000 OA
ENDBRANCH  17  19
ENDBRANCH   1  17
BRANCH   5  22
ATOM     22  O   UNL     1       2.634   4.436  21.053  0.00  0.00    +0.000 OA
BRANCH  22  23
ATOM     23  S   UNL     1       2.355   2.830  21.150  0.00  0.00    +0.000 S 
ATOM     24  O   UNL     1       3.685   2.213  21.362  0.00  0.00    +0.000 OA
ATOM     25  O   UNL     1       1.454   2.694  22.301  0.00  0.00    +0.000 OA
ATOM     26  O   UNL     1       1.771   2.480  19.872  0.00  0.00    +0.000 OA
ENDBRANCH  22  23
ENDBRANCH   5  22
TORSDOF 7
ENDMDL
MODEL 3
REMARK VINA RESULT:      -8.3      0.397      4.174
REMARK  Name = 
REMARK  7 active torsions:
REMARK  status: ('A' for Active; 'I' for Inactive)
REMARK    1  A    between atoms: S_2  and  O_5
REMARK    2  A    between atoms: O_5  and  C_6
REMARK    3  A    between atoms: C_8  and  C_9
REMARK    4  A    between atoms: C_10  and  C_11
REMARK    5  A    between atoms: C_14  and  O_15
REMARK    6  A    between atoms: C_19  and  O_20
REMARK    7  A    between atoms: O_20  and  S_21
REMARK                            x       y       z     vdW  Elec       q    Type
REMARK                         _______ _______ _______ _____ _____    ______ ____
ROOT
ATOM      1  C   UNL     1       5.022   5.926  16.431  0.00  0.00    +0.000 A 
ATOM      2  C   UNL     1       4.367   7.141  16.675  0.00  0.00    +0.000 A 
ATOM      3  C   UNL     1       3.325   7.244  17.600  0.00  0.00    +0.000 A 
ATOM      4  C   UNL     1       2.983   6.109  18.343  0.00  0.00    +0.000 A 
ATOM      5  C   UNL     1       3.680   4.908  18.163  0.00  0.00    +0.000 A 
ATOM      6  C   UNL     1       4.672   4.803  17.178  0.00  0.00    +0.000 A 
ENDROOT
BRANCH   3   7
ATOM      7  C   UNL     1       2.648   8.525  17.873  0.00  0.00    +0.000 C 
ATOM      8  C   UNL     1       1.319   8.663  18.001  0.00  0.00    +0.000 C 
BRANCH   8   9
ATOM      9  C   UNL     1       0.627   9.937  18.252  0.00  0.00    +0.000 A 
ATOM     10  C   UNL     1      -0.755  10.017  18.012  0.00  0.00    +0.000 A 
ATOM     11  C   UNL     1      -1.460  11.194  18.279  0.00  0.00    +0.000 A 
ATOM     12  C   UNL     1      -0.784  12.293  18.795  0.00  0.00    +0.000 A 
ATOM     13  C   UNL     1       0.580  12.232  19.047  0.00  0.00    +0.000 A 
ATOM     14  C   UNL     1       1.283  11.055  18.783  0.00  0.00    +0.000 A 
BRANCH  12  15
ATOM     15  O   UNL     1      -1.431  13.458  19.078  0.00  0.00    +0.000 OA
ATOM     16  H   UNL     1      -0.978  14.185  18.622  0.00  0.00    +0.000 HD
ENDBRANCH  12  15
ENDBRANCH   8   9
ENDBRANCH   3   7
BRANCH   1  17
ATOM     17  O   UNL     1       6.039   6.026  15.526  0.00  0.00    +0.000 OA
BRANCH  17  19
ATOM     18  O   UNL     1       6.333   3.769  14.677  0.00  0.00    +0.000 OA
ATOM     19  S   UNL     1       7.146   4.878  15.208  0.00  0.00    +0.000 S 
ATOM     20  O   UNL     1       7.741   4.481  16.461  0.00  0.00    +0.000 OA
ATOM     21  O   UNL     1       8.017   5.423  14.174  0.00  0.00    +0.000 OA
ENDBRANCH  17  19
ENDBRANCH   1  17
BRANCH   5  22
ATOM     22  O   UNL     1       3.323   3.886  19.013  0.00  0.00    +0.000 OA
BRANCH  22  23
ATOM     23  S   UNL     1       2.421   2.613  18.530  0.00  0.00    +0.000 S 
ATOM     24  O   UNL     1       1.567   2.275  19.691  0.00  0.00    +0.000 OA
ATOM     25  O   UNL     1       1.670   3.126  17.378  0.00  0.00    +0.000 OA
ATOM     26  O   UNL     1       3.384   1.576  18.221  0.00  0.00    +0.000 OA
ENDBRANCH  22  23
ENDBRANCH   5  22
TORSDOF 7
ENDMDL
MODEL 4
REMARK VINA RESULT:      -8.3      0.586      1.211
REMARK  Name = 
REMARK  7 active torsions:
REMARK  status: ('A' for Active; 'I' for Inactive)
REMARK    1  A    between atoms: S_2  and  O_5
REMARK    2  A    between atoms: O_5  and  C_6
REMARK    3  A    between atoms: C_8  and  C_9
REMARK    4  A    between atoms: C_10  and  C_11
REMARK    5  A    between atoms: C_14  and  O_15
REMARK    6  A    between atoms: C_19  and  O_20
REMARK    7  A    between atoms: O_20  and  S_21
REMARK                            x       y       z     vdW  Elec       q    Type
REMARK                         _______ _______ _______ _____ _____    ______ ____
ROOT
ATOM      1  C   UNL     1       3.148   4.605  17.719  0.00  0.00    +0.000 A 
ATOM      2  C   UNL     1       2.520   5.786  18.140  0.00  0.00    +0.000 A 
ATOM      3  C   UNL     1       3.082   7.043  17.906  0.00  0.00    +0.000 A 
ATOM      4  C   UNL     1       4.270   7.112  17.171  0.00  0.00    +0.000 A 
ATOM      5  C   UNL     1       4.868   5.946  16.680  0.00  0.00    +0.000 A 
ATOM      6  C   UNL     1       4.331   4.687  16.988  0.00  0.00    +0.000 A 
ENDROOT
BRANCH   3   7
ATOM      7  C   UNL     1       2.414   8.287  18.330  0.00  0.00    +0.000 C 
ATOM      8  C   UNL     1       1.299   8.775  17.764  0.00  0.00    +0.000 C 
BRANCH   8   9
ATOM      9  C   UNL     1       0.632  10.025  18.162  0.00  0.00    +0.000 A 
ATOM     10  C   UNL     1       1.419  11.104  18.597  0.00  0.00    +0.000 A 
ATOM     11  C   UNL     1       0.830  12.324  18.941  0.00  0.00    +0.000 A 
ATOM     12  C   UNL     1      -0.549  12.468  18.845  0.00  0.00    +0.000 A 
ATOM     13  C   UNL     1      -1.344  11.417  18.409  0.00  0.00    +0.000 A 
ATOM     14  C   UNL     1      -0.754  10.199  18.062  0.00  0.00    +0.000 A 
BRANCH  12  15
ATOM     15  O   UNL     1      -1.166  13.642  19.162  0.00  0.00    +0.000 OA
ATOM     16  H   UNL     1      -0.549  14.190  19.673  0.00  0.00    +0.000 HD
ENDBRANCH  12  15
ENDBRANCH   8   9
ENDBRANCH   3   7
BRANCH   1  17
ATOM     17  O   UNL     1       2.432   3.476  18.000  0.00  0.00    +0.000 OA
BRANCH  17  19
ATOM     18  O   UNL     1       1.583   1.744  19.475  0.00  0.00    +0.000 OA
ATOM     19  S   UNL     1       2.873   2.303  19.034  0.00  0.00    +0.000 S 
ATOM     20  O   UNL     1       3.533   2.929  20.155  0.00  0.00    +0.000 OA
ATOM     21  O   UNL     1       3.621   1.326  18.253  0.00  0.00    +0.000 OA
ENDBRANCH  17  19
ENDBRANCH   1  17
BRANCH   5  22
ATOM     22  O   UNL     1       5.980   6.139  15.892  0.00  0.00    +0.000 OA
BRANCH  22  23
ATOM     23  S   UNL     1       6.984   4.922  15.470  0.00  0.00    +0.000 S 
ATOM     24  O   UNL     1       7.691   4.548  16.716  0.00  0.00    +0.000 OA
ATOM     25  O   UNL     1       6.084   3.876  14.969  0.00  0.00    +0.000 OA
ATOM     26  O   UNL     1       7.864   5.499  14.476  0.00  0.00    +0.000 OA
ENDBRANCH  22  23
ENDBRANCH   5  22
TORSDOF 7
ENDMDL
MODEL 5
REMARK VINA RESULT:      -8.3      0.684      1.373
REMARK  Name = 
REMARK  7 active torsions:
REMARK  status: ('A' for Active; 'I' for Inactive)
REMARK    1  A    between atoms: S_2  and  O_5
REMARK    2  A    between atoms: O_5  and  C_6
REMARK    3  A    between atoms: C_8  and  C_9
REMARK    4  A    between atoms: C_10  and  C_11
REMARK    5  A    between atoms: C_14  and  O_15
REMARK    6  A    between atoms: C_19  and  O_20
REMARK    7  A    between atoms: O_20  and  S_21
REMARK                            x       y       z     vdW  Elec       q    Type
REMARK                         _______ _______ _______ _____ _____    ______ ____
ROOT
ATOM      1  C   UNL     1       3.737   4.725  18.474  0.00  0.00    +0.000 A 
ATOM      2  C   UNL     1       2.862   5.820  18.536  0.00  0.00    +0.000 A 
ATOM      3  C   UNL     1       3.135   7.019  17.874  0.00  0.00    +0.000 A 
ATOM      4  C   UNL     1       4.281   7.090  17.076  0.00  0.00    +0.000 A 
ATOM      5  C   UNL     1       5.123   5.980  16.944  0.00  0.00    +0.000 A 
ATOM      6  C   UNL     1       4.875   4.809  17.675  0.00  0.00    +0.000 A 
ENDROOT
BRANCH   3   7
ATOM      7  C   UNL     1       2.207   8.165  17.922  0.00  0.00    +0.000 C 
ATOM      8  C   UNL     1       1.645   8.632  19.047  0.00  0.00    +0.000 C 
BRANCH   8   9
ATOM      9  C   UNL     1       0.701   9.760  19.109  0.00  0.00    +0.000 A 
ATOM     10  C   UNL     1       0.812  10.678  20.167  0.00  0.00    +0.000 A 
ATOM     11  C   UNL     1      -0.035  11.788  20.241  0.00  0.00    +0.000 A 
ATOM     12  C   UNL     1      -0.989  11.986  19.250  0.00  0.00    +0.000 A 
ATOM     13  C   UNL     1      -1.109  11.096  18.192  0.00  0.00    +0.000 A 
ATOM     14  C   UNL     1      -0.260   9.988  18.117  0.00  0.00    +0.000 A 
BRANCH  12  15
ATOM     15  O   UNL     1      -1.830  13.058  19.276  0.00  0.00    +0.000 OA
ATOM     16  H   UNL     1      -1.636  13.588  20.065  0.00  0.00    +0.000 HD
ENDBRANCH  12  15
ENDBRANCH   8   9
ENDBRANCH   3   7
BRANCH   1  17
ATOM     17  O   UNL     1       3.287   3.628  19.150  0.00  0.00    +0.000 OA
BRANCH  17  19
ATOM     18  O   UNL     1       2.163   2.815  17.156  0.00  0.00    +0.000 OA
ATOM     19  S   UNL     1       2.574   2.327  18.485  0.00  0.00    +0.000 S 
ATOM     20  O   UNL     1       1.401   2.020  19.267  0.00  0.00    +0.000 OA
ATOM     21  O   UNL     1       3.608   1.308  18.366  0.00  0.00    +0.000 OA
ENDBRANCH  17  19
ENDBRANCH   1  17
BRANCH   5  22
ATOM     22  O   UNL     1       6.167   6.133  16.061  0.00  0.00    +0.000 OA
BRANCH  22  23
ATOM     23  S   UNL     1       7.041   4.870  15.502  0.00  0.00    +0.000 S 
ATOM     24  O   UNL     1       7.858   4.420  16.652  0.00  0.00    +0.000 OA
ATOM     25  O   UNL     1       6.028   3.895  15.083  0.00  0.00    +0.000 OA
ATOM     26  O   UNL     1       7.840   5.423  14.428  0.00  0.00    +0.000 OA
ENDBRANCH  22  23
ENDBRANCH   5  22
TORSDOF 7
ENDMDL
MODEL 6
REMARK VINA RESULT:      -8.3      0.671      1.392
REMARK  Name = 
REMARK  7 active torsions:
REMARK  status: ('A' for Active; 'I' for Inactive)
REMARK    1  A    between atoms: S_2  and  O_5
REMARK    2  A    between atoms: O_5  and  C_6
REMARK    3  A    between atoms: C_8  and  C_9
REMARK    4  A    between atoms: C_10  and  C_11
REMARK    5  A    between atoms: C_14  and  O_15
REMARK    6  A    between atoms: C_19  and  O_20
REMARK    7  A    between atoms: O_20  and  S_21
REMARK                            x       y       z     vdW  Elec       q    Type
REMARK                         _______ _______ _______ _____ _____    ______ ____
ROOT
ATOM      1  C   UNL     1       3.707   4.818  18.476  0.00  0.00    +0.000 A 
ATOM      2  C   UNL     1       2.875   5.945  18.549  0.00  0.00    +0.000 A 
ATOM      3  C   UNL     1       3.173   7.127  17.866  0.00  0.00    +0.000 A 
ATOM      4  C   UNL     1       4.299   7.147  17.037  0.00  0.00    +0.000 A 
ATOM      5  C   UNL     1       5.096   6.005  16.895  0.00  0.00    +0.000 A 
ATOM      6  C   UNL     1       4.825   4.852  17.646  0.00  0.00    +0.000 A 
ENDROOT
BRANCH   3   7
ATOM      7  C   UNL     1       2.290   8.306  17.927  0.00  0.00    +0.000 C 
ATOM      8  C   UNL     1       1.614   8.686  19.022  0.00  0.00    +0.000 C 
BRANCH   8   9
ATOM      9  C   UNL     1       0.713   9.848  19.093  0.00  0.00    +0.000 A 
ATOM     10  C   UNL     1      -0.340   9.946  18.168  0.00  0.00    +0.000 A 
ATOM     11  C   UNL     1      -1.245  11.009  18.226  0.00  0.00    +0.000 A 
ATOM     12  C   UNL     1      -1.103  11.973  19.217  0.00  0.00    +0.000 A 
ATOM     13  C   UNL     1      -0.074  11.890  20.146  0.00  0.00    +0.000 A 
ATOM     14  C   UNL     1       0.828  10.826  20.088  0.00  0.00    +0.000 A 
BRANCH  12  15
ATOM     15  O   UNL     1      -1.967  13.022  19.319  0.00  0.00    +0.000 OA
ATOM     16  H   UNL     1      -1.473  13.806  19.609  0.00  0.00    +0.000 HD
ENDBRANCH  12  15
ENDBRANCH   8   9
ENDBRANCH   3   7
BRANCH   1  17
ATOM     17  O   UNL     1       3.236   3.745  19.176  0.00  0.00    +0.000 OA
BRANCH  17  19
ATOM     18  O   UNL     1       1.623   1.954  19.479  0.00  0.00    +0.000 OA
ATOM     19  S   UNL     1       2.677   2.360  18.532  0.00  0.00    +0.000 S 
ATOM     20  O   UNL     1       3.750   1.396  18.564  0.00  0.00    +0.000 OA
ATOM     21  O   UNL     1       2.104   2.711  17.239  0.00  0.00    +0.000 OA
ENDBRANCH  17  19
ENDBRANCH   1  17
BRANCH   5  22
ATOM     22  O   UNL     1       6.121   6.110  15.982  0.00  0.00    +0.000 OA
BRANCH  22  23
ATOM     23  S   UNL     1       7.032   4.832  15.529  0.00  0.00    +0.000 S 
ATOM     24  O   UNL     1       7.819   4.468  16.729  0.00  0.00    +0.000 OA
ATOM     25  O   UNL     1       6.049   3.815  15.140  0.00  0.00    +0.000 OA
ATOM     26  O   UNL     1       7.855   5.333  14.449  0.00  0.00    +0.000 OA
ENDBRANCH  22  23
ENDBRANCH   5  22
TORSDOF 7
ENDMDL
MODEL 7
REMARK VINA RESULT:      -8.3      0.231      1.565
REMARK  Name = 
REMARK  7 active torsions:
REMARK  status: ('A' for Active; 'I' for Inactive)
REMARK    1  A    between atoms: S_2  and  O_5
REMARK    2  A    between atoms: O_5  and  C_6
REMARK    3  A    between atoms: C_8  and  C_9
REMARK    4  A    between atoms: C_10  and  C_11
REMARK    5  A    between atoms: C_14  and  O_15
REMARK    6  A    between atoms: C_19  and  O_20
REMARK    7  A    between atoms: O_20  and  S_21
REMARK                            x       y       z     vdW  Elec       q    Type
REMARK                         _______ _______ _______ _____ _____    ______ ____
ROOT
ATOM      1  C   UNL     1       3.842   4.713  18.432  0.00  0.00    +0.000 A 
ATOM      2  C   UNL     1       3.088   5.862  18.705  0.00  0.00    +0.000 A 
ATOM      3  C   UNL     1       3.380   7.094  18.114  0.00  0.00    +0.000 A 
ATOM      4  C   UNL     1       4.414   7.149  17.174  0.00  0.00    +0.000 A 
ATOM      5  C   UNL     1       5.127   5.993  16.835  0.00  0.00    +0.000 A 
ATOM      6  C   UNL     1       4.870   4.781  17.494  0.00  0.00    +0.000 A 
ENDROOT
BRANCH   3   7
ATOM      7  C   UNL     1       2.575   8.299  18.384  0.00  0.00    +0.000 C 
ATOM      8  C   UNL     1       1.396   8.565  17.801  0.00  0.00    +0.000 C 
BRANCH   8   9
ATOM      9  C   UNL     1       0.591   9.773  18.045  0.00  0.00    +0.000 A 
ATOM     10  C   UNL     1      -0.768   9.764  17.690  0.00  0.00    +0.000 A 
ATOM     11  C   UNL     1      -1.580  10.874  17.944  0.00  0.00    +0.000 A 
ATOM     12  C   UNL     1      -1.033  11.992  18.561  0.00  0.00    +0.000 A 
ATOM     13  C   UNL     1       0.306  12.018  18.927  0.00  0.00    +0.000 A 
ATOM     14  C   UNL     1       1.115  10.908  18.676  0.00  0.00    +0.000 A 
BRANCH  12  15
ATOM     15  O   UNL     1      -1.788  13.094  18.837  0.00  0.00    +0.000 OA
ATOM     16  H   UNL     1      -1.223  13.762  19.257  0.00  0.00    +0.000 HD
ENDBRANCH  12  15
ENDBRANCH   8   9
ENDBRANCH   3   7
BRANCH   1  17
ATOM     17  O   UNL     1       3.386   3.595  19.070  0.00  0.00    +0.000 OA
BRANCH  17  19
ATOM     18  O   UNL     1       3.588   1.366  18.126  0.00  0.00    +0.000 OA
ATOM     19  S   UNL     1       2.551   2.382  18.383  0.00  0.00    +0.000 S 
ATOM     20  O   UNL     1       2.029   2.862  17.127  0.00  0.00    +0.000 OA
ATOM     21  O   UNL     1       1.605   1.913  19.388  0.00  0.00    +0.000 OA
ENDBRANCH  17  19
ENDBRANCH   1  17
BRANCH   5  22
ATOM     22  O   UNL     1       6.056   6.145  15.832  0.00  0.00    +0.000 OA
BRANCH  22  23
ATOM     23  S   UNL     1       6.942   4.900  15.255  0.00  0.00    +0.000 S 
ATOM     24  O   UNL     1       7.826   4.497  16.373  0.00  0.00    +0.000 OA
ATOM     25  O   UNL     1       5.942   3.885  14.901  0.00  0.00    +0.000 OA
ATOM     26  O   UNL     1       7.673   5.456  14.135  0.00  0.00    +0.000 OA
ENDBRANCH  22  23
ENDBRANCH   5  22
TORSDOF 7
ENDMDL
MODEL 8
REMARK VINA RESULT:      -8.3      1.347      4.571
REMARK  Name = 
REMARK  7 active torsions:
REMARK  status: ('A' for Active; 'I' for Inactive)
REMARK    1  A    between atoms: S_2  and  O_5
REMARK    2  A    between atoms: O_5  and  C_6
REMARK    3  A    between atoms: C_8  and  C_9
REMARK    4  A    between atoms: C_10  and  C_11
REMARK    5  A    between atoms: C_14  and  O_15
REMARK    6  A    between atoms: C_19  and  O_20
REMARK    7  A    between atoms: O_20  and  S_21
REMARK                            x       y       z     vdW  Elec       q    Type
REMARK                         _______ _______ _______ _____ _____    ______ ____
ROOT
ATOM      1  C   UNL     1       4.546   5.536  17.232  0.00  0.00    +0.000 A 
ATOM      2  C   UNL     1       3.941   6.796  17.122  0.00  0.00    +0.000 A 
ATOM      3  C   UNL     1       3.029   7.262  18.073  0.00  0.00    +0.000 A 
ATOM      4  C   UNL     1       2.775   6.465  19.194  0.00  0.00    +0.000 A 
ATOM      5  C   UNL     1       3.430   5.238  19.355  0.00  0.00    +0.000 A 
ATOM      6  C   UNL     1       4.284   4.752  18.354  0.00  0.00    +0.000 A 
ENDROOT
BRANCH   3   7
ATOM      7  C   UNL     1       2.407   8.594  17.970  0.00  0.00    +0.000 C 
ATOM      8  C   UNL     1       1.519   9.082  18.850  0.00  0.00    +0.000 C 
BRANCH   8   9
ATOM      9  C   UNL     1       0.873  10.401  18.750  0.00  0.00    +0.000 A 
ATOM     10  C   UNL     1       1.681  11.550  18.723  0.00  0.00    +0.000 A 
ATOM     11  C   UNL     1       1.112  12.820  18.585  0.00  0.00    +0.000 A 
ATOM     12  C   UNL     1      -0.267  12.941  18.464  0.00  0.00    +0.000 A 
ATOM     13  C   UNL     1      -1.082  11.817  18.479  0.00  0.00    +0.000 A 
ATOM     14  C   UNL     1      -0.513  10.549  18.615  0.00  0.00    +0.000 A 
BRANCH  12  15
ATOM     15  O   UNL     1      -0.865  14.157  18.319  0.00  0.00    +0.000 OA
ATOM     16  H   UNL     1      -1.795  14.020  18.077  0.00  0.00    +0.000 HD
ENDBRANCH  12  15
ENDBRANCH   8   9
ENDBRANCH   3   7
BRANCH   1  17
ATOM     17  O   UNL     1       5.437   5.269  16.233  0.00  0.00    +0.000 OA
BRANCH  17  19
ATOM     18  O   UNL     1       7.552   4.565  17.199  0.00  0.00    +0.000 OA
ATOM     19  S   UNL     1       7.031   5.585  16.271  0.00  0.00    +0.000 S 
ATOM     20  O   UNL     1       7.207   6.895  16.851  0.00  0.00    +0.000 OA
ATOM     21  O   UNL     1       7.528   5.358  14.920  0.00  0.00    +0.000 OA
ENDBRANCH  17  19
ENDBRANCH   1  17
BRANCH   5  22
ATOM     22  O   UNL     1       3.176   4.584  20.538  0.00  0.00    +0.000 OA
BRANCH  22  23
ATOM     23  S   UNL     1       2.004   3.455  20.688  0.00  0.00    +0.000 S 
ATOM     24  O   UNL     1       2.348   2.401  19.707  0.00  0.00    +0.000 OA
ATOM     25  O   UNL     1       2.112   3.016  22.085  0.00  0.00    +0.000 OA
ATOM     26  O   UNL     1       0.779   4.152  20.358  0.00  0.00    +0.000 OA
ENDBRANCH  22  23
ENDBRANCH   5  22
TORSDOF 7
ENDMDL
MODEL 9
REMARK VINA RESULT:      -8.3      0.687      1.736
REMARK  Name = 
REMARK  7 active torsions:
REMARK  status: ('A' for Active; 'I' for Inactive)
REMARK    1  A    between atoms: S_2  and  O_5
REMARK    2  A    between atoms: O_5  and  C_6
REMARK    3  A    between atoms: C_8  and  C_9
REMARK    4  A    between atoms: C_10  and  C_11
REMARK    5  A    between atoms: C_14  and  O_15
REMARK    6  A    between atoms: C_19  and  O_20
REMARK    7  A    between atoms: O_20  and  S_21
REMARK                            x       y       z     vdW  Elec       q    Type
REMARK                         _______ _______ _______ _____ _____    ______ ____
ROOT
ATOM      1  C   UNL     1       3.678   4.936  18.183  0.00  0.00    +0.000 A 
ATOM      2  C   UNL     1       3.043   6.167  18.405  0.00  0.00    +0.000 A 
ATOM      3  C   UNL     1       3.384   7.313  17.683  0.00  0.00    +0.000 A 
ATOM      4  C   UNL     1       4.339   7.197  16.667  0.00  0.00    +0.000 A 
ATOM      5  C   UNL     1       4.925   5.958  16.384  0.00  0.00    +0.000 A 
ATOM      6  C   UNL     1       4.627   4.834  17.168  0.00  0.00    +0.000 A 
ENDROOT
BRANCH   3   7
ATOM      7  C   UNL     1       2.705   8.603  17.902  0.00  0.00    +0.000 C 
ATOM      8  C   UNL     1       1.380   8.740  18.060  0.00  0.00    +0.000 C 
BRANCH   8   9
ATOM      9  C   UNL     1       0.684  10.022  18.258  0.00  0.00    +0.000 A 
ATOM     10  C   UNL     1      -0.696  10.090  18.008  0.00  0.00    +0.000 A 
ATOM     11  C   UNL     1      -1.405  11.275  18.226  0.00  0.00    +0.000 A 
ATOM     12  C   UNL     1      -0.732  12.394  18.702  0.00  0.00    +0.000 A 
ATOM     13  C   UNL     1       0.630  12.346  18.963  0.00  0.00    +0.000 A 
ATOM     14  C   UNL     1       1.336  11.160  18.749  0.00  0.00    +0.000 A 
BRANCH  12  15
ATOM     15  O   UNL     1      -1.383  13.569  18.936  0.00  0.00    +0.000 OA
ATOM     16  H   UNL     1      -0.998  13.986  19.724  0.00  0.00    +0.000 HD
ENDBRANCH  12  15
ENDBRANCH   8   9
ENDBRANCH   3   7
BRANCH   1  17
ATOM     17  O   UNL     1       3.186   3.922  18.953  0.00  0.00    +0.000 OA
BRANCH  17  19
ATOM     18  O   UNL     1       1.316   3.606  17.436  0.00  0.00    +0.000 OA
ATOM     19  S   UNL     1       1.717   3.242  18.807  0.00  0.00    +0.000 S 
ATOM     20  O   UNL     1       0.837   3.887  19.751  0.00  0.00    +0.000 OA
ATOM     21  O   UNL     1       1.917   1.803  18.923  0.00  0.00    +0.000 OA
ENDBRANCH  17  19
ENDBRANCH   1  17
BRANCH   5  22
ATOM     22  O   UNL     1       5.779   5.942  15.304  0.00  0.00    +0.000 OA
BRANCH  22  23
ATOM     23  S   UNL     1       6.974   4.840  15.142  0.00  0.00    +0.000 S 
ATOM     24  O   UNL     1       7.909   5.421  14.151  0.00  0.00    +0.000 OA
ATOM     25  O   UNL     1       7.541   4.730  16.491  0.00  0.00    +0.000 OA
ATOM     26  O   UNL     1       6.311   3.648  14.656  0.00  0.00    +0.000 OA
ENDBRANCH  22  23
ENDBRANCH   5  22
TORSDOF 7
ENDMDL
