MODEL 1
REMARK VINA RESULT:      -8.2      0.000      0.000
REMARK  Name = 
REMARK  9 active torsions:
REMARK  status: ('A' for Active; 'I' for Inactive)
REMARK    1  A    between atoms: C_1  and  C_2
REMARK    2  A    between atoms: C_4  and  C_5
REMARK    3  A    between atoms: C_10  and  N_11
REMARK    4  A    between atoms: C_13  and  C_14
REMARK    5  A    between atoms: N_16  and  C_17
REMARK    6  A    between atoms: N_16  and  C_21
REMARK    7  A    between atoms: C_17  and  C_18
REMARK    8  A    between atoms: C_18  and  O_20
REMARK    9  A    between atoms: C_21  and  C_22
REMARK                            x       y       z     vdW  Elec       q    Type
REMARK                         _______ _______ _______ _____ _____    ______ ____
ROOT
ATOM      1  C   UNL     1       1.863   3.562  19.005  0.00  0.00    +0.000 C 
ATOM      2  C   UNL     1       2.583   4.815  18.705  0.00  0.00    +0.000 A 
ATOM      3  O   UNL     1       1.900   5.903  19.174  0.00  0.00    +0.000 OA
ATOM      4  C   UNL     1       2.570   6.986  18.703  0.00  0.00    +0.000 A 
ATOM      5  N   UNL     1       3.656   6.678  18.031  0.00  0.00    +0.000 NA
ATOM      6  C   UNL     1       3.725   5.270  18.053  0.00  0.00    +0.000 A 
ENDROOT
BRANCH   4   7
ATOM      7  C   UNL     1       1.915   8.264  18.970  0.00  0.00    +0.000 A 
ATOM      8  C   UNL     1       1.849   9.219  17.935  0.00  0.00    +0.000 A 
ATOM      9  C   UNL     1       1.319  10.489  18.155  0.00  0.00    +0.000 A 
ATOM     10  C   UNL     1       0.849  10.823  19.418  0.00  0.00    +0.000 A 
ATOM     11  C   UNL     1       0.899   9.885  20.452  0.00  0.00    +0.000 A 
ATOM     12  C   UNL     1       1.392   8.586  20.239  0.00  0.00    +0.000 A 
BRANCH  12  13
ATOM     13  N   UNL     1       1.589   7.756  21.361  0.00  0.00    +0.000 N 
ATOM     14  H   UNL     1       0.877   7.044  21.483  0.00  0.00    +0.000 HD
ATOM     15  H   UNL     1       2.534   7.366  21.403  0.00  0.00    +0.000 HD
ENDBRANCH  12  13
ENDBRANCH   4   7
BRANCH   6  16
ATOM     16  C   UNL     1       4.842   4.598  17.341  0.00  0.00    +0.000 C 
ATOM     17  O   UNL     1       4.829   3.365  17.250  0.00  0.00    +0.000 OA
ATOM     18  N   UNL     1       5.900   5.309  16.722  0.00  0.00    +0.000 N 
BRANCH  18  19
ATOM     19  C   UNL     1       6.136   6.735  16.924  0.00  0.00    +0.000 C 
BRANCH  19  20
ATOM     20  C   UNL     1       7.335   7.343  17.648  0.00  0.00    +0.000 C 
ATOM     21  O   UNL     1       7.813   8.420  17.303  0.00  0.00    +0.000 OA
BRANCH  20  22
ATOM     22  O   UNL     1       7.931   6.583  18.578  0.00  0.00    +0.000 OA
ATOM     23  H   UNL     1       8.562   7.062  19.175  0.00  0.00    +0.000 HD
ENDBRANCH  20  22
ENDBRANCH  19  20
ENDBRANCH  18  19
BRANCH  18  24
ATOM     24  C   UNL     1       6.979   4.493  16.138  0.00  0.00    +0.000 C 
BRANCH  24  25
ATOM     25  C   UNL     1       7.005   4.539  14.617  0.00  0.00    +0.000 A 
ATOM     26  C   UNL     1       6.209   3.676  13.866  0.00  0.00    +0.000 A 
ATOM     27  C   UNL     1       6.298   3.708  12.475  0.00  0.00    +0.000 A 
ATOM     28  C   UNL     1       7.190   4.582  11.866  0.00  0.00    +0.000 A 
ATOM     29  C   UNL     1       7.959   5.394  12.678  0.00  0.00    +0.000 A 
ATOM     30  N   UNL     1       7.889   5.400  14.034  0.00  0.00    +0.000 NA
ENDBRANCH  24  25
ENDBRANCH  18  24
ENDBRANCH   6  16
TORSDOF 8
ENDMDL
MODEL 2
REMARK VINA RESULT:      -8.1      0.773      1.010
REMARK  Name = 
REMARK  9 active torsions:
REMARK  status: ('A' for Active; 'I' for Inactive)
REMARK    1  A    between atoms: C_1  and  C_2
REMARK    2  A    between atoms: C_4  and  C_5
REMARK    3  A    between atoms: C_10  and  N_11
REMARK    4  A    between atoms: C_13  and  C_14
REMARK    5  A    between atoms: N_16  and  C_17
REMARK    6  A    between atoms: N_16  and  C_21
REMARK    7  A    between atoms: C_17  and  C_18
REMARK    8  A    between atoms: C_18  and  O_20
REMARK    9  A    between atoms: C_21  and  C_22
REMARK                            x       y       z     vdW  Elec       q    Type
REMARK                         _______ _______ _______ _____ _____    ______ ____
ROOT
ATOM      1  C   UNL     1       3.121   3.844  20.443  0.00  0.00    +0.000 C 
ATOM      2  C   UNL     1       3.356   4.962  19.508  0.00  0.00    +0.000 A 
ATOM      3  O   UNL     1       2.614   6.059  19.853  0.00  0.00    +0.000 OA
ATOM      4  C   UNL     1       2.791   6.950  18.844  0.00  0.00    +0.000 A 
ATOM      5  N   UNL     1       3.631   6.538  17.922  0.00  0.00    +0.000 NA
ATOM      6  C   UNL     1       4.060   5.263  18.347  0.00  0.00    +0.000 A 
ENDROOT
BRANCH   4   7
ATOM      7  C   UNL     1       1.959   8.147  18.944  0.00  0.00    +0.000 A 
ATOM      8  C   UNL     1       1.729   8.910  17.781  0.00  0.00    +0.000 A 
ATOM      9  C   UNL     1       1.022  10.109  17.831  0.00  0.00    +0.000 A 
ATOM     10  C   UNL     1       0.536  10.565  19.049  0.00  0.00    +0.000 A 
ATOM     11  C   UNL     1       0.748   9.816  20.209  0.00  0.00    +0.000 A 
ATOM     12  C   UNL     1       1.423   8.584  20.172  0.00  0.00    +0.000 A 
BRANCH  12  13
ATOM     13  N   UNL     1       1.766   7.976  21.397  0.00  0.00    +0.000 N 
ATOM     14  H   UNL     1       0.971   7.678  21.951  0.00  0.00    +0.000 HD
ATOM     15  H   UNL     1       2.459   7.232  21.288  0.00  0.00    +0.000 HD
ENDBRANCH  12  13
ENDBRANCH   4   7
BRANCH   6  16
ATOM     16  C   UNL     1       5.009   4.507  17.491  0.00  0.00    +0.000 C 
ATOM     17  O   UNL     1       4.683   3.380  17.100  0.00  0.00    +0.000 OA
ATOM     18  N   UNL     1       6.252   5.035  17.063  0.00  0.00    +0.000 N 
BRANCH  18  19
ATOM     19  C   UNL     1       6.836   6.257  17.609  0.00  0.00    +0.000 C 
BRANCH  19  20
ATOM     20  C   UNL     1       7.766   6.334  18.817  0.00  0.00    +0.000 C 
ATOM     21  O   UNL     1       7.716   5.501  19.719  0.00  0.00    +0.000 OA
BRANCH  20  22
ATOM     22  O   UNL     1       8.534   7.428  18.923  0.00  0.00    +0.000 OA
ATOM     23  H   UNL     1       8.668   7.932  18.079  0.00  0.00    +0.000 HD
ENDBRANCH  20  22
ENDBRANCH  19  20
ENDBRANCH  18  19
BRANCH  18  24
ATOM     24  C   UNL     1       7.118   4.124  16.296  0.00  0.00    +0.000 C 
BRANCH  24  25
ATOM     25  C   UNL     1       7.057   4.367  14.794  0.00  0.00    +0.000 A 
ATOM     26  C   UNL     1       6.174   3.645  13.992  0.00  0.00    +0.000 A 
ATOM     27  C   UNL     1       6.184   3.855  12.614  0.00  0.00    +0.000 A 
ATOM     28  C   UNL     1       7.082   4.760  12.065  0.00  0.00    +0.000 A 
ATOM     29  C   UNL     1       7.940   5.425  12.923  0.00  0.00    +0.000 A 
ATOM     30  N   UNL     1       7.950   5.257  14.270  0.00  0.00    +0.000 NA
ENDBRANCH  24  25
ENDBRANCH  18  24
ENDBRANCH   6  16
TORSDOF 8
ENDMDL
MODEL 3
REMARK VINA RESULT:      -8.1      0.932      1.395
REMARK  Name = 
REMARK  9 active torsions:
REMARK  status: ('A' for Active; 'I' for Inactive)
REMARK    1  A    between atoms: C_1  and  C_2
REMARK    2  A    between atoms: C_4  and  C_5
REMARK    3  A    between atoms: C_10  and  N_11
REMARK    4  A    between atoms: C_13  and  C_14
REMARK    5  A    between atoms: N_16  and  C_17
REMARK    6  A    between atoms: N_16  and  C_21
REMARK    7  A    between atoms: C_17  and  C_18
REMARK    8  A    between atoms: C_18  and  O_20
REMARK    9  A    between atoms: C_21  and  C_22
REMARK                            x       y       z     vdW  Elec       q    Type
REMARK                         _______ _______ _______ _____ _____    ______ ____
ROOT
ATOM      1  C   UNL     1       1.542   3.286  18.214  0.00  0.00    +0.000 C 
ATOM      2  C   UNL     1       2.383   4.479  18.430  0.00  0.00    +0.000 A 
ATOM      3  O   UNL     1       1.701   5.448  19.113  0.00  0.00    +0.000 OA
ATOM      4  C   UNL     1       2.512   6.537  19.110  0.00  0.00    +0.000 A 
ATOM      5  N   UNL     1       3.676   6.321  18.540  0.00  0.00    +0.000 NA
ATOM      6  C   UNL     1       3.648   4.973  18.128  0.00  0.00    +0.000 A 
ENDROOT
BRANCH   4   7
ATOM      7  C   UNL     1       1.905   7.744  19.666  0.00  0.00    +0.000 A 
ATOM      8  C   UNL     1       1.430   7.713  20.993  0.00  0.00    +0.000 A 
ATOM      9  C   UNL     1       0.761   8.801  21.547  0.00  0.00    +0.000 A 
ATOM     10  C   UNL     1       0.553   9.939  20.779  0.00  0.00    +0.000 A 
ATOM     11  C   UNL     1       1.025   9.988  19.465  0.00  0.00    +0.000 A 
ATOM     12  C   UNL     1       1.739   8.917  18.901  0.00  0.00    +0.000 A 
BRANCH  12  13
ATOM     13  N   UNL     1       2.019   8.956  17.521  0.00  0.00    +0.000 N 
ATOM     14  H   UNL     1       1.719   8.133  17.011  0.00  0.00    +0.000 HD
ATOM     15  H   UNL     1       1.698   9.821  17.077  0.00  0.00    +0.000 HD
ENDBRANCH  12  13
ENDBRANCH   4   7
BRANCH   6  16
ATOM     16  C   UNL     1       4.826   4.420  17.412  0.00  0.00    +0.000 C 
ATOM     17  O   UNL     1       4.841   3.214  17.140  0.00  0.00    +0.000 OA
ATOM     18  N   UNL     1       5.914   5.221  16.984  0.00  0.00    +0.000 N 
BRANCH  18  19
ATOM     19  C   UNL     1       6.111   6.603  17.410  0.00  0.00    +0.000 C 
BRANCH  19  20
ATOM     20  C   UNL     1       7.447   7.233  17.794  0.00  0.00    +0.000 C 
ATOM     21  O   UNL     1       7.955   8.122  17.116  0.00  0.00    +0.000 OA
BRANCH  20  22
ATOM     22  O   UNL     1       8.109   6.674  18.817  0.00  0.00    +0.000 OA
ATOM     23  H   UNL     1       7.820   5.755  19.056  0.00  0.00    +0.000 HD
ENDBRANCH  20  22
ENDBRANCH  19  20
ENDBRANCH  18  19
BRANCH  18  24
ATOM     24  C   UNL     1       7.047   4.507  16.370  0.00  0.00    +0.000 C 
BRANCH  24  25
ATOM     25  C   UNL     1       7.042   4.577  14.849  0.00  0.00    +0.000 A 
ATOM     26  C   UNL     1       6.217   3.738  14.102  0.00  0.00    +0.000 A 
ATOM     27  C   UNL     1       6.278   3.791  12.710  0.00  0.00    +0.000 A 
ATOM     28  C   UNL     1       7.171   4.660  12.096  0.00  0.00    +0.000 A 
ATOM     29  C   UNL     1       7.970   5.447  12.905  0.00  0.00    +0.000 A 
ATOM     30  N   UNL     1       7.928   5.432  14.262  0.00  0.00    +0.000 NA
ENDBRANCH  24  25
ENDBRANCH  18  24
ENDBRANCH   6  16
TORSDOF 8
ENDMDL
MODEL 4
REMARK VINA RESULT:      -7.9      1.881      7.599
REMARK  Name = 
REMARK  9 active torsions:
REMARK  status: ('A' for Active; 'I' for Inactive)
REMARK    1  A    between atoms: C_1  and  C_2
REMARK    2  A    between atoms: C_4  and  C_5
REMARK    3  A    between atoms: C_10  and  N_11
REMARK    4  A    between atoms: C_13  and  C_14
REMARK    5  A    between atoms: N_16  and  C_17
REMARK    6  A    between atoms: N_16  and  C_21
REMARK    7  A    between atoms: C_17  and  C_18
REMARK    8  A    between atoms: C_18  and  O_20
REMARK    9  A    between atoms: C_21  and  C_22
REMARK                            x       y       z     vdW  Elec       q    Type
REMARK                         _______ _______ _______ _____ _____    ______ ____
ROOT
ATOM      1  C   UNL     1       7.707   7.419  17.431  0.00  0.00    +0.000 C 
ATOM      2  C   UNL     1       6.935   6.251  16.963  0.00  0.00    +0.000 A 
ATOM      3  O   UNL     1       7.309   5.885  15.699  0.00  0.00    +0.000 OA
ATOM      4  C   UNL     1       6.433   4.919  15.323  0.00  0.00    +0.000 A 
ATOM      5  N   UNL     1       5.575   4.596  16.266  0.00  0.00    +0.000 NA
ATOM      6  C   UNL     1       5.905   5.410  17.369  0.00  0.00    +0.000 A 
ENDROOT
BRANCH   4   7
ATOM      7  C   UNL     1       6.566   4.490  13.934  0.00  0.00    +0.000 A 
ATOM      8  C   UNL     1       5.683   3.507  13.442  0.00  0.00    +0.000 A 
ATOM      9  C   UNL     1       5.819   2.992  12.155  0.00  0.00    +0.000 A 
ATOM     10  C   UNL     1       6.845   3.452  11.340  0.00  0.00    +0.000 A 
ATOM     11  C   UNL     1       7.722   4.432  11.810  0.00  0.00    +0.000 A 
ATOM     12  C   UNL     1       7.576   4.994  13.090  0.00  0.00    +0.000 A 
BRANCH  12  13
ATOM     13  N   UNL     1       8.601   5.835  13.568  0.00  0.00    +0.000 N 
ATOM     14  H   UNL     1       8.711   5.825  14.576  0.00  0.00    +0.000 HD
ATOM     15  H   UNL     1       9.490   5.690  13.083  0.00  0.00    +0.000 HD
ENDBRANCH  12  13
ENDBRANCH   4   7
BRANCH   6  16
ATOM     16  C   UNL     1       5.087   5.303  18.604  0.00  0.00    +0.000 C 
ATOM     17  O   UNL     1       5.379   4.434  19.434  0.00  0.00    +0.000 OA
ATOM     18  N   UNL     1       4.014   6.182  18.898  0.00  0.00    +0.000 N 
BRANCH  18  19
ATOM     19  C   UNL     1       3.447   7.110  17.925  0.00  0.00    +0.000 C 
BRANCH  19  20
ATOM     20  C   UNL     1       2.426   8.203  18.230  0.00  0.00    +0.000 C 
ATOM     21  O   UNL     1       1.939   8.331  19.350  0.00  0.00    +0.000 OA
BRANCH  20  22
ATOM     22  O   UNL     1       1.977   8.920  17.190  0.00  0.00    +0.000 OA
ATOM     23  H   UNL     1       2.003   8.456  16.314  0.00  0.00    +0.000 HD
ENDBRANCH  20  22
ENDBRANCH  19  20
ENDBRANCH  18  19
BRANCH  18  24
ATOM     24  C   UNL     1       3.245   5.885  20.118  0.00  0.00    +0.000 C 
BRANCH  24  25
ATOM     25  C   UNL     1       2.325   4.681  19.964  0.00  0.00    +0.000 A 
ATOM     26  C   UNL     1       2.039   3.861  21.055  0.00  0.00    +0.000 A 
ATOM     27  C   UNL     1       1.237   2.737  20.866  0.00  0.00    +0.000 A 
ATOM     28  C   UNL     1       0.755   2.444  19.597  0.00  0.00    +0.000 A 
ATOM     29  C   UNL     1       1.097   3.295  18.562  0.00  0.00    +0.000 A 
ATOM     30  N   UNL     1       1.863   4.405  18.710  0.00  0.00    +0.000 NA
ENDBRANCH  24  25
ENDBRANCH  18  24
ENDBRANCH   6  16
TORSDOF 8
ENDMDL
MODEL 5
REMARK VINA RESULT:      -7.9      1.957      7.846
REMARK  Name = 
REMARK  9 active torsions:
REMARK  status: ('A' for Active; 'I' for Inactive)
REMARK    1  A    between atoms: C_1  and  C_2
REMARK    2  A    between atoms: C_4  and  C_5
REMARK    3  A    between atoms: C_10  and  N_11
REMARK    4  A    between atoms: C_13  and  C_14
REMARK    5  A    between atoms: N_16  and  C_17
REMARK    6  A    between atoms: N_16  and  C_21
REMARK    7  A    between atoms: C_17  and  C_18
REMARK    8  A    between atoms: C_18  and  O_20
REMARK    9  A    between atoms: C_21  and  C_22
REMARK                            x       y       z     vdW  Elec       q    Type
REMARK                         _______ _______ _______ _____ _____    ______ ____
ROOT
ATOM      1  C   UNL     1       3.948   1.762  18.057  0.00  0.00    +0.000 C 
ATOM      2  C   UNL     1       4.225   3.082  17.457  0.00  0.00    +0.000 A 
ATOM      3  O   UNL     1       4.737   2.954  16.195  0.00  0.00    +0.000 OA
ATOM      4  C   UNL     1       5.094   4.208  15.817  0.00  0.00    +0.000 A 
ATOM      5  N   UNL     1       4.794   5.128  16.706  0.00  0.00    +0.000 NA
ATOM      6  C   UNL     1       4.179   4.436  17.770  0.00  0.00    +0.000 A 
ENDROOT
BRANCH   4   7
ATOM      7  C   UNL     1       5.806   4.275  14.544  0.00  0.00    +0.000 A 
ATOM      8  C   UNL     1       5.343   3.489  13.468  0.00  0.00    +0.000 A 
ATOM      9  C   UNL     1       6.033   3.441  12.258  0.00  0.00    +0.000 A 
ATOM     10  C   UNL     1       7.201   4.177  12.109  0.00  0.00    +0.000 A 
ATOM     11  C   UNL     1       7.668   4.967  13.162  0.00  0.00    +0.000 A 
ATOM     12  C   UNL     1       6.964   5.061  14.375  0.00  0.00    +0.000 A 
BRANCH  12  13
ATOM     13  N   UNL     1       7.584   5.721  15.455  0.00  0.00    +0.000 N 
ATOM     14  H   UNL     1       8.244   5.148  15.969  0.00  0.00    +0.000 HD
ATOM     15  H   UNL     1       7.985   6.624  15.189  0.00  0.00    +0.000 HD
ENDBRANCH  12  13
ENDBRANCH   4   7
BRANCH   6  16
ATOM     16  C   UNL     1       3.743   5.205  18.964  0.00  0.00    +0.000 C 
ATOM     17  O   UNL     1       4.592   5.834  19.605  0.00  0.00    +0.000 OA
ATOM     18  N   UNL     1       2.389   5.287  19.376  0.00  0.00    +0.000 N 
BRANCH  18  19
ATOM     19  C   UNL     1       1.331   4.442  18.831  0.00  0.00    +0.000 C 
BRANCH  19  20
ATOM     20  C   UNL     1       0.928   3.069  19.364  0.00  0.00    +0.000 C 
ATOM     21  O   UNL     1       1.328   2.660  20.451  0.00  0.00    +0.000 OA
BRANCH  20  22
ATOM     22  O   UNL     1       0.243   2.273  18.531  0.00  0.00    +0.000 OA
ATOM     23  H   UNL     1       0.724   1.458  18.233  0.00  0.00    +0.000 HD
ENDBRANCH  20  22
ENDBRANCH  19  20
ENDBRANCH  18  19
BRANCH  18  24
ATOM     24  C   UNL     1       2.134   6.011  20.632  0.00  0.00    +0.000 C 
BRANCH  24  25
ATOM     25  C   UNL     1       1.662   7.442  20.411  0.00  0.00    +0.000 A 
ATOM     26  C   UNL     1       0.924   8.106  21.389  0.00  0.00    +0.000 A 
ATOM     27  C   UNL     1       0.461   9.395  21.131  0.00  0.00    +0.000 A 
ATOM     28  C   UNL     1       0.726   9.985  19.902  0.00  0.00    +0.000 A 
ATOM     29  C   UNL     1       1.449   9.256  18.975  0.00  0.00    +0.000 A 
ATOM     30  N   UNL     1       1.927   8.005  19.196  0.00  0.00    +0.000 NA
ENDBRANCH  24  25
ENDBRANCH  18  24
ENDBRANCH   6  16
TORSDOF 8
ENDMDL
MODEL 6
REMARK VINA RESULT:      -7.8      1.892      7.893
REMARK  Name = 
REMARK  9 active torsions:
REMARK  status: ('A' for Active; 'I' for Inactive)
REMARK    1  A    between atoms: C_1  and  C_2
REMARK    2  A    between atoms: C_4  and  C_5
REMARK    3  A    between atoms: C_10  and  N_11
REMARK    4  A    between atoms: C_13  and  C_14
REMARK    5  A    between atoms: N_16  and  C_17
REMARK    6  A    between atoms: N_16  and  C_21
REMARK    7  A    between atoms: C_17  and  C_18
REMARK    8  A    between atoms: C_18  and  O_20
REMARK    9  A    between atoms: C_21  and  C_22
REMARK                            x       y       z     vdW  Elec       q    Type
REMARK                         _______ _______ _______ _____ _____    ______ ____
ROOT
ATOM      1  C   UNL     1       3.824   1.780  18.005  0.00  0.00    +0.000 C 
ATOM      2  C   UNL     1       4.144   3.099  17.424  0.00  0.00    +0.000 A 
ATOM      3  O   UNL     1       4.662   2.971  16.164  0.00  0.00    +0.000 OA
ATOM      4  C   UNL     1       5.059   4.218  15.804  0.00  0.00    +0.000 A 
ATOM      5  N   UNL     1       4.777   5.136  16.701  0.00  0.00    +0.000 NA
ATOM      6  C   UNL     1       4.134   4.450  17.752  0.00  0.00    +0.000 A 
ENDROOT
BRANCH   4   7
ATOM      7  C   UNL     1       5.782   4.279  14.537  0.00  0.00    +0.000 A 
ATOM      8  C   UNL     1       5.311   3.513  13.451  0.00  0.00    +0.000 A 
ATOM      9  C   UNL     1       6.010   3.459  12.247  0.00  0.00    +0.000 A 
ATOM     10  C   UNL     1       7.196   4.170  12.113  0.00  0.00    +0.000 A 
ATOM     11  C   UNL     1       7.671   4.941  13.177  0.00  0.00    +0.000 A 
ATOM     12  C   UNL     1       6.959   5.041  14.384  0.00  0.00    +0.000 A 
BRANCH  12  13
ATOM     13  N   UNL     1       7.584   5.678  15.475  0.00  0.00    +0.000 N 
ATOM     14  H   UNL     1       7.084   6.487  15.828  0.00  0.00    +0.000 HD
ATOM     15  H   UNL     1       7.836   5.025  16.222  0.00  0.00    +0.000 HD
ENDBRANCH  12  13
ENDBRANCH   4   7
BRANCH   6  16
ATOM     16  C   UNL     1       3.710   5.217  18.951  0.00  0.00    +0.000 C 
ATOM     17  O   UNL     1       4.568   5.838  19.590  0.00  0.00    +0.000 OA
ATOM     18  N   UNL     1       2.360   5.307  19.372  0.00  0.00    +0.000 N 
BRANCH  18  19
ATOM     19  C   UNL     1       1.293   4.471  18.831  0.00  0.00    +0.000 C 
BRANCH  19  20
ATOM     20  C   UNL     1       0.797   3.160  19.437  0.00  0.00    +0.000 C 
ATOM     21  O   UNL     1       0.350   2.257  18.734  0.00  0.00    +0.000 OA
BRANCH  20  22
ATOM     22  O   UNL     1       0.733   3.097  20.775  0.00  0.00    +0.000 OA
ATOM     23  H   UNL     1       0.832   2.188  21.160  0.00  0.00    +0.000 HD
ENDBRANCH  20  22
ENDBRANCH  19  20
ENDBRANCH  18  19
BRANCH  18  24
ATOM     24  C   UNL     1       2.118   6.028  20.633  0.00  0.00    +0.000 C 
BRANCH  24  25
ATOM     25  C   UNL     1       1.578   7.435  20.421  0.00  0.00    +0.000 A 
ATOM     26  C   UNL     1       1.806   8.110  19.223  0.00  0.00    +0.000 A 
ATOM     27  C   UNL     1       1.344   9.418  19.083  0.00  0.00    +0.000 A 
ATOM     28  C   UNL     1       0.687  10.030  20.142  0.00  0.00    +0.000 A 
ATOM     29  C   UNL     1       0.515   9.302  21.305  0.00  0.00    +0.000 A 
ATOM     30  N   UNL     1       0.938   8.024  21.473  0.00  0.00    +0.000 NA
ENDBRANCH  24  25
ENDBRANCH  18  24
ENDBRANCH   6  16
TORSDOF 8
ENDMDL
MODEL 7
REMARK VINA RESULT:      -7.7      4.635      7.120
REMARK  Name = 
REMARK  9 active torsions:
REMARK  status: ('A' for Active; 'I' for Inactive)
REMARK    1  A    between atoms: C_1  and  C_2
REMARK    2  A    between atoms: C_4  and  C_5
REMARK    3  A    between atoms: C_10  and  N_11
REMARK    4  A    between atoms: C_13  and  C_14
REMARK    5  A    between atoms: N_16  and  C_17
REMARK    6  A    between atoms: N_16  and  C_21
REMARK    7  A    between atoms: C_17  and  C_18
REMARK    8  A    between atoms: C_18  and  O_20
REMARK    9  A    between atoms: C_21  and  C_22
REMARK                            x       y       z     vdW  Elec       q    Type
REMARK                         _______ _______ _______ _____ _____    ______ ____
ROOT
ATOM      1  C   UNL     1       1.636  12.309  19.649  0.00  0.00    +0.000 C 
ATOM      2  C   UNL     1       0.766  11.364  18.922  0.00  0.00    +0.000 A 
ATOM      3  O   UNL     1      -0.437  11.938  18.612  0.00  0.00    +0.000 OA
ATOM      4  C   UNL     1      -1.197  10.938  18.096  0.00  0.00    +0.000 A 
ATOM      5  N   UNL     1      -0.557   9.795  17.993  0.00  0.00    +0.000 NA
ATOM      6  C   UNL     1       0.743  10.047  18.476  0.00  0.00    +0.000 A 
ENDROOT
BRANCH   4   7
ATOM      7  C   UNL     1      -2.585  11.309  17.834  0.00  0.00    +0.000 A 
ATOM      8  C   UNL     1      -3.378  11.764  18.907  0.00  0.00    +0.000 A 
ATOM      9  C   UNL     1      -4.732  12.045  18.737  0.00  0.00    +0.000 A 
ATOM     10  C   UNL     1      -5.315  11.869  17.489  0.00  0.00    +0.000 A 
ATOM     11  C   UNL     1      -4.540  11.427  16.413  0.00  0.00    +0.000 A 
ATOM     12  C   UNL     1      -3.164  11.179  16.555  0.00  0.00    +0.000 A 
BRANCH  12  13
ATOM     13  N   UNL     1      -2.486  10.558  15.486  0.00  0.00    +0.000 N 
ATOM     14  H   UNL     1      -2.291  11.172  14.704  0.00  0.00    +0.000 HD
ATOM     15  H   UNL     1      -1.654  10.046  15.791  0.00  0.00    +0.000 HD
ENDBRANCH  12  13
ENDBRANCH   4   7
BRANCH   6  16
ATOM     16  C   UNL     1       1.719   8.928  18.519  0.00  0.00    +0.000 C 
ATOM     17  O   UNL     1       2.443   8.736  17.535  0.00  0.00    +0.000 OA
ATOM     18  N   UNL     1       1.890   8.097  19.654  0.00  0.00    +0.000 N 
BRANCH  18  19
ATOM     19  C   UNL     1       0.974   8.090  20.790  0.00  0.00    +0.000 C 
BRANCH  19  20
ATOM     20  C   UNL     1       0.942   9.124  21.912  0.00  0.00    +0.000 C 
ATOM     21  O   UNL     1       1.964   9.457  22.507  0.00  0.00    +0.000 OA
BRANCH  20  22
ATOM     22  O   UNL     1      -0.265   9.543  22.318  0.00  0.00    +0.000 OA
ATOM     23  H   UNL     1      -0.770   8.897  22.877  0.00  0.00    +0.000 HD
ENDBRANCH  20  22
ENDBRANCH  19  20
ENDBRANCH  18  19
BRANCH  18  24
ATOM     24  C   UNL     1       2.831   6.974  19.503  0.00  0.00    +0.000 C 
BRANCH  24  25
ATOM     25  C   UNL     1       2.138   5.620  19.434  0.00  0.00    +0.000 A 
ATOM     26  C   UNL     1       1.746   4.963  20.599  0.00  0.00    +0.000 A 
ATOM     27  C   UNL     1       1.163   3.700  20.502  0.00  0.00    +0.000 A 
ATOM     28  C   UNL     1       1.002   3.114  19.254  0.00  0.00    +0.000 A 
ATOM     29  C   UNL     1       1.433   3.820  18.145  0.00  0.00    +0.000 A 
ATOM     30  N   UNL     1       1.992   5.056  18.200  0.00  0.00    +0.000 NA
ENDBRANCH  24  25
ENDBRANCH  18  24
ENDBRANCH   6  16
TORSDOF 8
ENDMDL
MODEL 8
REMARK VINA RESULT:      -7.6      1.533      1.939
REMARK  Name = 
REMARK  9 active torsions:
REMARK  status: ('A' for Active; 'I' for Inactive)
REMARK    1  A    between atoms: C_1  and  C_2
REMARK    2  A    between atoms: C_4  and  C_5
REMARK    3  A    between atoms: C_10  and  N_11
REMARK    4  A    between atoms: C_13  and  C_14
REMARK    5  A    between atoms: N_16  and  C_17
REMARK    6  A    between atoms: N_16  and  C_21
REMARK    7  A    between atoms: C_17  and  C_18
REMARK    8  A    between atoms: C_18  and  O_20
REMARK    9  A    between atoms: C_21  and  C_22
REMARK                            x       y       z     vdW  Elec       q    Type
REMARK                         _______ _______ _______ _____ _____    ______ ____
ROOT
ATOM      1  C   UNL     1       3.192   3.574  20.814  0.00  0.00    +0.000 C 
ATOM      2  C   UNL     1       3.149   4.672  19.829  0.00  0.00    +0.000 A 
ATOM      3  O   UNL     1       2.641   5.814  20.384  0.00  0.00    +0.000 OA
ATOM      4  C   UNL     1       2.503   6.690  19.356  0.00  0.00    +0.000 A 
ATOM      5  N   UNL     1       2.941   6.222  18.208  0.00  0.00    +0.000 NA
ATOM      6  C   UNL     1       3.416   4.925  18.488  0.00  0.00    +0.000 A 
ENDROOT
BRANCH   4   7
ATOM      7  C   UNL     1       1.831   7.937  19.710  0.00  0.00    +0.000 A 
ATOM      8  C   UNL     1       1.255   8.054  20.992  0.00  0.00    +0.000 A 
ATOM      9  C   UNL     1       0.523   9.183  21.355  0.00  0.00    +0.000 A 
ATOM     10  C   UNL     1       0.353  10.211  20.438  0.00  0.00    +0.000 A 
ATOM     11  C   UNL     1       0.925  10.113  19.167  0.00  0.00    +0.000 A 
ATOM     12  C   UNL     1       1.702   9.002  18.796  0.00  0.00    +0.000 A 
BRANCH  12  13
ATOM     13  N   UNL     1       2.088   8.881  17.446  0.00  0.00    +0.000 N 
ATOM     14  H   UNL     1       2.706   9.617  17.122  0.00  0.00    +0.000 HD
ATOM     15  H   UNL     1       2.448   7.950  17.221  0.00  0.00    +0.000 HD
ENDBRANCH  12  13
ENDBRANCH   4   7
BRANCH   6  16
ATOM     16  C   UNL     1       3.957   4.107  17.372  0.00  0.00    +0.000 C 
ATOM     17  O   UNL     1       3.254   3.203  16.906  0.00  0.00    +0.000 OA
ATOM     18  N   UNL     1       5.226   4.344  16.786  0.00  0.00    +0.000 N 
BRANCH  18  19
ATOM     19  C   UNL     1       6.223   5.238  17.366  0.00  0.00    +0.000 C 
BRANCH  19  20
ATOM     20  C   UNL     1       7.372   4.816  18.279  0.00  0.00    +0.000 C 
ATOM     21  O   UNL     1       7.471   5.245  19.425  0.00  0.00    +0.000 OA
BRANCH  20  22
ATOM     22  O   UNL     1       8.344   4.076  17.727  0.00  0.00    +0.000 OA
ATOM     23  H   UNL     1       8.702   3.352  18.302  0.00  0.00    +0.000 HD
ENDBRANCH  20  22
ENDBRANCH  19  20
ENDBRANCH  18  19
BRANCH  18  24
ATOM     24  C   UNL     1       5.655   3.387  15.753  0.00  0.00    +0.000 C 
BRANCH  24  25
ATOM     25  C   UNL     1       6.330   4.056  14.564  0.00  0.00    +0.000 A 
ATOM     26  C   UNL     1       6.040   3.650  13.262  0.00  0.00    +0.000 A 
ATOM     27  C   UNL     1       6.716   4.248  12.199  0.00  0.00    +0.000 A 
ATOM     28  C   UNL     1       7.676   5.217  12.456  0.00  0.00    +0.000 A 
ATOM     29  C   UNL     1       7.922   5.553  13.775  0.00  0.00    +0.000 A 
ATOM     30  N   UNL     1       7.274   5.004  14.834  0.00  0.00    +0.000 NA
ENDBRANCH  24  25
ENDBRANCH  18  24
ENDBRANCH   6  16
TORSDOF 8
ENDMDL
MODEL 9
REMARK VINA RESULT:      -7.5      0.649      1.159
REMARK  Name = 
REMARK  9 active torsions:
REMARK  status: ('A' for Active; 'I' for Inactive)
REMARK    1  A    between atoms: C_1  and  C_2
REMARK    2  A    between atoms: C_4  and  C_5
REMARK    3  A    between atoms: C_10  and  N_11
REMARK    4  A    between atoms: C_13  and  C_14
REMARK    5  A    between atoms: N_16  and  C_17
REMARK    6  A    between atoms: N_16  and  C_21
REMARK    7  A    between atoms: C_17  and  C_18
REMARK    8  A    between atoms: C_18  and  O_20
REMARK    9  A    between atoms: C_21  and  C_22
REMARK                            x       y       z     vdW  Elec       q    Type
REMARK                         _______ _______ _______ _____ _____    ______ ____
ROOT
ATOM      1  C   UNL     1       1.551   3.584  17.980  0.00  0.00    +0.000 C 
ATOM      2  C   UNL     1       2.398   4.791  18.029  0.00  0.00    +0.000 A 
ATOM      3  O   UNL     1       1.728   5.844  18.589  0.00  0.00    +0.000 OA
ATOM      4  C   UNL     1       2.541   6.919  18.434  0.00  0.00    +0.000 A 
ATOM      5  N   UNL     1       3.697   6.626  17.881  0.00  0.00    +0.000 NA
ATOM      6  C   UNL     1       3.660   5.235  17.649  0.00  0.00    +0.000 A 
ENDROOT
BRANCH   4   7
ATOM      7  C   UNL     1       1.946   8.190  18.836  0.00  0.00    +0.000 A 
ATOM      8  C   UNL     1       1.888   9.239  17.895  0.00  0.00    +0.000 A 
ATOM      9  C   UNL     1       1.416  10.501  18.247  0.00  0.00    +0.000 A 
ATOM     10  C   UNL     1       0.996  10.735  19.550  0.00  0.00    +0.000 A 
ATOM     11  C   UNL     1       1.038   9.703  20.492  0.00  0.00    +0.000 A 
ATOM     12  C   UNL     1       1.472   8.412  20.146  0.00  0.00    +0.000 A 
BRANCH  12  13
ATOM     13  N   UNL     1       1.668   7.476  21.181  0.00  0.00    +0.000 N 
ATOM     14  H   UNL     1       1.387   7.805  22.098  0.00  0.00    +0.000 HD
ATOM     15  H   UNL     1       1.271   6.558  20.963  0.00  0.00    +0.000 HD
ENDBRANCH  12  13
ENDBRANCH   4   7
BRANCH   6  16
ATOM     16  C   UNL     1       4.827   4.589  16.995  0.00  0.00    +0.000 C 
ATOM     17  O   UNL     1       4.806   3.365  16.824  0.00  0.00    +0.000 OA
ATOM     18  N   UNL     1       5.944   5.318  16.517  0.00  0.00    +0.000 N 
BRANCH  18  19
ATOM     19  C   UNL     1       6.181   6.724  16.831  0.00  0.00    +0.000 C 
BRANCH  19  20
ATOM     20  C   UNL     1       7.398   7.277  17.568  0.00  0.00    +0.000 C 
ATOM     21  O   UNL     1       7.890   6.687  18.526  0.00  0.00    +0.000 OA
BRANCH  20  22
ATOM     22  O   UNL     1       7.812   8.503  17.219  0.00  0.00    +0.000 OA
ATOM     23  H   UNL     1       7.341   9.252  17.667  0.00  0.00    +0.000 HD
ENDBRANCH  20  22
ENDBRANCH  19  20
ENDBRANCH  18  19
BRANCH  18  24
ATOM     24  C   UNL     1       7.059   4.521  15.978  0.00  0.00    +0.000 C 
BRANCH  24  25
ATOM     25  C   UNL     1       7.061   4.449  14.457  0.00  0.00    +0.000 A 
ATOM     26  C   UNL     1       7.826   5.339  13.705  0.00  0.00    +0.000 A 
ATOM     27  C   UNL     1       7.761   5.280  12.313  0.00  0.00    +0.000 A 
ATOM     28  C   UNL     1       6.925   4.353  11.705  0.00  0.00    +0.000 A 
ATOM     29  C   UNL     1       6.182   3.517  12.519  0.00  0.00    +0.000 A 
ATOM     30  N   UNL     1       6.230   3.536  13.875  0.00  0.00    +0.000 NA
ENDBRANCH  24  25
ENDBRANCH  18  24
ENDBRANCH   6  16
TORSDOF 8
ENDMDL
