MODEL 1
REMARK VINA RESULT:      -8.2      0.000      0.000
REMARK  Name = 
REMARK  11 active torsions:
REMARK  status: ('A' for Active; 'I' for Inactive)
REMARK    1  A    between atoms: C_1  and  O_2
REMARK    2  A    between atoms: O_2  and  C_3
REMARK    3  A    between atoms: C_6  and  N_7
REMARK    4  A    between atoms: N_7  and  C_8
REMARK    5  A    between atoms: N_7  and  C_9
REMARK    6  A    between atoms: C_11  and  C_12
REMARK    7  A    between atoms: C_21  and  N_22
REMARK    8  A    between atoms: C_23  and  C_25
REMARK    9  A    between atoms: C_25  and  C_26
REMARK   10  A    between atoms: C_26  and  C_27
REMARK   11  A    between atoms: C_27  and  C_28
REMARK                            x       y       z     vdW  Elec       q    Type
REMARK                         _______ _______ _______ _____ _____    ______ ____
ROOT
ATOM      1  C   UNL     1       6.825   5.017  15.219  0.00  0.00    +0.000 A 
ATOM      2  C   UNL     1       6.188   3.806  14.936  0.00  0.00    +0.000 A 
ATOM      3  C   UNL     1       5.234   3.249  15.846  0.00  0.00    +0.000 A 
ATOM      4  C   UNL     1       4.908   3.869  17.082  0.00  0.00    +0.000 A 
ATOM      5  C   UNL     1       5.523   5.121  17.309  0.00  0.00    +0.000 A 
ATOM      6  C   UNL     1       6.443   5.714  16.390  0.00  0.00    +0.000 A 
ENDROOT
BRANCH   6   7
ATOM      7  N   UNL     1       7.052   7.004  16.588  0.00  0.00    +0.000 N 
ATOM      8  C   UNL     1       7.761   7.440  17.703  0.00  0.00    +0.000 C 
ATOM      9  O   UNL     1       7.954   6.790  18.706  0.00  0.00    +0.000 OA
ATOM     10  H   UNL     1       6.815   7.681  15.864  0.00  0.00    +0.000 HD
BRANCH   8  11
ATOM     11  C   UNL     1       8.357   8.833  17.599  0.00  0.00    +0.000 C 
BRANCH  11  12
ATOM     12  C   UNL     1       8.804   9.467  18.920  0.00  0.00    +0.000 C 
BRANCH  12  13
ATOM     13  C   UNL     1       9.503  10.820  18.740  0.00  0.00    +0.000 C 
BRANCH  13  14
ATOM     14  C   UNL     1      10.288  11.277  19.971  0.00  0.00    +0.000 C 
ATOM     15 CL   UNL     1      11.959  11.740  19.571  0.00  0.00    +0.000 Cl
ENDBRANCH  13  14
ENDBRANCH  12  13
ENDBRANCH  11  12
ENDBRANCH   8  11
ENDBRANCH   6   7
BRANCH   1  17
ATOM     16  C   UNL     1       7.933   5.169  13.085  0.00  0.00    +0.000 C 
ATOM     17  O   UNL     1       7.785   5.619  14.438  0.00  0.00    +0.000 OA
ENDBRANCH   1  17
BRANCH   4  18
ATOM     18  N   UNL     1       3.976   3.233  18.030  0.00  0.00    +0.000 N 
ATOM     19  C   UNL     1       2.879   2.593  17.317  0.00  0.00    +0.000 C 
BRANCH  18  20
ATOM     20  C   UNL     1       3.616   3.819  19.319  0.00  0.00    +0.000 A 
ATOM     21  C   UNL     1       3.495   2.878  20.327  0.00  0.00    +0.000 A 
ATOM     22  C   UNL     1       2.208   2.841  20.792  0.00  0.00    +0.000 A 
ATOM     23  C   UNL     1       1.138   2.298  19.862  0.00  0.00    +0.000 C 
ATOM     24  N   UNL     1       1.775   3.940  21.392  0.00  0.00    +0.000 NA
ATOM     25  C   UNL     1       2.038   5.062  20.742  0.00  0.00    +0.000 A 
ATOM     26  C   UNL     1       1.164   6.073  21.116  0.00  0.00    +0.000 A 
ATOM     27  C   UNL     1       1.250   7.351  20.603  0.00  0.00    +0.000 A 
ATOM     28  C   UNL     1       2.276   7.608  19.713  0.00  0.00    +0.000 A 
ATOM     29  C   UNL     1       3.096   6.543  19.214  0.00  0.00    +0.000 A 
ATOM     30  C   UNL     1       2.984   5.160  19.661  0.00  0.00    +0.000 A 
ENDBRANCH  18  20
ENDBRANCH   4  18
TORSDOF 8
ENDMDL
MODEL 2
REMARK VINA RESULT:      -8.0      5.185      8.426
REMARK  Name = 
REMARK  11 active torsions:
REMARK  status: ('A' for Active; 'I' for Inactive)
REMARK    1  A    between atoms: C_1  and  O_2
REMARK    2  A    between atoms: O_2  and  C_3
REMARK    3  A    between atoms: C_6  and  N_7
REMARK    4  A    between atoms: N_7  and  C_8
REMARK    5  A    between atoms: N_7  and  C_9
REMARK    6  A    between atoms: C_11  and  C_12
REMARK    7  A    between atoms: C_21  and  N_22
REMARK    8  A    between atoms: C_23  and  C_25
REMARK    9  A    between atoms: C_25  and  C_26
REMARK   10  A    between atoms: C_26  and  C_27
REMARK   11  A    between atoms: C_27  and  C_28
REMARK                            x       y       z     vdW  Elec       q    Type
REMARK                         _______ _______ _______ _____ _____    ______ ____
ROOT
ATOM      1  C   UNL     1       2.668   7.333  18.335  0.00  0.00    +0.000 A 
ATOM      2  C   UNL     1       2.388   8.578  17.767  0.00  0.00    +0.000 A 
ATOM      3  C   UNL     1       1.665   9.573  18.498  0.00  0.00    +0.000 A 
ATOM      4  C   UNL     1       1.175   9.346  19.812  0.00  0.00    +0.000 A 
ATOM      5  C   UNL     1       1.528   8.101  20.381  0.00  0.00    +0.000 A 
ATOM      6  C   UNL     1       2.288   7.114  19.681  0.00  0.00    +0.000 A 
ENDROOT
BRANCH   6   7
ATOM      7  N   UNL     1       2.687   5.855  20.257  0.00  0.00    +0.000 N 
ATOM      8  C   UNL     1       1.863   4.796  20.623  0.00  0.00    +0.000 C 
ATOM      9  O   UNL     1       0.656   4.786  20.530  0.00  0.00    +0.000 OA
ATOM     10  H   UNL     1       3.672   5.823  20.519  0.00  0.00    +0.000 HD
BRANCH   8  11
ATOM     11  C   UNL     1       2.575   3.557  21.138  0.00  0.00    +0.000 C 
BRANCH  11  12
ATOM     12  C   UNL     1       1.989   2.216  20.687  0.00  0.00    +0.000 C 
BRANCH  12  13
ATOM     13  C   UNL     1       1.979   2.037  19.164  0.00  0.00    +0.000 C 
BRANCH  13  14
ATOM     14  C   UNL     1       3.348   1.692  18.576  0.00  0.00    +0.000 C 
ATOM     15 CL   UNL     1       3.967   2.976  17.511  0.00  0.00    +0.000 Cl
ENDBRANCH  13  14
ENDBRANCH  12  13
ENDBRANCH  11  12
ENDBRANCH   8  11
ENDBRANCH   6   7
BRANCH   1  17
ATOM     16  C   UNL     1       4.536   6.581  17.012  0.00  0.00    +0.000 C 
ATOM     17  O   UNL     1       3.316   6.294  17.709  0.00  0.00    +0.000 OA
ENDBRANCH   1  17
BRANCH   4  18
ATOM     18  N   UNL     1       0.371  10.365  20.511  0.00  0.00    +0.000 N 
ATOM     19  C   UNL     1      -0.124   9.843  21.778  0.00  0.00    +0.000 C 
BRANCH  18  20
ATOM     20  C   UNL     1      -0.535  11.284  19.826  0.00  0.00    +0.000 A 
ATOM     21  C   UNL     1      -0.503  12.565  20.349  0.00  0.00    +0.000 A 
ATOM     22  C   UNL     1      -1.721  12.893  20.880  0.00  0.00    +0.000 A 
ATOM     23  C   UNL     1      -2.164  12.161  22.134  0.00  0.00    +0.000 C 
ATOM     24  N   UNL     1      -2.727  12.975  20.020  0.00  0.00    +0.000 NA
ATOM     25  C   UNL     1      -2.809  11.963  19.172  0.00  0.00    +0.000 A 
ATOM     26  C   UNL     1      -4.097  11.834  18.672  0.00  0.00    +0.000 A 
ATOM     27  C   UNL     1      -4.435  10.870  17.744  0.00  0.00    +0.000 A 
ATOM     28  C   UNL     1      -3.423  10.044  17.292  0.00  0.00    +0.000 A 
ATOM     29  C   UNL     1      -2.125  10.076  17.901  0.00  0.00    +0.000 A 
ATOM     30  C   UNL     1      -1.747  11.017  18.947  0.00  0.00    +0.000 A 
ENDBRANCH  18  20
ENDBRANCH   4  18
TORSDOF 8
ENDMDL
MODEL 3
REMARK VINA RESULT:      -7.6      4.495      7.242
REMARK  Name = 
REMARK  11 active torsions:
REMARK  status: ('A' for Active; 'I' for Inactive)
REMARK    1  A    between atoms: C_1  and  O_2
REMARK    2  A    between atoms: O_2  and  C_3
REMARK    3  A    between atoms: C_6  and  N_7
REMARK    4  A    between atoms: N_7  and  C_8
REMARK    5  A    between atoms: N_7  and  C_9
REMARK    6  A    between atoms: C_11  and  C_12
REMARK    7  A    between atoms: C_21  and  N_22
REMARK    8  A    between atoms: C_23  and  C_25
REMARK    9  A    between atoms: C_25  and  C_26
REMARK   10  A    between atoms: C_26  and  C_27
REMARK   11  A    between atoms: C_27  and  C_28
REMARK                            x       y       z     vdW  Elec       q    Type
REMARK                         _______ _______ _______ _____ _____    ______ ____
ROOT
ATOM      1  C   UNL     1       3.386   5.786  19.097  0.00  0.00    +0.000 A 
ATOM      2  C   UNL     1       2.449   6.304  19.995  0.00  0.00    +0.000 A 
ATOM      3  C   UNL     1       1.772   7.535  19.721  0.00  0.00    +0.000 A 
ATOM      4  C   UNL     1       2.030   8.302  18.553  0.00  0.00    +0.000 A 
ATOM      5  C   UNL     1       2.936   7.720  17.637  0.00  0.00    +0.000 A 
ATOM      6  C   UNL     1       3.587   6.470  17.875  0.00  0.00    +0.000 A 
ENDROOT
BRANCH   6   7
ATOM      7  N   UNL     1       4.485   5.846  16.938  0.00  0.00    +0.000 N 
ATOM      8  C   UNL     1       5.770   6.257  16.599  0.00  0.00    +0.000 C 
ATOM      9  O   UNL     1       6.327   7.240  17.035  0.00  0.00    +0.000 OA
ATOM     10  H   UNL     1       4.053   5.096  16.399  0.00  0.00    +0.000 HD
BRANCH   8  11
ATOM     11  C   UNL     1       6.515   5.354  15.631  0.00  0.00    +0.000 C 
BRANCH  11  12
ATOM     12  C   UNL     1       5.675   4.748  14.504  0.00  0.00    +0.000 C 
BRANCH  12  13
ATOM     13  C   UNL     1       6.476   4.482  13.223  0.00  0.00    +0.000 C 
BRANCH  13  14
ATOM     14  C   UNL     1       6.043   3.218  12.477  0.00  0.00    +0.000 C 
ATOM     15 CL   UNL     1       4.428   3.385  11.750  0.00  0.00    +0.000 Cl
ENDBRANCH  13  14
ENDBRANCH  12  13
ENDBRANCH  11  12
ENDBRANCH   8  11
ENDBRANCH   6   7
BRANCH   1  17
ATOM     16  C   UNL     1       3.471   3.507  19.873  0.00  0.00    +0.000 C 
ATOM     17  O   UNL     1       4.122   4.638  19.281  0.00  0.00    +0.000 OA
ENDBRANCH   1  17
BRANCH   4  18
ATOM     18  N   UNL     1       1.370   9.601  18.335  0.00  0.00    +0.000 N 
ATOM     19  C   UNL     1       2.356  10.673  18.287  0.00  0.00    +0.000 C 
BRANCH  18  20
ATOM     20  C   UNL     1       0.092   9.966  18.940  0.00  0.00    +0.000 A 
ATOM     21  C   UNL     1      -0.795  10.528  18.038  0.00  0.00    +0.000 A 
ATOM     22  C   UNL     1      -1.074  11.821  18.387  0.00  0.00    +0.000 A 
ATOM     23  C   UNL     1       0.040  12.843  18.258  0.00  0.00    +0.000 C 
ATOM     24  N   UNL     1      -1.715  11.987  19.536  0.00  0.00    +0.000 NA
ATOM     25  C   UNL     1      -1.218  11.294  20.547  0.00  0.00    +0.000 A 
ATOM     26  C   UNL     1      -1.567  11.865  21.763  0.00  0.00    +0.000 A 
ATOM     27  C   UNL     1      -1.196  11.312  22.971  0.00  0.00    +0.000 A 
ATOM     28  C   UNL     1      -0.483  10.128  22.934  0.00  0.00    +0.000 A 
ATOM     29  C   UNL     1       0.001   9.605  21.690  0.00  0.00    +0.000 A 
ATOM     30  C   UNL     1      -0.290  10.204  20.393  0.00  0.00    +0.000 A 
ENDBRANCH  18  20
ENDBRANCH   4  18
TORSDOF 8
ENDMDL
MODEL 4
REMARK VINA RESULT:      -7.6      4.740      7.567
REMARK  Name = 
REMARK  11 active torsions:
REMARK  status: ('A' for Active; 'I' for Inactive)
REMARK    1  A    between atoms: C_1  and  O_2
REMARK    2  A    between atoms: O_2  and  C_3
REMARK    3  A    between atoms: C_6  and  N_7
REMARK    4  A    between atoms: N_7  and  C_8
REMARK    5  A    between atoms: N_7  and  C_9
REMARK    6  A    between atoms: C_11  and  C_12
REMARK    7  A    between atoms: C_21  and  N_22
REMARK    8  A    between atoms: C_23  and  C_25
REMARK    9  A    between atoms: C_25  and  C_26
REMARK   10  A    between atoms: C_26  and  C_27
REMARK   11  A    between atoms: C_27  and  C_28
REMARK                            x       y       z     vdW  Elec       q    Type
REMARK                         _______ _______ _______ _____ _____    ______ ____
ROOT
ATOM      1  C   UNL     1       0.826   9.467  18.868  0.00  0.00    +0.000 A 
ATOM      2  C   UNL     1       1.476   9.234  17.654  0.00  0.00    +0.000 A 
ATOM      3  C   UNL     1       2.525   8.266  17.557  0.00  0.00    +0.000 A 
ATOM      4  C   UNL     1       2.977   7.518  18.676  0.00  0.00    +0.000 A 
ATOM      5  C   UNL     1       2.259   7.732  19.875  0.00  0.00    +0.000 A 
ATOM      6  C   UNL     1       1.179   8.663  19.978  0.00  0.00    +0.000 A 
ENDROOT
BRANCH   6   7
ATOM      7  N   UNL     1       0.414   8.869  21.181  0.00  0.00    +0.000 N 
ATOM      8  C   UNL     1       0.882   9.309  22.414  0.00  0.00    +0.000 C 
ATOM      9  O   UNL     1       2.037   9.568  22.671  0.00  0.00    +0.000 OA
ATOM     10  H   UNL     1      -0.546   8.532  21.114  0.00  0.00    +0.000 HD
BRANCH   8  11
ATOM     11  C   UNL     1      -0.175   9.506  23.487  0.00  0.00    +0.000 C 
BRANCH  11  12
ATOM     12  C   UNL     1      -1.314  10.466  23.131  0.00  0.00    +0.000 C 
BRANCH  12  13
ATOM     13  C   UNL     1      -0.826  11.830  22.627  0.00  0.00    +0.000 C 
BRANCH  13  14
ATOM     14  C   UNL     1      -1.582  13.016  23.230  0.00  0.00    +0.000 C 
ATOM     15 CL   UNL     1      -3.221  12.570  23.762  0.00  0.00    +0.000 Cl
ENDBRANCH  13  14
ENDBRANCH  12  13
ENDBRANCH  11  12
ENDBRANCH   8  11
ENDBRANCH   6   7
BRANCH   1  17
ATOM     16  C   UNL     1       0.199  11.787  19.036  0.00  0.00    +0.000 C 
ATOM     17  O   UNL     1      -0.162  10.401  19.083  0.00  0.00    +0.000 OA
ENDBRANCH   1  17
BRANCH   4  18
ATOM     18  N   UNL     1       4.108   6.581  18.559  0.00  0.00    +0.000 N 
ATOM     19  C   UNL     1       4.929   6.913  17.403  0.00  0.00    +0.000 C 
BRANCH  18  20
ATOM     20  C   UNL     1       4.004   5.153  18.852  0.00  0.00    +0.000 A 
ATOM     21  C   UNL     1       5.122   4.437  18.461  0.00  0.00    +0.000 A 
ATOM     22  C   UNL     1       4.791   3.532  17.488  0.00  0.00    +0.000 A 
ATOM     23  C   UNL     1       4.396   4.074  16.126  0.00  0.00    +0.000 C 
ATOM     24  N   UNL     1       3.962   2.565  17.852  0.00  0.00    +0.000 NA
ATOM     25  C   UNL     1       2.904   2.975  18.532  0.00  0.00    +0.000 A 
ATOM     26  C   UNL     1       1.866   2.058  18.441  0.00  0.00    +0.000 A 
ATOM     27  C   UNL     1       0.661   2.240  19.089  0.00  0.00    +0.000 A 
ATOM     28  C   UNL     1       0.530   3.369  19.877  0.00  0.00    +0.000 A 
ATOM     29  C   UNL     1       1.539   4.388  19.868  0.00  0.00    +0.000 A 
ATOM     30  C   UNL     1       2.790   4.280  19.129  0.00  0.00    +0.000 A 
ENDBRANCH  18  20
ENDBRANCH   4  18
TORSDOF 8
ENDMDL
MODEL 5
REMARK VINA RESULT:      -7.5      4.584      7.353
REMARK  Name = 
REMARK  11 active torsions:
REMARK  status: ('A' for Active; 'I' for Inactive)
REMARK    1  A    between atoms: C_1  and  O_2
REMARK    2  A    between atoms: O_2  and  C_3
REMARK    3  A    between atoms: C_6  and  N_7
REMARK    4  A    between atoms: N_7  and  C_8
REMARK    5  A    between atoms: N_7  and  C_9
REMARK    6  A    between atoms: C_11  and  C_12
REMARK    7  A    between atoms: C_21  and  N_22
REMARK    8  A    between atoms: C_23  and  C_25
REMARK    9  A    between atoms: C_25  and  C_26
REMARK   10  A    between atoms: C_26  and  C_27
REMARK   11  A    between atoms: C_27  and  C_28
REMARK                            x       y       z     vdW  Elec       q    Type
REMARK                         _______ _______ _______ _____ _____    ______ ____
ROOT
ATOM      1  C   UNL     1       2.653   5.388  19.251  0.00  0.00    +0.000 A 
ATOM      2  C   UNL     1       1.907   5.442  20.431  0.00  0.00    +0.000 A 
ATOM      3  C   UNL     1       1.380   6.683  20.910  0.00  0.00    +0.000 A 
ATOM      4  C   UNL     1       1.605   7.915  20.240  0.00  0.00    +0.000 A 
ATOM      5  C   UNL     1       2.309   7.818  19.018  0.00  0.00    +0.000 A 
ATOM      6  C   UNL     1       2.804   6.580  18.502  0.00  0.00    +0.000 A 
ENDROOT
BRANCH   6   7
ATOM      7  N   UNL     1       3.493   6.457  17.243  0.00  0.00    +0.000 N 
ATOM      8  C   UNL     1       4.864   6.523  17.022  0.00  0.00    +0.000 C 
ATOM      9  O   UNL     1       5.700   6.723  17.875  0.00  0.00    +0.000 OA
ATOM     10  H   UNL     1       2.867   6.439  16.438  0.00  0.00    +0.000 HD
BRANCH   8  11
ATOM     11  C   UNL     1       5.312   6.281  15.591  0.00  0.00    +0.000 C 
BRANCH  11  12
ATOM     12  C   UNL     1       6.074   4.976  15.343  0.00  0.00    +0.000 C 
BRANCH  12  13
ATOM     13  C   UNL     1       5.473   4.124  14.219  0.00  0.00    +0.000 C 
BRANCH  13  14
ATOM     14  C   UNL     1       6.438   3.862  13.061  0.00  0.00    +0.000 C 
ATOM     15 CL   UNL     1       5.782   2.698  11.886  0.00  0.00    +0.000 Cl
ENDBRANCH  13  14
ENDBRANCH  12  13
ENDBRANCH  11  12
ENDBRANCH   8  11
ENDBRANCH   6   7
BRANCH   1  17
ATOM     16  C   UNL     1       2.388   3.178  18.329  0.00  0.00    +0.000 C 
ATOM     17  O   UNL     1       3.240   4.260  18.724  0.00  0.00    +0.000 OA
ENDBRANCH   1  17
BRANCH   4  18
ATOM     18  N   UNL     1       1.110   9.186  20.797  0.00  0.00    +0.000 N 
ATOM     19  C   UNL     1       0.259   8.940  21.954  0.00  0.00    +0.000 C 
BRANCH  18  20
ATOM     20  C   UNL     1       0.716  10.327  19.974  0.00  0.00    +0.000 A 
ATOM     21  C   UNL     1       1.127  11.541  20.498  0.00  0.00    +0.000 A 
ATOM     22  C   UNL     1       0.042  12.312  20.820  0.00  0.00    +0.000 A 
ATOM     23  C   UNL     1      -0.825  11.859  21.980  0.00  0.00    +0.000 C 
ATOM     24  N   UNL     1      -0.719  12.697  19.805  0.00  0.00    +0.000 NA
ATOM     25  C   UNL     1      -1.027  11.733  18.953  0.00  0.00    +0.000 A 
ATOM     26  C   UNL     1      -2.180  12.043  18.245  0.00  0.00    +0.000 A 
ATOM     27  C   UNL     1      -2.694  11.211  17.271  0.00  0.00    +0.000 A 
ATOM     28  C   UNL     1      -1.992  10.054  16.992  0.00  0.00    +0.000 A 
ATOM     29  C   UNL     1      -0.882   9.656  17.808  0.00  0.00    +0.000 A 
ATOM     30  C   UNL     1      -0.357  10.460  18.905  0.00  0.00    +0.000 A 
ENDBRANCH  18  20
ENDBRANCH   4  18
TORSDOF 8
ENDMDL
MODEL 6
REMARK VINA RESULT:      -7.5      5.004      8.034
REMARK  Name = 
REMARK  11 active torsions:
REMARK  status: ('A' for Active; 'I' for Inactive)
REMARK    1  A    between atoms: C_1  and  O_2
REMARK    2  A    between atoms: O_2  and  C_3
REMARK    3  A    between atoms: C_6  and  N_7
REMARK    4  A    between atoms: N_7  and  C_8
REMARK    5  A    between atoms: N_7  and  C_9
REMARK    6  A    between atoms: C_11  and  C_12
REMARK    7  A    between atoms: C_21  and  N_22
REMARK    8  A    between atoms: C_23  and  C_25
REMARK    9  A    between atoms: C_25  and  C_26
REMARK   10  A    between atoms: C_26  and  C_27
REMARK   11  A    between atoms: C_27  and  C_28
REMARK                            x       y       z     vdW  Elec       q    Type
REMARK                         _______ _______ _______ _____ _____    ______ ____
ROOT
ATOM      1  C   UNL     1       2.967   7.279  18.518  0.00  0.00    +0.000 A 
ATOM      2  C   UNL     1       2.732   8.392  17.706  0.00  0.00    +0.000 A 
ATOM      3  C   UNL     1       1.665   9.300  17.997  0.00  0.00    +0.000 A 
ATOM      4  C   UNL     1       0.781   9.110  19.093  0.00  0.00    +0.000 A 
ATOM      5  C   UNL     1       1.083   8.011  19.928  0.00  0.00    +0.000 A 
ATOM      6  C   UNL     1       2.172   7.120  19.678  0.00  0.00    +0.000 A 
ENDROOT
BRANCH   6   7
ATOM      7  N   UNL     1       2.516   6.016  20.537  0.00  0.00    +0.000 N 
ATOM      8  C   UNL     1       1.802   4.836  20.722  0.00  0.00    +0.000 C 
ATOM      9  O   UNL     1       0.747   4.568  20.191  0.00  0.00    +0.000 OA
ATOM     10  H   UNL     1       3.310   6.208  21.147  0.00  0.00    +0.000 HD
BRANCH   8  11
ATOM     11  C   UNL     1       2.450   3.813  21.638  0.00  0.00    +0.000 C 
BRANCH  11  12
ATOM     12  C   UNL     1       2.907   2.514  20.968  0.00  0.00    +0.000 C 
BRANCH  12  13
ATOM     13  C   UNL     1       3.726   2.742  19.692  0.00  0.00    +0.000 C 
BRANCH  13  14
ATOM     14  C   UNL     1       3.098   2.128  18.439  0.00  0.00    +0.000 C 
ATOM     15 CL   UNL     1       2.473   3.365  17.323  0.00  0.00    +0.000 Cl
ENDBRANCH  13  14
ENDBRANCH  12  13
ENDBRANCH  11  12
ENDBRANCH   8  11
ENDBRANCH   6   7
BRANCH   1  17
ATOM     16  C   UNL     1       4.637   6.339  17.058  0.00  0.00    +0.000 C 
ATOM     17  O   UNL     1       3.934   6.323  18.306  0.00  0.00    +0.000 OA
ENDBRANCH   1  17
BRANCH   4  18
ATOM     18  N   UNL     1      -0.353  10.023  19.323  0.00  0.00    +0.000 N 
ATOM     19  C   UNL     1      -0.867  10.527  18.057  0.00  0.00    +0.000 C 
BRANCH  18  20
ATOM     20  C   UNL     1      -0.410  10.970  20.433  0.00  0.00    +0.000 A 
ATOM     21  C   UNL     1       0.611  10.792  21.351  0.00  0.00    +0.000 A 
ATOM     22  C   UNL     1       0.099  10.433  22.569  0.00  0.00    +0.000 A 
ATOM     23  C   UNL     1      -0.540   9.061  22.688  0.00  0.00    +0.000 C 
ATOM     24  N   UNL     1      -0.655  11.340  23.173  0.00  0.00    +0.000 NA
ATOM     25  C   UNL     1      -1.565  11.905  22.397  0.00  0.00    +0.000 A 
ATOM     26  C   UNL     1      -2.608  12.427  23.148  0.00  0.00    +0.000 A 
ATOM     27  C   UNL     1      -3.669  13.096  22.573  0.00  0.00    +0.000 A 
ATOM     28  C   UNL     1      -3.644  13.263  21.201  0.00  0.00    +0.000 A 
ATOM     29  C   UNL     1      -2.648  12.610  20.403  0.00  0.00    +0.000 A 
ATOM     30  C   UNL     1      -1.557  11.820  20.959  0.00  0.00    +0.000 A 
ENDBRANCH  18  20
ENDBRANCH   4  18
TORSDOF 8
ENDMDL
MODEL 7
REMARK VINA RESULT:      -7.5      4.959      8.218
REMARK  Name = 
REMARK  11 active torsions:
REMARK  status: ('A' for Active; 'I' for Inactive)
REMARK    1  A    between atoms: C_1  and  O_2
REMARK    2  A    between atoms: O_2  and  C_3
REMARK    3  A    between atoms: C_6  and  N_7
REMARK    4  A    between atoms: N_7  and  C_8
REMARK    5  A    between atoms: N_7  and  C_9
REMARK    6  A    between atoms: C_11  and  C_12
REMARK    7  A    between atoms: C_21  and  N_22
REMARK    8  A    between atoms: C_23  and  C_25
REMARK    9  A    between atoms: C_25  and  C_26
REMARK   10  A    between atoms: C_26  and  C_27
REMARK   11  A    between atoms: C_27  and  C_28
REMARK                            x       y       z     vdW  Elec       q    Type
REMARK                         _______ _______ _______ _____ _____    ______ ____
ROOT
ATOM      1  C   UNL     1       1.224  10.467  18.958  0.00  0.00    +0.000 A 
ATOM      2  C   UNL     1       1.993   9.905  17.936  0.00  0.00    +0.000 A 
ATOM      3  C   UNL     1       2.343   8.517  17.960  0.00  0.00    +0.000 A 
ATOM      4  C   UNL     1       1.959   7.653  19.019  0.00  0.00    +0.000 A 
ATOM      5  C   UNL     1       1.131   8.238  20.005  0.00  0.00    +0.000 A 
ATOM      6  C   UNL     1       0.735   9.610  19.973  0.00  0.00    +0.000 A 
ENDROOT
BRANCH   6   7
ATOM      7  N   UNL     1      -0.136  10.214  20.949  0.00  0.00    +0.000 N 
ATOM      8  C   UNL     1       0.006  10.195  22.332  0.00  0.00    +0.000 C 
ATOM      9  O   UNL     1       0.892   9.634  22.936  0.00  0.00    +0.000 OA
ATOM     10  H   UNL     1      -1.000  10.582  20.550  0.00  0.00    +0.000 HD
BRANCH   8  11
ATOM     11  C   UNL     1      -1.032  10.986  23.110  0.00  0.00    +0.000 C 
BRANCH  11  12
ATOM     12  C   UNL     1      -1.819  12.024  22.304  0.00  0.00    +0.000 C 
BRANCH  12  13
ATOM     13  C   UNL     1      -3.109  12.482  22.997  0.00  0.00    +0.000 C 
BRANCH  13  14
ATOM     14  C   UNL     1      -4.269  12.736  22.034  0.00  0.00    +0.000 C 
ATOM     15 CL   UNL     1      -3.734  12.811  20.338  0.00  0.00    +0.000 Cl
ENDBRANCH  13  14
ENDBRANCH  12  13
ENDBRANCH  11  12
ENDBRANCH   8  11
ENDBRANCH   6   7
BRANCH   1  17
ATOM     16  C   UNL     1       1.914  12.766  19.163  0.00  0.00    +0.000 C 
ATOM     17  O   UNL     1       0.868  11.793  19.056  0.00  0.00    +0.000 OA
ENDBRANCH   1  17
BRANCH   4  18
ATOM     18  N   UNL     1       2.396   6.246  19.051  0.00  0.00    +0.000 N 
ATOM     19  C   UNL     1       2.895   5.896  20.374  0.00  0.00    +0.000 C 
BRANCH  18  20
ATOM     20  C   UNL     1       3.084   5.592  17.940  0.00  0.00    +0.000 A 
ATOM     21  C   UNL     1       2.418   4.471  17.475  0.00  0.00    +0.000 A 
ATOM     22  C   UNL     1       3.180   3.351  17.668  0.00  0.00    +0.000 A 
ATOM     23  C   UNL     1       3.405   2.890  19.097  0.00  0.00    +0.000 C 
ATOM     24  N   UNL     1       4.315   3.295  16.986  0.00  0.00    +0.000 NA
ATOM     25  C   UNL     1       5.037   4.402  17.029  0.00  0.00    +0.000 A 
ATOM     26  C   UNL     1       6.372   4.138  16.760  0.00  0.00    +0.000 A 
ATOM     27  C   UNL     1       7.327   5.134  16.715  0.00  0.00    +0.000 A 
ATOM     28  C   UNL     1       6.898   6.432  16.915  0.00  0.00    +0.000 A 
ATOM     29  C   UNL     1       5.553   6.702  17.330  0.00  0.00    +0.000 A 
ATOM     30  C   UNL     1       4.531   5.673  17.478  0.00  0.00    +0.000 A 
ENDBRANCH  18  20
ENDBRANCH   4  18
TORSDOF 8
ENDMDL
MODEL 8
REMARK VINA RESULT:      -7.4      5.168      8.352
REMARK  Name = 
REMARK  11 active torsions:
REMARK  status: ('A' for Active; 'I' for Inactive)
REMARK    1  A    between atoms: C_1  and  O_2
REMARK    2  A    between atoms: O_2  and  C_3
REMARK    3  A    between atoms: C_6  and  N_7
REMARK    4  A    between atoms: N_7  and  C_8
REMARK    5  A    between atoms: N_7  and  C_9
REMARK    6  A    between atoms: C_11  and  C_12
REMARK    7  A    between atoms: C_21  and  N_22
REMARK    8  A    between atoms: C_23  and  C_25
REMARK    9  A    between atoms: C_25  and  C_26
REMARK   10  A    between atoms: C_26  and  C_27
REMARK   11  A    between atoms: C_27  and  C_28
REMARK                            x       y       z     vdW  Elec       q    Type
REMARK                         _______ _______ _______ _____ _____    ______ ____
ROOT
ATOM      1  C   UNL     1       2.357   7.398  18.759  0.00  0.00    +0.000 A 
ATOM      2  C   UNL     1       2.009   8.700  18.390  0.00  0.00    +0.000 A 
ATOM      3  C   UNL     1       1.395   9.588  19.329  0.00  0.00    +0.000 A 
ATOM      4  C   UNL     1       1.083   9.196  20.658  0.00  0.00    +0.000 A 
ATOM      5  C   UNL     1       1.504   7.896  21.017  0.00  0.00    +0.000 A 
ATOM      6  C   UNL     1       2.159   7.011  20.106  0.00  0.00    +0.000 A 
ENDROOT
BRANCH   6   7
ATOM      7  N   UNL     1       2.626   5.696  20.464  0.00  0.00    +0.000 N 
ATOM      8  C   UNL     1       1.860   4.548  20.641  0.00  0.00    +0.000 C 
ATOM      9  O   UNL     1       0.655   4.490  20.541  0.00  0.00    +0.000 OA
ATOM     10  H   UNL     1       3.612   5.671  20.723  0.00  0.00    +0.000 HD
BRANCH   8  11
ATOM     11  C   UNL     1       2.638   3.280  20.945  0.00  0.00    +0.000 C 
BRANCH  11  12
ATOM     12  C   UNL     1       2.777   2.290  19.784  0.00  0.00    +0.000 C 
BRANCH  12  13
ATOM     13  C   UNL     1       4.106   2.420  19.029  0.00  0.00    +0.000 C 
BRANCH  13  14
ATOM     14  C   UNL     1       3.964   3.025  17.632  0.00  0.00    +0.000 C 
ATOM     15 CL   UNL     1       2.264   3.311  17.190  0.00  0.00    +0.000 Cl
ENDBRANCH  13  14
ENDBRANCH  12  13
ENDBRANCH  11  12
ENDBRANCH   8  11
ENDBRANCH   6   7
BRANCH   1  17
ATOM     16  C   UNL     1       4.197   6.722  17.358  0.00  0.00    +0.000 C 
ATOM     17  O   UNL     1       2.910   6.450  17.928  0.00  0.00    +0.000 OA
ENDBRANCH   1  17
BRANCH   4  18
ATOM     18  N   UNL     1       0.385  10.112  21.578  0.00  0.00    +0.000 N 
ATOM     19  C   UNL     1      -0.593   9.385  22.376  0.00  0.00    +0.000 C 
BRANCH  18  20
ATOM     20  C   UNL     1      -0.002  11.474  21.218  0.00  0.00    +0.000 A 
ATOM     21  C   UNL     1      -1.373  11.652  21.167  0.00  0.00    +0.000 A 
ATOM     22  C   UNL     1      -1.766  11.969  19.895  0.00  0.00    +0.000 A 
ATOM     23  C   UNL     1      -1.650  10.891  18.832  0.00  0.00    +0.000 C 
ATOM     24  N   UNL     1      -1.323  13.125  19.421  0.00  0.00    +0.000 NA
ATOM     25  C   UNL     1      -0.032  13.340  19.613  0.00  0.00    +0.000 A 
ATOM     26  C   UNL     1       0.462  14.259  18.699  0.00  0.00    +0.000 A 
ATOM     27  C   UNL     1       1.778  14.676  18.709  0.00  0.00    +0.000 A 
ATOM     28  C   UNL     1       2.596  14.167  19.701  0.00  0.00    +0.000 A 
ATOM     29  C   UNL     1       2.135  13.117  20.561  0.00  0.00    +0.000 A 
ATOM     30  C   UNL     1       0.780  12.581  20.528  0.00  0.00    +0.000 A 
ENDBRANCH  18  20
ENDBRANCH   4  18
TORSDOF 8
ENDMDL
MODEL 9
REMARK VINA RESULT:      -7.4      4.179      6.761
REMARK  Name = 
REMARK  11 active torsions:
REMARK  status: ('A' for Active; 'I' for Inactive)
REMARK    1  A    between atoms: C_1  and  O_2
REMARK    2  A    between atoms: O_2  and  C_3
REMARK    3  A    between atoms: C_6  and  N_7
REMARK    4  A    between atoms: N_7  and  C_8
REMARK    5  A    between atoms: N_7  and  C_9
REMARK    6  A    between atoms: C_11  and  C_12
REMARK    7  A    between atoms: C_21  and  N_22
REMARK    8  A    between atoms: C_23  and  C_25
REMARK    9  A    between atoms: C_25  and  C_26
REMARK   10  A    between atoms: C_26  and  C_27
REMARK   11  A    between atoms: C_27  and  C_28
REMARK                            x       y       z     vdW  Elec       q    Type
REMARK                         _______ _______ _______ _____ _____    ______ ____
ROOT
ATOM      1  C   UNL     1       1.282   8.663  20.619  0.00  0.00    +0.000 A 
ATOM      2  C   UNL     1       1.418   7.323  20.990  0.00  0.00    +0.000 A 
ATOM      3  C   UNL     1       1.868   6.344  20.049  0.00  0.00    +0.000 A 
ATOM      4  C   UNL     1       2.170   6.667  18.699  0.00  0.00    +0.000 A 
ATOM      5  C   UNL     1       2.081   8.039  18.373  0.00  0.00    +0.000 A 
ATOM      6  C   UNL     1       1.677   9.037  19.313  0.00  0.00    +0.000 A 
ENDROOT
BRANCH   6   7
ATOM      7  N   UNL     1       1.614  10.444  19.009  0.00  0.00    +0.000 N 
ATOM      8  C   UNL     1       0.502  11.168  18.592  0.00  0.00    +0.000 C 
ATOM      9  O   UNL     1      -0.599  10.705  18.395  0.00  0.00    +0.000 OA
ATOM     10  H   UNL     1       2.528  10.897  18.994  0.00  0.00    +0.000 HD
BRANCH   8  11
ATOM     11  C   UNL     1       0.718  12.661  18.418  0.00  0.00    +0.000 C 
BRANCH  11  12
ATOM     12  C   UNL     1       2.172  13.108  18.240  0.00  0.00    +0.000 C 
BRANCH  12  13
ATOM     13  C   UNL     1       2.414  14.568  18.642  0.00  0.00    +0.000 C 
BRANCH  13  14
ATOM     14  C   UNL     1       3.344  15.323  17.690  0.00  0.00    +0.000 C 
ATOM     15 CL   UNL     1       5.029  14.766  17.810  0.00  0.00    +0.000 Cl
ENDBRANCH  13  14
ENDBRANCH  12  13
ENDBRANCH  11  12
ENDBRANCH   8  11
ENDBRANCH   6   7
BRANCH   1  17
ATOM     16  C   UNL     1       0.088   9.315  22.608  0.00  0.00    +0.000 C 
ATOM     17  O   UNL     1       0.818   9.675  21.429  0.00  0.00    +0.000 OA
ENDBRANCH   1  17
BRANCH   4  18
ATOM     18  N   UNL     1       2.561   5.623  17.735  0.00  0.00    +0.000 N 
ATOM     19  C   UNL     1       1.549   4.577  17.677  0.00  0.00    +0.000 C 
BRANCH  18  20
ATOM     20  C   UNL     1       3.937   5.161  17.564  0.00  0.00    +0.000 A 
ATOM     21  C   UNL     1       4.072   3.792  17.724  0.00  0.00    +0.000 A 
ATOM     22  C   UNL     1       4.871   3.516  18.802  0.00  0.00    +0.000 A 
ATOM     23  C   UNL     1       4.330   3.842  20.182  0.00  0.00    +0.000 C 
ATOM     24  N   UNL     1       6.134   3.905  18.703  0.00  0.00    +0.000 NA
ATOM     25  C   UNL     1       6.296   5.144  18.268  0.00  0.00    +0.000 A 
ATOM     26  C   UNL     1       7.526   5.654  18.657  0.00  0.00    +0.000 A 
ATOM     27  C   UNL     1       7.947   6.919  18.301  0.00  0.00    +0.000 A 
ATOM     28  C   UNL     1       7.104   7.664  17.498  0.00  0.00    +0.000 A 
ATOM     29  C   UNL     1       5.778   7.205  17.206  0.00  0.00    +0.000 A 
ATOM     30  C   UNL     1       5.256   5.914  17.635  0.00  0.00    +0.000 A 
ENDBRANCH  18  20
ENDBRANCH   4  18
TORSDOF 8
ENDMDL
