MODEL 1
REMARK VINA RESULT:      -6.6      0.000      0.000
REMARK  Name = 
REMARK  5 active torsions:
REMARK  status: ('A' for Active; 'I' for Inactive)
REMARK    1  A    between atoms: C_1  and  O_2
REMARK    2  A    between atoms: O_2  and  C_3
REMARK    3  A    between atoms: C_3  and  C_5
REMARK    4  A    between atoms: C_8  and  C_9
REMARK    5  A    between atoms: C_14  and  N_15
REMARK                            x       y       z     vdW  Elec       q    Type
REMARK                         _______ _______ _______ _____ _____    ______ ____
ROOT
ATOM      1  C   UNL     1       5.954   4.740  18.009  0.00  0.00    +0.000 A 
ATOM      2  C   UNL     1       5.223   5.148  19.137  0.00  0.00    +0.000 A 
ATOM      3  C   UNL     1       3.850   4.910  19.214  0.00  0.00    +0.000 A 
ATOM      4  C   UNL     1       3.189   4.252  18.171  0.00  0.00    +0.000 A 
ATOM      5  C   UNL     1       3.926   3.857  17.040  0.00  0.00    +0.000 A 
ATOM      6  C   UNL     1       5.297   4.136  16.918  0.00  0.00    +0.000 A 
ENDROOT
BRANCH   4   7
ATOM      7  C   UNL     1       1.713   3.950  18.250  0.00  0.00    +0.000 C 
ATOM      8  F   UNL     1       1.142   4.333  19.426  0.00  0.00    +0.000 F 
ATOM      9  F   UNL     1       1.003   4.575  17.270  0.00  0.00    +0.000 F 
ATOM     10  F   UNL     1       1.442   2.623  18.119  0.00  0.00    +0.000 F 
ENDBRANCH   4   7
BRANCH   6  11
ATOM     11  N   UNL     1       5.993   3.586  15.826  0.00  0.00    +0.000 N 
ATOM     12  H   UNL     1       6.684   2.884  16.072  0.00  0.00    +0.000 HD
ATOM     13  H   UNL     1       5.362   3.253  15.088  0.00  0.00    +0.000 HD
ENDBRANCH   6  11
BRANCH   1  14
ATOM     14  C   UNL     1       7.418   4.989  17.954  0.00  0.00    +0.000 C 
ATOM     15  O   UNL     1       8.233   4.195  17.510  0.00  0.00    +0.000 OA
BRANCH  14  17
ATOM     16  C   UNL     1       7.604   7.294  17.573  0.00  0.00    +0.000 C 
ATOM     17  O   UNL     1       7.693   6.205  18.492  0.00  0.00    +0.000 OA
ENDBRANCH  14  17
ENDBRANCH   1  14
TORSDOF 4
ENDMDL
MODEL 2
REMARK VINA RESULT:      -6.5      1.758      2.285
REMARK  Name = 
REMARK  5 active torsions:
REMARK  status: ('A' for Active; 'I' for Inactive)
REMARK    1  A    between atoms: C_1  and  O_2
REMARK    2  A    between atoms: O_2  and  C_3
REMARK    3  A    between atoms: C_3  and  C_5
REMARK    4  A    between atoms: C_8  and  C_9
REMARK    5  A    between atoms: C_14  and  N_15
REMARK                            x       y       z     vdW  Elec       q    Type
REMARK                         _______ _______ _______ _____ _____    ______ ____
ROOT
ATOM      1  C   UNL     1       4.233   5.539  17.143  0.00  0.00    +0.000 A 
ATOM      2  C   UNL     1       3.192   6.148  17.862  0.00  0.00    +0.000 A 
ATOM      3  C   UNL     1       2.248   5.371  18.536  0.00  0.00    +0.000 A 
ATOM      4  C   UNL     1       2.337   3.975  18.509  0.00  0.00    +0.000 A 
ATOM      5  C   UNL     1       3.376   3.373  17.776  0.00  0.00    +0.000 A 
ATOM      6  C   UNL     1       4.303   4.135  17.047  0.00  0.00    +0.000 A 
ENDROOT
BRANCH   4   7
ATOM      7  C   UNL     1       1.350   3.116  19.261  0.00  0.00    +0.000 C 
ATOM      8  F   UNL     1       0.464   2.473  18.451  0.00  0.00    +0.000 F 
ATOM      9  F   UNL     1       1.962   2.143  19.992  0.00  0.00    +0.000 F 
ATOM     10  F   UNL     1       0.600   3.830  20.143  0.00  0.00    +0.000 F 
ENDBRANCH   4   7
BRANCH   6  11
ATOM     11  N   UNL     1       5.393   3.470  16.458  0.00  0.00    +0.000 N 
ATOM     12  H   UNL     1       5.449   2.477  16.665  0.00  0.00    +0.000 HD
ATOM     13  H   UNL     1       5.463   3.650  15.450  0.00  0.00    +0.000 HD
ENDBRANCH   6  11
BRANCH   1  14
ATOM     14  C   UNL     1       5.236   6.385  16.445  0.00  0.00    +0.000 C 
ATOM     15  O   UNL     1       5.381   6.419  15.233  0.00  0.00    +0.000 OA
BRANCH  14  17
ATOM     16  C   UNL     1       7.261   6.531  17.616  0.00  0.00    +0.000 C 
ATOM     17  O   UNL     1       5.966   7.074  17.360  0.00  0.00    +0.000 OA
ENDBRANCH  14  17
ENDBRANCH   1  14
TORSDOF 4
ENDMDL
MODEL 3
REMARK VINA RESULT:      -6.5      4.150      5.267
REMARK  Name = 
REMARK  5 active torsions:
REMARK  status: ('A' for Active; 'I' for Inactive)
REMARK    1  A    between atoms: C_1  and  O_2
REMARK    2  A    between atoms: O_2  and  C_3
REMARK    3  A    between atoms: C_3  and  C_5
REMARK    4  A    between atoms: C_8  and  C_9
REMARK    5  A    between atoms: C_14  and  N_15
REMARK                            x       y       z     vdW  Elec       q    Type
REMARK                         _______ _______ _______ _____ _____    ______ ____
ROOT
ATOM      1  C   UNL     1       2.095   3.748  18.548  0.00  0.00    +0.000 A 
ATOM      2  C   UNL     1       2.132   5.149  18.462  0.00  0.00    +0.000 A 
ATOM      3  C   UNL     1       3.144   5.787  17.743  0.00  0.00    +0.000 A 
ATOM      4  C   UNL     1       4.126   5.035  17.090  0.00  0.00    +0.000 A 
ATOM      5  C   UNL     1       4.089   3.632  17.192  0.00  0.00    +0.000 A 
ATOM      6  C   UNL     1       3.112   2.973  17.955  0.00  0.00    +0.000 A 
ENDROOT
BRANCH   4   7
ATOM      7  C   UNL     1       5.208   5.701  16.276  0.00  0.00    +0.000 C 
ATOM      8  F   UNL     1       5.580   4.984  15.178  0.00  0.00    +0.000 F 
ATOM      9  F   UNL     1       4.828   6.924  15.811  0.00  0.00    +0.000 F 
ATOM     10  F   UNL     1       6.348   5.909  16.990  0.00  0.00    +0.000 F 
ENDBRANCH   4   7
BRANCH   6  11
ATOM     11  N   UNL     1       3.054   1.569  17.892  0.00  0.00    +0.000 N 
ATOM     12  H   UNL     1       3.633   1.151  17.170  0.00  0.00    +0.000 HD
ATOM     13  H   UNL     1       3.215   1.130  18.806  0.00  0.00    +0.000 HD
ENDBRANCH   6  11
BRANCH   1  14
ATOM     14  C   UNL     1       1.000   3.088  19.306  0.00  0.00    +0.000 C 
ATOM     15  O   UNL     1       0.256   2.240  18.838  0.00  0.00    +0.000 OA
BRANCH  14  17
ATOM     16  C   UNL     1       1.643   2.820  21.543  0.00  0.00    +0.000 C 
ATOM     17  O   UNL     1       0.949   3.594  20.565  0.00  0.00    +0.000 OA
ENDBRANCH  14  17
ENDBRANCH   1  14
TORSDOF 4
ENDMDL
MODEL 4
REMARK VINA RESULT:      -6.4      4.144      5.271
REMARK  Name = 
REMARK  5 active torsions:
REMARK  status: ('A' for Active; 'I' for Inactive)
REMARK    1  A    between atoms: C_1  and  O_2
REMARK    2  A    between atoms: O_2  and  C_3
REMARK    3  A    between atoms: C_3  and  C_5
REMARK    4  A    between atoms: C_8  and  C_9
REMARK    5  A    between atoms: C_14  and  N_15
REMARK                            x       y       z     vdW  Elec       q    Type
REMARK                         _______ _______ _______ _____ _____    ______ ____
ROOT
ATOM      1  C   UNL     1       2.123   3.742  18.548  0.00  0.00    +0.000 A 
ATOM      2  C   UNL     1       2.162   5.144  18.470  0.00  0.00    +0.000 A 
ATOM      3  C   UNL     1       3.199   5.786  17.792  0.00  0.00    +0.000 A 
ATOM      4  C   UNL     1       4.205   5.037  17.172  0.00  0.00    +0.000 A 
ATOM      5  C   UNL     1       4.165   3.634  17.265  0.00  0.00    +0.000 A 
ATOM      6  C   UNL     1       3.162   2.970  17.990  0.00  0.00    +0.000 A 
ENDROOT
BRANCH   4   7
ATOM      7  C   UNL     1       5.315   5.708  16.400  0.00  0.00    +0.000 C 
ATOM      8  F   UNL     1       6.189   6.391  17.191  0.00  0.00    +0.000 F 
ATOM      9  F   UNL     1       6.067   4.819  15.694  0.00  0.00    +0.000 F 
ATOM     10  F   UNL     1       4.850   6.610  15.493  0.00  0.00    +0.000 F 
ENDBRANCH   4   7
BRANCH   6  11
ATOM     11  N   UNL     1       3.108   1.567  17.918  0.00  0.00    +0.000 N 
ATOM     12  H   UNL     1       2.886   1.195  17.000  0.00  0.00    +0.000 HD
ATOM     13  H   UNL     1       3.946   1.123  18.312  0.00  0.00    +0.000 HD
ENDBRANCH   6  11
BRANCH   1  14
ATOM     14  C   UNL     1       1.002   3.077  19.263  0.00  0.00    +0.000 C 
ATOM     15  O   UNL     1       0.270   2.238  18.761  0.00  0.00    +0.000 OA
BRANCH  14  17
ATOM     16  C   UNL     1       1.589   2.790  21.513  0.00  0.00    +0.000 C 
ATOM     17  O   UNL     1       0.913   3.568  20.526  0.00  0.00    +0.000 OA
ENDBRANCH  14  17
ENDBRANCH   1  14
TORSDOF 4
ENDMDL
MODEL 5
REMARK VINA RESULT:      -6.4      1.309      1.779
REMARK  Name = 
REMARK  5 active torsions:
REMARK  status: ('A' for Active; 'I' for Inactive)
REMARK    1  A    between atoms: C_1  and  O_2
REMARK    2  A    between atoms: O_2  and  C_3
REMARK    3  A    between atoms: C_3  and  C_5
REMARK    4  A    between atoms: C_8  and  C_9
REMARK    5  A    between atoms: C_14  and  N_15
REMARK                            x       y       z     vdW  Elec       q    Type
REMARK                         _______ _______ _______ _____ _____    ______ ____
ROOT
ATOM      1  C   UNL     1       5.910   4.598  17.320  0.00  0.00    +0.000 A 
ATOM      2  C   UNL     1       5.009   4.318  16.280  0.00  0.00    +0.000 A 
ATOM      3  C   UNL     1       3.668   4.050  16.559  0.00  0.00    +0.000 A 
ATOM      4  C   UNL     1       3.205   4.071  17.879  0.00  0.00    +0.000 A 
ATOM      5  C   UNL     1       4.116   4.341  18.916  0.00  0.00    +0.000 A 
ATOM      6  C   UNL     1       5.481   4.557  18.662  0.00  0.00    +0.000 A 
ENDROOT
BRANCH   4   7
ATOM      7  C   UNL     1       1.752   3.823  18.200  0.00  0.00    +0.000 C 
ATOM      8  F   UNL     1       1.394   4.237  19.448  0.00  0.00    +0.000 F 
ATOM      9  F   UNL     1       0.913   4.465  17.340  0.00  0.00    +0.000 F 
ATOM     10  F   UNL     1       1.419   2.505  18.135  0.00  0.00    +0.000 F 
ENDBRANCH   4   7
BRANCH   6  11
ATOM     11  N   UNL     1       6.300   4.961  19.732  0.00  0.00    +0.000 N 
ATOM     12  H   UNL     1       6.482   4.241  20.424  0.00  0.00    +0.000 HD
ATOM     13  H   UNL     1       7.168   5.407  19.413  0.00  0.00    +0.000 HD
ENDBRANCH   6  11
BRANCH   1  14
ATOM     14  C   UNL     1       7.331   4.895  17.001  0.00  0.00    +0.000 C 
ATOM     15  O   UNL     1       8.267   4.169  17.299  0.00  0.00    +0.000 OA
BRANCH  14  17
ATOM     16  C   UNL     1       7.501   7.220  17.233  0.00  0.00    +0.000 C 
ATOM     17  O   UNL     1       7.414   6.091  16.364  0.00  0.00    +0.000 OA
ENDBRANCH  14  17
ENDBRANCH   1  14
TORSDOF 4
ENDMDL
MODEL 6
REMARK VINA RESULT:      -6.4      2.045      2.547
REMARK  Name = 
REMARK  5 active torsions:
REMARK  status: ('A' for Active; 'I' for Inactive)
REMARK    1  A    between atoms: C_1  and  O_2
REMARK    2  A    between atoms: O_2  and  C_3
REMARK    3  A    between atoms: C_3  and  C_5
REMARK    4  A    between atoms: C_8  and  C_9
REMARK    5  A    between atoms: C_14  and  N_15
REMARK                            x       y       z     vdW  Elec       q    Type
REMARK                         _______ _______ _______ _____ _____    ______ ____
ROOT
ATOM      1  C   UNL     1       4.926   6.000  17.586  0.00  0.00    +0.000 A 
ATOM      2  C   UNL     1       3.812   6.852  17.665  0.00  0.00    +0.000 A 
ATOM      3  C   UNL     1       2.813   6.623  18.612  0.00  0.00    +0.000 A 
ATOM      4  C   UNL     1       2.918   5.547  19.501  0.00  0.00    +0.000 A 
ATOM      5  C   UNL     1       4.031   4.692  19.406  0.00  0.00    +0.000 A 
ATOM      6  C   UNL     1       5.019   4.872  18.425  0.00  0.00    +0.000 A 
ENDROOT
BRANCH   4   7
ATOM      7  C   UNL     1       1.869   5.302  20.558  0.00  0.00    +0.000 C 
ATOM      8  F   UNL     1       1.254   6.440  20.986  0.00  0.00    +0.000 F 
ATOM      9  F   UNL     1       0.874   4.482  20.121  0.00  0.00    +0.000 F 
ATOM     10  F   UNL     1       2.378   4.711  21.673  0.00  0.00    +0.000 F 
ENDBRANCH   4   7
BRANCH   6  11
ATOM     11  N   UNL     1       6.170   4.065  18.484  0.00  0.00    +0.000 N 
ATOM     12  H   UNL     1       5.993   3.085  18.682  0.00  0.00    +0.000 HD
ATOM     13  H   UNL     1       6.772   4.181  17.661  0.00  0.00    +0.000 HD
ENDBRANCH   6  11
BRANCH   1  14
ATOM     14  C   UNL     1       5.987   6.271  16.580  0.00  0.00    +0.000 C 
ATOM     15  O   UNL     1       5.784   6.370  15.379  0.00  0.00    +0.000 OA
BRANCH  14  17
ATOM     16  C   UNL     1       7.589   7.687  17.537  0.00  0.00    +0.000 C 
ATOM     17  O   UNL     1       7.192   6.358  17.200  0.00  0.00    +0.000 OA
ENDBRANCH  14  17
ENDBRANCH   1  14
TORSDOF 4
ENDMDL
MODEL 7
REMARK VINA RESULT:      -6.4      2.184      2.824
REMARK  Name = 
REMARK  5 active torsions:
REMARK  status: ('A' for Active; 'I' for Inactive)
REMARK    1  A    between atoms: C_1  and  O_2
REMARK    2  A    between atoms: O_2  and  C_3
REMARK    3  A    between atoms: C_3  and  C_5
REMARK    4  A    between atoms: C_8  and  C_9
REMARK    5  A    between atoms: C_14  and  N_15
REMARK                            x       y       z     vdW  Elec       q    Type
REMARK                         _______ _______ _______ _____ _____    ______ ____
ROOT
ATOM      1  C   UNL     1       4.998   6.018  17.515  0.00  0.00    +0.000 A 
ATOM      2  C   UNL     1       3.860   6.840  17.559  0.00  0.00    +0.000 A 
ATOM      3  C   UNL     1       2.865   6.620  18.512  0.00  0.00    +0.000 A 
ATOM      4  C   UNL     1       2.997   5.583  19.442  0.00  0.00    +0.000 A 
ATOM      5  C   UNL     1       4.134   4.756  19.383  0.00  0.00    +0.000 A 
ATOM      6  C   UNL     1       5.120   4.926  18.397  0.00  0.00    +0.000 A 
ENDROOT
BRANCH   4   7
ATOM      7  C   UNL     1       1.952   5.349  20.505  0.00  0.00    +0.000 C 
ATOM      8  F   UNL     1       2.440   4.736  21.620  0.00  0.00    +0.000 F 
ATOM      9  F   UNL     1       1.384   6.509  20.937  0.00  0.00    +0.000 F 
ATOM     10  F   UNL     1       0.926   4.569  20.069  0.00  0.00    +0.000 F 
ENDBRANCH   4   7
BRANCH   6  11
ATOM     11  N   UNL     1       6.292   4.155  18.490  0.00  0.00    +0.000 N 
ATOM     12  H   UNL     1       6.576   3.923  19.437  0.00  0.00    +0.000 HD
ATOM     13  H   UNL     1       6.261   3.322  17.890  0.00  0.00    +0.000 HD
ENDBRANCH   6  11
BRANCH   1  14
ATOM     14  C   UNL     1       6.053   6.279  16.501  0.00  0.00    +0.000 C 
ATOM     15  O   UNL     1       7.200   6.604  16.772  0.00  0.00    +0.000 OA
BRANCH  14  17
ATOM     16  C   UNL     1       5.718   4.830  14.691  0.00  0.00    +0.000 C 
ATOM     17  O   UNL     1       5.535   6.128  15.255  0.00  0.00    +0.000 OA
ENDBRANCH  14  17
ENDBRANCH   1  14
TORSDOF 4
ENDMDL
MODEL 8
REMARK VINA RESULT:      -6.3      2.069      2.692
REMARK  Name = 
REMARK  5 active torsions:
REMARK  status: ('A' for Active; 'I' for Inactive)
REMARK    1  A    between atoms: C_1  and  O_2
REMARK    2  A    between atoms: O_2  and  C_3
REMARK    3  A    between atoms: C_3  and  C_5
REMARK    4  A    between atoms: C_8  and  C_9
REMARK    5  A    between atoms: C_14  and  N_15
REMARK                            x       y       z     vdW  Elec       q    Type
REMARK                         _______ _______ _______ _____ _____    ______ ____
ROOT
ATOM      1  C   UNL     1       4.343   4.716  17.022  0.00  0.00    +0.000 A 
ATOM      2  C   UNL     1       4.127   3.328  17.035  0.00  0.00    +0.000 A 
ATOM      3  C   UNL     1       3.101   2.779  17.804  0.00  0.00    +0.000 A 
ATOM      4  C   UNL     1       2.268   3.608  18.562  0.00  0.00    +0.000 A 
ATOM      5  C   UNL     1       2.498   4.996  18.554  0.00  0.00    +0.000 A 
ATOM      6  C   UNL     1       3.560   5.563  17.831  0.00  0.00    +0.000 A 
ENDROOT
BRANCH   4   7
ATOM      7  C   UNL     1       1.127   3.040  19.371  0.00  0.00    +0.000 C 
ATOM      8  F   UNL     1       0.422   3.985  20.053  0.00  0.00    +0.000 F 
ATOM      9  F   UNL     1       0.219   2.384  18.597  0.00  0.00    +0.000 F 
ATOM     10  F   UNL     1       1.544   2.141  20.304  0.00  0.00    +0.000 F 
ENDBRANCH   4   7
BRANCH   6  11
ATOM     11  N   UNL     1       3.639   6.966  17.757  0.00  0.00    +0.000 N 
ATOM     12  H   UNL     1       4.355   7.320  17.130  0.00  0.00    +0.000 HD
ATOM     13  H   UNL     1       2.727   7.400  17.573  0.00  0.00    +0.000 HD
ENDBRANCH   6  11
BRANCH   1  14
ATOM     14  C   UNL     1       5.433   5.282  16.185  0.00  0.00    +0.000 C 
ATOM     15  O   UNL     1       5.328   6.302  15.521  0.00  0.00    +0.000 OA
BRANCH  14  17
ATOM     16  C   UNL     1       7.393   4.758  17.356  0.00  0.00    +0.000 C 
ATOM     17  O   UNL     1       6.526   4.480  16.257  0.00  0.00    +0.000 OA
ENDBRANCH  14  17
ENDBRANCH   1  14
TORSDOF 4
ENDMDL
MODEL 9
REMARK VINA RESULT:      -6.3      2.085      3.015
REMARK  Name = 
REMARK  5 active torsions:
REMARK  status: ('A' for Active; 'I' for Inactive)
REMARK    1  A    between atoms: C_1  and  O_2
REMARK    2  A    between atoms: O_2  and  C_3
REMARK    3  A    between atoms: C_3  and  C_5
REMARK    4  A    between atoms: C_8  and  C_9
REMARK    5  A    between atoms: C_14  and  N_15
REMARK                            x       y       z     vdW  Elec       q    Type
REMARK                         _______ _______ _______ _____ _____    ______ ____
ROOT
ATOM      1  C   UNL     1       4.586   4.132  17.429  0.00  0.00    +0.000 A 
ATOM      2  C   UNL     1       3.344   3.793  16.866  0.00  0.00    +0.000 A 
ATOM      3  C   UNL     1       2.256   3.486  17.685  0.00  0.00    +0.000 A 
ATOM      4  C   UNL     1       2.390   3.525  19.077  0.00  0.00    +0.000 A 
ATOM      5  C   UNL     1       3.640   3.853  19.632  0.00  0.00    +0.000 A 
ATOM      6  C   UNL     1       4.761   4.111  18.827  0.00  0.00    +0.000 A 
ENDROOT
BRANCH   4   7
ATOM      7  C   UNL     1       1.218   3.234  19.982  0.00  0.00    +0.000 C 
ATOM      8  F   UNL     1       0.209   2.558  19.364  0.00  0.00    +0.000 F 
ATOM      9  F   UNL     1       1.569   2.477  21.058  0.00  0.00    +0.000 F 
ATOM     10  F   UNL     1       0.653   4.365  20.487  0.00  0.00    +0.000 F 
ENDBRANCH   4   7
BRANCH   6  11
ATOM     11  N   UNL     1       5.935   4.570  19.449  0.00  0.00    +0.000 N 
ATOM     12  H   UNL     1       6.089   4.212  20.387  0.00  0.00    +0.000 HD
ATOM     13  H   UNL     1       6.765   4.448  18.858  0.00  0.00    +0.000 HD
ENDBRANCH   6  11
BRANCH   1  14
ATOM     14  C   UNL     1       5.727   4.470  16.539  0.00  0.00    +0.000 C 
ATOM     15  O   UNL     1       6.388   5.494  16.629  0.00  0.00    +0.000 OA
BRANCH  14  17
ATOM     16  C   UNL     1       6.272   3.953  14.319  0.00  0.00    +0.000 C 
ATOM     17  O   UNL     1       5.889   3.489  15.614  0.00  0.00    +0.000 OA
ENDBRANCH  14  17
ENDBRANCH   1  14
TORSDOF 4
ENDMDL
