MODEL 1
REMARK VINA RESULT:      -7.7      0.000      0.000
REMARK  Name = 
REMARK  8 active torsions:
REMARK  status: ('A' for Active; 'I' for Inactive)
REMARK    1  A    between atoms: C_1  and  C_2
REMARK    2  A    between atoms: C_6  and  C_7
REMARK    3  A    between atoms: C_10  and  C_11
REMARK    4  A    between atoms: C_11  and  N_12
REMARK    5  A    between atoms: N_12  and  C_13
REMARK    6  A    between atoms: C_13  and  C_14
REMARK    7  A    between atoms: C_13  and  C_15
REMARK    8  A    between atoms: C_15  and  C_16
REMARK                            x       y       z     vdW  Elec       q    Type
REMARK                         _______ _______ _______ _____ _____    ______ ____
ROOT
ATOM      1  C   UNL     1       5.354   5.294  15.518  0.00  0.00    +0.000 A 
ATOM      2  N   UNL     1       5.002   4.385  16.447  0.00  0.00    +0.000 NA
ATOM      3  C   UNL     1       4.403   4.858  17.554  0.00  0.00    +0.000 A 
ATOM      4  C   UNL     1       4.122   6.193  17.753  0.00  0.00    +0.000 A 
ATOM      5  C   UNL     1       4.530   7.039  16.750  0.00  0.00    +0.000 A 
ATOM      6  N   UNL     1       5.141   6.621  15.629  0.00  0.00    +0.000 NA
ENDROOT
BRANCH   1  12
ATOM      7  C   UNL     1       5.421   2.285  11.514  0.00  0.00    +0.000 C 
ATOM      8  C   UNL     1       6.085   3.351  12.331  0.00  0.00    +0.000 A 
ATOM      9  C   UNL     1       7.296   3.924  11.941  0.00  0.00    +0.000 A 
ATOM     10  C   UNL     1       7.883   4.924  12.714  0.00  0.00    +0.000 A 
ATOM     11  C   UNL     1       7.256   5.365  13.880  0.00  0.00    +0.000 A 
ATOM     12  C   UNL     1       6.032   4.818  14.303  0.00  0.00    +0.000 A 
ATOM     13  C   UNL     1       5.467   3.800  13.510  0.00  0.00    +0.000 A 
ENDBRANCH   1  12
BRANCH   4  14
ATOM     14  C   UNL     1       3.407   6.695  18.957  0.00  0.00    +0.000 C 
BRANCH  14  15
ATOM     15  N   UNL     1       3.439   5.730  20.048  0.00  0.00    +0.000 NA
ATOM     16  H   UNL     1       4.226   5.920  20.668  0.00  0.00    +0.000 HD
BRANCH  15  17
ATOM     17  C   UNL     1       2.192   5.673  20.831  0.00  0.00    +0.000 C 
ATOM     18  C   UNL     1       1.351   6.945  20.660  0.00  0.00    +0.000 C 
BRANCH  17  19
ATOM     19  C   UNL     1       1.348   4.405  20.546  0.00  0.00    +0.000 C 
BRANCH  19  20
ATOM     20  C   UNL     1       2.091   3.329  19.786  0.00  0.00    +0.000 A 
ATOM     21  C   UNL     1       1.654   2.915  18.525  0.00  0.00    +0.000 A 
ATOM     22  C   UNL     1       2.381   1.947  17.849  0.00  0.00    +0.000 A 
ATOM     23  N   UNL     1       3.500   1.371  18.335  0.00  0.00    +0.000 NA
ATOM     24  C   UNL     1       3.900   1.773  19.560  0.00  0.00    +0.000 A 
ATOM     25  C   UNL     1       3.241   2.734  20.314  0.00  0.00    +0.000 A 
ENDBRANCH  19  20
ENDBRANCH  17  19
ENDBRANCH  15  17
ENDBRANCH  14  15
ENDBRANCH   4  14
TORSDOF 6
ENDMDL
MODEL 2
REMARK VINA RESULT:      -7.7      5.589      8.881
REMARK  Name = 
REMARK  8 active torsions:
REMARK  status: ('A' for Active; 'I' for Inactive)
REMARK    1  A    between atoms: C_1  and  C_2
REMARK    2  A    between atoms: C_6  and  C_7
REMARK    3  A    between atoms: C_10  and  C_11
REMARK    4  A    between atoms: C_11  and  N_12
REMARK    5  A    between atoms: N_12  and  C_13
REMARK    6  A    between atoms: C_13  and  C_14
REMARK    7  A    between atoms: C_13  and  C_15
REMARK    8  A    between atoms: C_15  and  C_16
REMARK                            x       y       z     vdW  Elec       q    Type
REMARK                         _______ _______ _______ _____ _____    ______ ____
ROOT
ATOM      1  C   UNL     1       5.265   4.982  18.370  0.00  0.00    +0.000 A 
ATOM      2  N   UNL     1       6.399   4.955  19.096  0.00  0.00    +0.000 NA
ATOM      3  C   UNL     1       7.306   5.912  18.829  0.00  0.00    +0.000 A 
ATOM      4  C   UNL     1       7.110   6.901  17.888  0.00  0.00    +0.000 A 
ATOM      5  C   UNL     1       5.925   6.832  17.196  0.00  0.00    +0.000 A 
ATOM      6  N   UNL     1       4.991   5.893  17.415  0.00  0.00    +0.000 NA
ENDROOT
BRANCH   1  12
ATOM      7  C   UNL     1       2.076   2.719  21.502  0.00  0.00    +0.000 C 
ATOM      8  C   UNL     1       2.687   2.814  20.136  0.00  0.00    +0.000 A 
ATOM      9  C   UNL     1       2.290   1.970  19.098  0.00  0.00    +0.000 A 
ATOM     10  C   UNL     1       2.866   2.091  17.835  0.00  0.00    +0.000 A 
ATOM     11  C   UNL     1       3.838   3.065  17.599  0.00  0.00    +0.000 A 
ATOM     12  C   UNL     1       4.259   3.937  18.617  0.00  0.00    +0.000 A 
ATOM     13  C   UNL     1       3.669   3.786  19.887  0.00  0.00    +0.000 A 
ENDBRANCH   1  12
BRANCH   4  14
ATOM     14  C   UNL     1       8.097   7.987  17.644  0.00  0.00    +0.000 C 
BRANCH  14  15
ATOM     15  N   UNL     1       8.672   8.486  18.886  0.00  0.00    +0.000 NA
ATOM     16  H   UNL     1       9.380   7.841  19.235  0.00  0.00    +0.000 HD
BRANCH  15  17
ATOM     17  C   UNL     1       9.243   9.841  18.777  0.00  0.00    +0.000 C 
ATOM     18  C   UNL     1       8.435  10.725  17.820  0.00  0.00    +0.000 C 
BRANCH  17  19
ATOM     19  C   UNL     1       9.437  10.535  20.150  0.00  0.00    +0.000 C 
BRANCH  19  20
ATOM     20  C   UNL     1      10.311  11.768  20.098  0.00  0.00    +0.000 A 
ATOM     21  C   UNL     1      11.551  11.737  19.455  0.00  0.00    +0.000 A 
ATOM     22  C   UNL     1      12.308  12.897  19.404  0.00  0.00    +0.000 A 
ATOM     23  N   UNL     1      11.921  14.072  19.943  0.00  0.00    +0.000 NA
ATOM     24  C   UNL     1      10.727  14.080  20.572  0.00  0.00    +0.000 A 
ATOM     25  C   UNL     1       9.898  12.972  20.675  0.00  0.00    +0.000 A 
ENDBRANCH  19  20
ENDBRANCH  17  19
ENDBRANCH  15  17
ENDBRANCH  14  15
ENDBRANCH   4  14
TORSDOF 6
ENDMDL
MODEL 3
REMARK VINA RESULT:      -7.6      4.328      6.427
REMARK  Name = 
REMARK  8 active torsions:
REMARK  status: ('A' for Active; 'I' for Inactive)
REMARK    1  A    between atoms: C_1  and  C_2
REMARK    2  A    between atoms: C_6  and  C_7
REMARK    3  A    between atoms: C_10  and  C_11
REMARK    4  A    between atoms: C_11  and  N_12
REMARK    5  A    between atoms: N_12  and  C_13
REMARK    6  A    between atoms: C_13  and  C_14
REMARK    7  A    between atoms: C_13  and  C_15
REMARK    8  A    between atoms: C_15  and  C_16
REMARK                            x       y       z     vdW  Elec       q    Type
REMARK                         _______ _______ _______ _____ _____    ______ ____
ROOT
ATOM      1  C   UNL     1       8.147   8.411  18.111  0.00  0.00    +0.000 A 
ATOM      2  N   UNL     1       7.467   8.103  16.990  0.00  0.00    +0.000 NA
ATOM      3  C   UNL     1       7.138   6.809  16.824  0.00  0.00    +0.000 A 
ATOM      4  C   UNL     1       7.439   5.827  17.743  0.00  0.00    +0.000 A 
ATOM      5  C   UNL     1       8.142   6.244  18.847  0.00  0.00    +0.000 A 
ATOM      6  N   UNL     1       8.504   7.520  19.057  0.00  0.00    +0.000 NA
ENDROOT
BRANCH   1  12
ATOM      7  C   UNL     1      10.741  11.822  20.706  0.00  0.00    +0.000 C 
ATOM      8  C   UNL     1       9.811  11.503  19.575  0.00  0.00    +0.000 A 
ATOM      9  C   UNL     1       9.358  12.490  18.699  0.00  0.00    +0.000 A 
ATOM     10  C   UNL     1       8.504  12.161  17.649  0.00  0.00    +0.000 A 
ATOM     11  C   UNL     1       8.104  10.837  17.460  0.00  0.00    +0.000 A 
ATOM     12  C   UNL     1       8.544   9.813  18.317  0.00  0.00    +0.000 A 
ATOM     13  C   UNL     1       9.397  10.175  19.378  0.00  0.00    +0.000 A 
ENDBRANCH   1  12
BRANCH   4  14
ATOM     14  C   UNL     1       7.018   4.410  17.573  0.00  0.00    +0.000 C 
BRANCH  14  15
ATOM     15  N   UNL     1       5.904   4.067  18.447  0.00  0.00    +0.000 NA
ATOM     16  H   UNL     1       5.800   4.765  19.182  0.00  0.00    +0.000 HD
BRANCH  15  17
ATOM     17  C   UNL     1       4.621   3.897  17.739  0.00  0.00    +0.000 C 
ATOM     18  C   UNL     1       4.785   4.035  16.220  0.00  0.00    +0.000 C 
BRANCH  17  19
ATOM     19  C   UNL     1       3.892   2.579  18.104  0.00  0.00    +0.000 C 
BRANCH  19  20
ATOM     20  C   UNL     1       2.912   2.714  19.248  0.00  0.00    +0.000 A 
ATOM     21  C   UNL     1       3.328   2.527  20.569  0.00  0.00    +0.000 A 
ATOM     22  C   UNL     1       2.404   2.690  21.591  0.00  0.00    +0.000 A 
ATOM     23  N   UNL     1       1.112   3.022  21.391  0.00  0.00    +0.000 NA
ATOM     24  C   UNL     1       0.726   3.186  20.108  0.00  0.00    +0.000 A 
ATOM     25  C   UNL     1       1.574   3.046  19.019  0.00  0.00    +0.000 A 
ENDBRANCH  19  20
ENDBRANCH  17  19
ENDBRANCH  15  17
ENDBRANCH  14  15
ENDBRANCH   4  14
TORSDOF 6
ENDMDL
MODEL 4
REMARK VINA RESULT:      -7.6      0.525      1.385
REMARK  Name = 
REMARK  8 active torsions:
REMARK  status: ('A' for Active; 'I' for Inactive)
REMARK    1  A    between atoms: C_1  and  C_2
REMARK    2  A    between atoms: C_6  and  C_7
REMARK    3  A    between atoms: C_10  and  C_11
REMARK    4  A    between atoms: C_11  and  N_12
REMARK    5  A    between atoms: N_12  and  C_13
REMARK    6  A    between atoms: C_13  and  C_14
REMARK    7  A    between atoms: C_13  and  C_15
REMARK    8  A    between atoms: C_15  and  C_16
REMARK                            x       y       z     vdW  Elec       q    Type
REMARK                         _______ _______ _______ _____ _____    ______ ____
ROOT
ATOM      1  C   UNL     1       5.641   5.263  15.554  0.00  0.00    +0.000 A 
ATOM      2  N   UNL     1       6.093   6.415  16.087  0.00  0.00    +0.000 NA
ATOM      3  C   UNL     1       5.524   6.806  17.241  0.00  0.00    +0.000 A 
ATOM      4  C   UNL     1       4.546   6.082  17.888  0.00  0.00    +0.000 A 
ATOM      5  C   UNL     1       4.148   4.929  17.256  0.00  0.00    +0.000 A 
ATOM      6  N   UNL     1       4.675   4.497  16.099  0.00  0.00    +0.000 NA
ENDROOT
BRANCH   1  12
ATOM      7  C   UNL     1       5.422   2.303  11.518  0.00  0.00    +0.000 C 
ATOM      8  C   UNL     1       6.134   3.372  12.291  0.00  0.00    +0.000 A 
ATOM      9  C   UNL     1       7.299   3.970  11.809  0.00  0.00    +0.000 A 
ATOM     10  C   UNL     1       7.932   4.971  12.543  0.00  0.00    +0.000 A 
ATOM     11  C   UNL     1       7.398   5.387  13.764  0.00  0.00    +0.000 A 
ATOM     12  C   UNL     1       6.223   4.813  14.280  0.00  0.00    +0.000 A 
ATOM     13  C   UNL     1       5.610   3.796  13.523  0.00  0.00    +0.000 A 
ENDBRANCH   1  12
BRANCH   4  14
ATOM     14  C   UNL     1       3.966   6.499  19.194  0.00  0.00    +0.000 C 
BRANCH  14  15
ATOM     15  N   UNL     1       2.520   6.330  19.223  0.00  0.00    +0.000 NA
ATOM     16  H   UNL     1       2.232   5.608  18.564  0.00  0.00    +0.000 HD
BRANCH  15  17
ATOM     17  C   UNL     1       1.981   6.026  20.561  0.00  0.00    +0.000 C 
ATOM     18  C   UNL     1       1.047   7.133  21.066  0.00  0.00    +0.000 C 
BRANCH  17  19
ATOM     19  C   UNL     1       1.297   4.637  20.644  0.00  0.00    +0.000 C 
BRANCH  19  20
ATOM     20  C   UNL     1       2.020   3.549  19.883  0.00  0.00    +0.000 A 
ATOM     21  C   UNL     1       3.231   3.033  20.352  0.00  0.00    +0.000 A 
ATOM     22  C   UNL     1       3.846   2.014  19.640  0.00  0.00    +0.000 A 
ATOM     23  N   UNL     1       3.345   1.480  18.508  0.00  0.00    +0.000 NA
ATOM     24  C   UNL     1       2.181   1.999  18.062  0.00  0.00    +0.000 A 
ATOM     25  C   UNL     1       1.491   3.018  18.703  0.00  0.00    +0.000 A 
ENDBRANCH  19  20
ENDBRANCH  17  19
ENDBRANCH  15  17
ENDBRANCH  14  15
ENDBRANCH   4  14
TORSDOF 6
ENDMDL
MODEL 5
REMARK VINA RESULT:      -7.5      3.247      8.233
REMARK  Name = 
REMARK  8 active torsions:
REMARK  status: ('A' for Active; 'I' for Inactive)
REMARK    1  A    between atoms: C_1  and  C_2
REMARK    2  A    between atoms: C_6  and  C_7
REMARK    3  A    between atoms: C_10  and  C_11
REMARK    4  A    between atoms: C_11  and  N_12
REMARK    5  A    between atoms: N_12  and  C_13
REMARK    6  A    between atoms: C_13  and  C_14
REMARK    7  A    between atoms: C_13  and  C_15
REMARK    8  A    between atoms: C_15  and  C_16
REMARK                            x       y       z     vdW  Elec       q    Type
REMARK                         _______ _______ _______ _____ _____    ______ ____
ROOT
ATOM      1  C   UNL     1       1.025   9.189  20.106  0.00  0.00    +0.000 A 
ATOM      2  N   UNL     1       1.193   9.710  18.876  0.00  0.00    +0.000 NA
ATOM      3  C   UNL     1       1.980   9.019  18.033  0.00  0.00    +0.000 A 
ATOM      4  C   UNL     1       2.581   7.823  18.364  0.00  0.00    +0.000 A 
ATOM      5  C   UNL     1       2.354   7.383  19.646  0.00  0.00    +0.000 A 
ATOM      6  N   UNL     1       1.586   8.038  20.531  0.00  0.00    +0.000 NA
ENDROOT
BRANCH   1  12
ATOM      7  C   UNL     1      -1.989  13.062  21.111  0.00  0.00    +0.000 C 
ATOM      8  C   UNL     1      -1.294  11.819  21.579  0.00  0.00    +0.000 A 
ATOM      9  C   UNL     1      -1.460  11.333  22.876  0.00  0.00    +0.000 A 
ATOM     10  C   UNL     1      -0.812  10.167  23.279  0.00  0.00    +0.000 A 
ATOM     11  C   UNL     1       0.001   9.473  22.382  0.00  0.00    +0.000 A 
ATOM     12  C   UNL     1       0.189   9.927  21.064  0.00  0.00    +0.000 A 
ATOM     13  C   UNL     1      -0.469  11.114  20.687  0.00  0.00    +0.000 A 
ENDBRANCH   1  12
BRANCH   4  14
ATOM     14  C   UNL     1       3.403   7.041  17.402  0.00  0.00    +0.000 C 
BRANCH  14  15
ATOM     15  N   UNL     1       3.962   5.844  18.015  0.00  0.00    +0.000 NA
ATOM     16  H   UNL     1       3.370   5.526  18.782  0.00  0.00    +0.000 HD
BRANCH  15  17
ATOM     17  C   UNL     1       4.184   4.736  17.068  0.00  0.00    +0.000 C 
ATOM     18  C   UNL     1       5.641   4.255  17.085  0.00  0.00    +0.000 C 
BRANCH  17  19
ATOM     19  C   UNL     1       3.204   3.553  17.269  0.00  0.00    +0.000 C 
BRANCH  19  20
ATOM     20  C   UNL     1       2.649   3.445  18.671  0.00  0.00    +0.000 A 
ATOM     21  C   UNL     1       1.356   3.886  18.963  0.00  0.00    +0.000 A 
ATOM     22  C   UNL     1       0.874   3.741  20.255  0.00  0.00    +0.000 A 
ATOM     23  N   UNL     1       1.582   3.194  21.264  0.00  0.00    +0.000 NA
ATOM     24  C   UNL     1       2.834   2.786  20.968  0.00  0.00    +0.000 A 
ATOM     25  C   UNL     1       3.405   2.887  19.707  0.00  0.00    +0.000 A 
ENDBRANCH  19  20
ENDBRANCH  17  19
ENDBRANCH  15  17
ENDBRANCH  14  15
ENDBRANCH   4  14
TORSDOF 6
ENDMDL
MODEL 6
REMARK VINA RESULT:      -7.5      5.319      8.925
REMARK  Name = 
REMARK  8 active torsions:
REMARK  status: ('A' for Active; 'I' for Inactive)
REMARK    1  A    between atoms: C_1  and  C_2
REMARK    2  A    between atoms: C_6  and  C_7
REMARK    3  A    between atoms: C_10  and  C_11
REMARK    4  A    between atoms: C_11  and  N_12
REMARK    5  A    between atoms: N_12  and  C_13
REMARK    6  A    between atoms: C_13  and  C_14
REMARK    7  A    between atoms: C_13  and  C_15
REMARK    8  A    between atoms: C_15  and  C_16
REMARK                            x       y       z     vdW  Elec       q    Type
REMARK                         _______ _______ _______ _____ _____    ______ ____
ROOT
ATOM      1  C   UNL     1       5.399   5.142  18.303  0.00  0.00    +0.000 A 
ATOM      2  N   UNL     1       5.083   6.078  17.388  0.00  0.00    +0.000 NA
ATOM      3  C   UNL     1       5.972   7.072  17.214  0.00  0.00    +0.000 A 
ATOM      4  C   UNL     1       7.166   7.149  17.898  0.00  0.00    +0.000 A 
ATOM      5  C   UNL     1       7.388   6.150  18.815  0.00  0.00    +0.000 A 
ATOM      6  N   UNL     1       6.531   5.141  19.035  0.00  0.00    +0.000 NA
ENDROOT
BRANCH   1  12
ATOM      7  C   UNL     1       2.323   2.695  21.410  0.00  0.00    +0.000 C 
ATOM      8  C   UNL     1       2.924   2.837  20.044  0.00  0.00    +0.000 A 
ATOM      9  C   UNL     1       2.562   1.991  18.995  0.00  0.00    +0.000 A 
ATOM     10  C   UNL     1       3.128   2.156  17.732  0.00  0.00    +0.000 A 
ATOM     11  C   UNL     1       4.054   3.175  17.507  0.00  0.00    +0.000 A 
ATOM     12  C   UNL     1       4.440   4.050  18.537  0.00  0.00    +0.000 A 
ATOM     13  C   UNL     1       3.862   3.855  19.807  0.00  0.00    +0.000 A 
ENDBRANCH   1  12
BRANCH   4  14
ATOM     14  C   UNL     1       8.166   8.223  17.654  0.00  0.00    +0.000 C 
BRANCH  14  15
ATOM     15  N   UNL     1       8.774   8.690  18.892  0.00  0.00    +0.000 NA
ATOM     16  H   UNL     1       9.683   8.250  19.031  0.00  0.00    +0.000 HD
BRANCH  15  17
ATOM     17  C   UNL     1       8.913  10.155  18.974  0.00  0.00    +0.000 C 
ATOM     18  C   UNL     1       9.535  10.596  20.305  0.00  0.00    +0.000 C 
BRANCH  17  19
ATOM     19  C   UNL     1       9.678  10.765  17.772  0.00  0.00    +0.000 C 
BRANCH  19  20
ATOM     20  C   UNL     1       9.807  12.271  17.824  0.00  0.00    +0.000 A 
ATOM     21  C   UNL     1      11.056  12.885  17.699  0.00  0.00    +0.000 A 
ATOM     22  C   UNL     1      11.127  14.269  17.722  0.00  0.00    +0.000 A 
ATOM     23  N   UNL     1      10.053  15.075  17.859  0.00  0.00    +0.000 NA
ATOM     24  C   UNL     1       8.857  14.465  17.992  0.00  0.00    +0.000 A 
ATOM     25  C   UNL     1       8.683  13.088  17.981  0.00  0.00    +0.000 A 
ENDBRANCH  19  20
ENDBRANCH  17  19
ENDBRANCH  15  17
ENDBRANCH  14  15
ENDBRANCH   4  14
TORSDOF 6
ENDMDL
MODEL 7
REMARK VINA RESULT:      -7.4      5.167      8.621
REMARK  Name = 
REMARK  8 active torsions:
REMARK  status: ('A' for Active; 'I' for Inactive)
REMARK    1  A    between atoms: C_1  and  C_2
REMARK    2  A    between atoms: C_6  and  C_7
REMARK    3  A    between atoms: C_10  and  C_11
REMARK    4  A    between atoms: C_11  and  N_12
REMARK    5  A    between atoms: N_12  and  C_13
REMARK    6  A    between atoms: C_13  and  C_14
REMARK    7  A    between atoms: C_13  and  C_15
REMARK    8  A    between atoms: C_15  and  C_16
REMARK                            x       y       z     vdW  Elec       q    Type
REMARK                         _______ _______ _______ _____ _____    ______ ____
ROOT
ATOM      1  C   UNL     1       5.016   4.838  18.512  0.00  0.00    +0.000 A 
ATOM      2  N   UNL     1       4.900   5.799  17.576  0.00  0.00    +0.000 NA
ATOM      3  C   UNL     1       5.919   6.672  17.483  0.00  0.00    +0.000 A 
ATOM      4  C   UNL     1       7.050   6.604  18.268  0.00  0.00    +0.000 A 
ATOM      5  C   UNL     1       7.065   5.592  19.198  0.00  0.00    +0.000 A 
ATOM      6  N   UNL     1       6.072   4.700  19.340  0.00  0.00    +0.000 NA
ENDROOT
BRANCH   1  12
ATOM      7  C   UNL     1       1.414   2.806  21.340  0.00  0.00    +0.000 C 
ATOM      8  C   UNL     1       2.137   2.868  20.029  0.00  0.00    +0.000 A 
ATOM      9  C   UNL     1       1.758   2.073  18.947  0.00  0.00    +0.000 A 
ATOM     10  C   UNL     1       2.440   2.162  17.735  0.00  0.00    +0.000 A 
ATOM     11  C   UNL     1       3.503   3.055  17.595  0.00  0.00    +0.000 A 
ATOM     12  C   UNL     1       3.912   3.877  18.660  0.00  0.00    +0.000 A 
ATOM     13  C   UNL     1       3.212   3.759  19.876  0.00  0.00    +0.000 A 
ENDBRANCH   1  12
BRANCH   4  14
ATOM     14  C   UNL     1       8.195   7.543  18.115  0.00  0.00    +0.000 C 
BRANCH  14  15
ATOM     15  N   UNL     1       7.791   8.790  17.480  0.00  0.00    +0.000 NA
ATOM     16  H   UNL     1       6.818   9.002  17.698  0.00  0.00    +0.000 HD
BRANCH  15  17
ATOM     17  C   UNL     1       8.642   9.941  17.832  0.00  0.00    +0.000 C 
ATOM     18  C   UNL     1       7.949  11.276  17.528  0.00  0.00    +0.000 C 
BRANCH  17  19
ATOM     19  C   UNL     1       9.154   9.899  19.294  0.00  0.00    +0.000 C 
BRANCH  19  20
ATOM     20  C   UNL     1       9.876  11.154  19.731  0.00  0.00    +0.000 A 
ATOM     21  C   UNL     1      11.072  11.538  19.118  0.00  0.00    +0.000 A 
ATOM     22  C   UNL     1      11.686  12.712  19.527  0.00  0.00    +0.000 A 
ATOM     23  N   UNL     1      11.199  13.519  20.492  0.00  0.00    +0.000 NA
ATOM     24  C   UNL     1      10.051  13.125  21.082  0.00  0.00    +0.000 A 
ATOM     25  C   UNL     1       9.362  11.969  20.743  0.00  0.00    +0.000 A 
ENDBRANCH  19  20
ENDBRANCH  17  19
ENDBRANCH  15  17
ENDBRANCH  14  15
ENDBRANCH   4  14
TORSDOF 6
ENDMDL
MODEL 8
REMARK VINA RESULT:      -7.4      3.840      7.689
REMARK  Name = 
REMARK  8 active torsions:
REMARK  status: ('A' for Active; 'I' for Inactive)
REMARK    1  A    between atoms: C_1  and  C_2
REMARK    2  A    between atoms: C_6  and  C_7
REMARK    3  A    between atoms: C_10  and  C_11
REMARK    4  A    between atoms: C_11  and  N_12
REMARK    5  A    between atoms: N_12  and  C_13
REMARK    6  A    between atoms: C_13  and  C_14
REMARK    7  A    between atoms: C_13  and  C_15
REMARK    8  A    between atoms: C_15  and  C_16
REMARK                            x       y       z     vdW  Elec       q    Type
REMARK                         _______ _______ _______ _____ _____    ______ ____
ROOT
ATOM      1  C   UNL     1       1.303   9.560  19.024  0.00  0.00    +0.000 A 
ATOM      2  N   UNL     1       1.150   8.992  20.235  0.00  0.00    +0.000 NA
ATOM      3  C   UNL     1       1.681   7.767  20.395  0.00  0.00    +0.000 A 
ATOM      4  C   UNL     1       2.375   7.105  19.404  0.00  0.00    +0.000 A 
ATOM      5  C   UNL     1       2.466   7.767  18.203  0.00  0.00    +0.000 A 
ATOM      6  N   UNL     1       1.947   8.986  17.986  0.00  0.00    +0.000 NA
ENDROOT
BRANCH   1  12
ATOM      7  C   UNL     1       1.895  14.516  18.581  0.00  0.00    +0.000 C 
ATOM      8  C   UNL     1       0.985  13.325  18.581  0.00  0.00    +0.000 A 
ATOM      9  C   UNL     1      -0.383  13.450  18.333  0.00  0.00    +0.000 A 
ATOM     10  C   UNL     1      -1.202  12.323  18.325  0.00  0.00    +0.000 A 
ATOM     11  C   UNL     1      -0.657  11.059  18.556  0.00  0.00    +0.000 A 
ATOM     12  C   UNL     1       0.717  10.891  18.803  0.00  0.00    +0.000 A 
ATOM     13  C   UNL     1       1.520  12.048  18.817  0.00  0.00    +0.000 A 
ENDBRANCH   1  12
BRANCH   4  14
ATOM     14  C   UNL     1       3.006   5.774  19.614  0.00  0.00    +0.000 C 
BRANCH  14  15
ATOM     15  N   UNL     1       2.325   4.728  18.863  0.00  0.00    +0.000 NA
ATOM     16  H   UNL     1       1.880   5.117  18.033  0.00  0.00    +0.000 HD
BRANCH  15  17
ATOM     17  C   UNL     1       3.199   3.605  18.478  0.00  0.00    +0.000 C 
ATOM     18  C   UNL     1       2.601   2.251  18.885  0.00  0.00    +0.000 C 
BRANCH  17  19
ATOM     19  C   UNL     1       3.584   3.616  16.977  0.00  0.00    +0.000 C 
BRANCH  19  20
ATOM     20  C   UNL     1       5.014   4.031  16.711  0.00  0.00    +0.000 A 
ATOM     21  C   UNL     1       5.494   4.137  15.403  0.00  0.00    +0.000 A 
ATOM     22  C   UNL     1       6.802   4.550  15.202  0.00  0.00    +0.000 A 
ATOM     23  N   UNL     1       7.655   4.860  16.201  0.00  0.00    +0.000 NA
ATOM     24  C   UNL     1       7.178   4.738  17.457  0.00  0.00    +0.000 A 
ATOM     25  C   UNL     1       5.886   4.334  17.761  0.00  0.00    +0.000 A 
ENDBRANCH  19  20
ENDBRANCH  17  19
ENDBRANCH  15  17
ENDBRANCH  14  15
ENDBRANCH   4  14
TORSDOF 6
ENDMDL
MODEL 9
REMARK VINA RESULT:      -7.4      3.606      8.753
REMARK  Name = 
REMARK  8 active torsions:
REMARK  status: ('A' for Active; 'I' for Inactive)
REMARK    1  A    between atoms: C_1  and  C_2
REMARK    2  A    between atoms: C_6  and  C_7
REMARK    3  A    between atoms: C_10  and  C_11
REMARK    4  A    between atoms: C_11  and  N_12
REMARK    5  A    between atoms: N_12  and  C_13
REMARK    6  A    between atoms: C_13  and  C_14
REMARK    7  A    between atoms: C_13  and  C_15
REMARK    8  A    between atoms: C_15  and  C_16
REMARK                            x       y       z     vdW  Elec       q    Type
REMARK                         _______ _______ _______ _____ _____    ______ ____
ROOT
ATOM      1  C   UNL     1       0.661   9.472  20.317  0.00  0.00    +0.000 A 
ATOM      2  N   UNL     1       0.940   9.803  19.042  0.00  0.00    +0.000 NA
ATOM      3  C   UNL     1       1.735   8.958  18.362  0.00  0.00    +0.000 A 
ATOM      4  C   UNL     1       2.235   7.791  18.899  0.00  0.00    +0.000 A 
ATOM      5  C   UNL     1       1.899   7.551  20.210  0.00  0.00    +0.000 A 
ATOM      6  N   UNL     1       1.118   8.365  20.937  0.00  0.00    +0.000 NA
ENDROOT
BRANCH   1  12
ATOM      7  C   UNL     1      -2.215  13.569  20.537  0.00  0.00    +0.000 C 
ATOM      8  C   UNL     1      -1.604  12.389  21.231  0.00  0.00    +0.000 A 
ATOM      9  C   UNL     1      -1.858  12.119  22.576  0.00  0.00    +0.000 A 
ATOM     10  C   UNL     1      -1.286  11.007  23.190  0.00  0.00    +0.000 A 
ATOM     11  C   UNL     1      -0.462  10.150  22.459  0.00  0.00    +0.000 A 
ATOM     12  C   UNL     1      -0.187  10.384  21.100  0.00  0.00    +0.000 A 
ATOM     13  C   UNL     1      -0.768  11.522  20.507  0.00  0.00    +0.000 A 
ENDBRANCH   1  12
BRANCH   4  14
ATOM     14  C   UNL     1       3.066   6.836  18.117  0.00  0.00    +0.000 C 
BRANCH  14  15
ATOM     15  N   UNL     1       2.351   5.598  17.838  0.00  0.00    +0.000 NA
ATOM     16  H   UNL     1       2.136   5.526  16.845  0.00  0.00    +0.000 HD
BRANCH  15  17
ATOM     17  C   UNL     1       3.064   4.385  18.281  0.00  0.00    +0.000 C 
ATOM     18  C   UNL     1       2.179   3.494  19.163  0.00  0.00    +0.000 C 
BRANCH  17  19
ATOM     19  C   UNL     1       3.679   3.576  17.111  0.00  0.00    +0.000 C 
BRANCH  19  20
ATOM     20  C   UNL     1       5.059   4.037  16.702  0.00  0.00    +0.000 A 
ATOM     21  C   UNL     1       6.006   4.395  17.665  0.00  0.00    +0.000 A 
ATOM     22  C   UNL     1       7.271   4.784  17.248  0.00  0.00    +0.000 A 
ATOM     23  N   UNL     1       7.652   4.841  15.955  0.00  0.00    +0.000 NA
ATOM     24  C   UNL     1       6.720   4.505  15.038  0.00  0.00    +0.000 A 
ATOM     25  C   UNL     1       5.430   4.103  15.355  0.00  0.00    +0.000 A 
ENDBRANCH  19  20
ENDBRANCH  17  19
ENDBRANCH  15  17
ENDBRANCH  14  15
ENDBRANCH   4  14
TORSDOF 6
ENDMDL
