MODEL 1
REMARK VINA RESULT:      -8.1      0.000      0.000
REMARK  Name = 
REMARK  4 active torsions:
REMARK  status: ('A' for Active; 'I' for Inactive)
REMARK    1  A    between atoms: C_1  and  N_2
REMARK    2  A    between atoms: N_2  and  C_3
REMARK    3  A    between atoms: C_3  and  C_4
REMARK    4  A    between atoms: C_10  and  C_11
REMARK                            x       y       z     vdW  Elec       q    Type
REMARK                         _______ _______ _______ _____ _____    ______ ____
ROOT
ATOM      1  C   UNL     1       3.521   4.045  17.388  0.00  0.00    +0.000 C 
ATOM      2  C   UNL     1       2.669   2.743  17.485  0.00  0.00    +0.000 C 
ATOM      3  C   UNL     1       3.352   1.666  18.341  0.00  0.00    +0.000 C 
ATOM      4  C   UNL     1       3.337   2.287  19.741  0.00  0.00    +0.000 C 
ATOM      5  C   UNL     1       2.520   3.581  19.541  0.00  0.00    +0.000 C 
ATOM      6  C   UNL     1       1.548   3.173  18.431  0.00  0.00    +0.000 C 
ATOM      7  C   UNL     1       3.418   4.640  18.836  0.00  0.00    +0.000 C 
ENDROOT
BRANCH   7   8
ATOM      8  C   UNL     1       2.905   6.080  18.868  0.00  0.00    +0.000 A 
ATOM      9  C   UNL     1       3.020   6.960  17.782  0.00  0.00    +0.000 A 
ATOM     10  C   UNL     1       2.493   8.256  17.834  0.00  0.00    +0.000 A 
ATOM     11  C   UNL     1       1.837   8.718  18.978  0.00  0.00    +0.000 A 
ATOM     12  C   UNL     1       1.304  10.017  19.037  0.00  0.00    +0.000 A 
ATOM     13  C   UNL     1       0.670  10.454  20.192  0.00  0.00    +0.000 A 
ATOM     14  F   UNL     1       0.168  11.697  20.238  0.00  0.00    +0.000 F 
ATOM     15  C   UNL     1       0.549   9.626  21.300  0.00  0.00    +0.000 A 
ATOM     16  C   UNL     1       1.065   8.331  21.248  0.00  0.00    +0.000 A 
ATOM     17  C   UNL     1       1.713   7.858  20.091  0.00  0.00    +0.000 A 
ATOM     18  C   UNL     1       2.240   6.552  20.017  0.00  0.00    +0.000 A 
ENDBRANCH   7   8
BRANCH   1  19
ATOM     19  C   UNL     1       4.975   3.840  16.925  0.00  0.00    +0.000 C 
BRANCH  19  21
ATOM     20  C   UNL     1       7.160   4.591  17.623  0.00  0.00    +0.000 C 
ATOM     21  N   UNL     1       5.914   3.963  18.045  0.00  0.00    +0.000 NA
ATOM     22  H   UNL     1       5.497   4.520  18.790  0.00  0.00    +0.000 HD
ENDBRANCH  19  21
ENDBRANCH   1  19
TORSDOF 3
ENDMDL
MODEL 2
REMARK VINA RESULT:      -8.1      3.420      6.206
REMARK  Name = 
REMARK  4 active torsions:
REMARK  status: ('A' for Active; 'I' for Inactive)
REMARK    1  A    between atoms: C_1  and  N_2
REMARK    2  A    between atoms: N_2  and  C_3
REMARK    3  A    between atoms: C_3  and  C_4
REMARK    4  A    between atoms: C_10  and  C_11
REMARK                            x       y       z     vdW  Elec       q    Type
REMARK                         _______ _______ _______ _____ _____    ______ ____
ROOT
ATOM      1  C   UNL     1       2.589   4.876  20.292  0.00  0.00    +0.000 C 
ATOM      2  C   UNL     1       2.485   3.556  21.114  0.00  0.00    +0.000 C 
ATOM      3  C   UNL     1       1.066   2.967  21.090  0.00  0.00    +0.000 C 
ATOM      4  C   UNL     1       0.893   2.565  19.621  0.00  0.00    +0.000 C 
ATOM      5  C   UNL     1       2.286   2.842  19.016  0.00  0.00    +0.000 C 
ATOM      6  C   UNL     1       3.208   2.563  20.205  0.00  0.00    +0.000 C 
ATOM      7  C   UNL     1       2.450   4.378  18.811  0.00  0.00    +0.000 C 
ENDROOT
BRANCH   7   8
ATOM      8  C   UNL     1       3.606   4.812  17.910  0.00  0.00    +0.000 A 
ATOM      9  C   UNL     1       4.413   5.927  18.181  0.00  0.00    +0.000 A 
ATOM     10  C   UNL     1       5.494   6.263  17.358  0.00  0.00    +0.000 A 
ATOM     11  C   UNL     1       5.801   5.498  16.230  0.00  0.00    +0.000 A 
ATOM     12  C   UNL     1       6.885   5.828  15.399  0.00  0.00    +0.000 A 
ATOM     13  C   UNL     1       7.158   5.058  14.276  0.00  0.00    +0.000 A 
ATOM     14  F   UNL     1       8.193   5.384  13.489  0.00  0.00    +0.000 F 
ATOM     15  C   UNL     1       6.376   3.957  13.956  0.00  0.00    +0.000 A 
ATOM     16  C   UNL     1       5.303   3.614  14.779  0.00  0.00    +0.000 A 
ATOM     17  C   UNL     1       5.001   4.374  15.925  0.00  0.00    +0.000 A 
ATOM     18  C   UNL     1       3.923   4.044  16.773  0.00  0.00    +0.000 A 
ENDBRANCH   7   8
BRANCH   1  19
ATOM     19  C   UNL     1       1.556   5.957  20.660  0.00  0.00    +0.000 C 
BRANCH  19  21
ATOM     20  C   UNL     1       1.228   8.299  21.142  0.00  0.00    +0.000 C 
ATOM     21  N   UNL     1       2.149   7.298  20.619  0.00  0.00    +0.000 NA
ATOM     22  H   UNL     1       3.006   7.317  21.169  0.00  0.00    +0.000 HD
ENDBRANCH  19  21
ENDBRANCH   1  19
TORSDOF 3
ENDMDL
MODEL 3
REMARK VINA RESULT:      -8.0      1.281      1.588
REMARK  Name = 
REMARK  4 active torsions:
REMARK  status: ('A' for Active; 'I' for Inactive)
REMARK    1  A    between atoms: C_1  and  N_2
REMARK    2  A    between atoms: N_2  and  C_3
REMARK    3  A    between atoms: C_3  and  C_4
REMARK    4  A    between atoms: C_10  and  C_11
REMARK                            x       y       z     vdW  Elec       q    Type
REMARK                         _______ _______ _______ _____ _____    ______ ____
ROOT
ATOM      1  C   UNL     1       3.200   3.932  19.196  0.00  0.00    +0.000 C 
ATOM      2  C   UNL     1       2.180   2.760  19.079  0.00  0.00    +0.000 C 
ATOM      3  C   UNL     1       2.087   1.940  20.375  0.00  0.00    +0.000 C 
ATOM      4  C   UNL     1       1.473   2.937  21.362  0.00  0.00    +0.000 C 
ATOM      5  C   UNL     1       1.157   4.160  20.474  0.00  0.00    +0.000 C 
ATOM      6  C   UNL     1       0.844   3.500  19.129  0.00  0.00    +0.000 C 
ATOM      7  C   UNL     1       2.482   4.923  20.179  0.00  0.00    +0.000 C 
ENDROOT
BRANCH   7   8
ATOM      8  C   UNL     1       2.328   6.336  19.616  0.00  0.00    +0.000 A 
ATOM      9  C   UNL     1       2.779   6.707  18.340  0.00  0.00    +0.000 A 
ATOM     10  C   UNL     1       2.574   7.999  17.841  0.00  0.00    +0.000 A 
ATOM     11  C   UNL     1       1.917   8.967  18.604  0.00  0.00    +0.000 A 
ATOM     12  C   UNL     1       1.707  10.265  18.110  0.00  0.00    +0.000 A 
ATOM     13  C   UNL     1       1.063  11.211  18.896  0.00  0.00    +0.000 A 
ATOM     14  F   UNL     1       0.871  12.448  18.416  0.00  0.00    +0.000 F 
ATOM     15  C   UNL     1       0.617  10.897  20.173  0.00  0.00    +0.000 A 
ATOM     16  C   UNL     1       0.811   9.608  20.670  0.00  0.00    +0.000 A 
ATOM     17  C   UNL     1       1.460   8.626  19.897  0.00  0.00    +0.000 A 
ATOM     18  C   UNL     1       1.664   7.316  20.379  0.00  0.00    +0.000 A 
ENDBRANCH   7   8
BRANCH   1  19
ATOM     19  C   UNL     1       4.607   3.529  19.674  0.00  0.00    +0.000 C 
BRANCH  19  21
ATOM     20  C   UNL     1       6.131   5.226  18.888  0.00  0.00    +0.000 C 
ATOM     21  N   UNL     1       5.628   3.875  18.680  0.00  0.00    +0.000 NA
ATOM     22  H   UNL     1       6.406   3.219  18.737  0.00  0.00    +0.000 HD
ENDBRANCH  19  21
ENDBRANCH   1  19
TORSDOF 3
ENDMDL
MODEL 4
REMARK VINA RESULT:      -7.9      1.316      3.150
REMARK  Name = 
REMARK  4 active torsions:
REMARK  status: ('A' for Active; 'I' for Inactive)
REMARK    1  A    between atoms: C_1  and  N_2
REMARK    2  A    between atoms: N_2  and  C_3
REMARK    3  A    between atoms: C_3  and  C_4
REMARK    4  A    between atoms: C_10  and  C_11
REMARK                            x       y       z     vdW  Elec       q    Type
REMARK                         _______ _______ _______ _____ _____    ______ ____
ROOT
ATOM      1  C   UNL     1       4.645   4.445  18.023  0.00  0.00    +0.000 C 
ATOM      2  C   UNL     1       6.147   4.633  17.653  0.00  0.00    +0.000 C 
ATOM      3  C   UNL     1       6.425   4.310  16.177  0.00  0.00    +0.000 C 
ATOM      4  C   UNL     1       5.666   5.419  15.441  0.00  0.00    +0.000 C 
ATOM      5  C   UNL     1       5.165   6.323  16.588  0.00  0.00    +0.000 C 
ATOM      6  C   UNL     1       6.275   6.156  17.628  0.00  0.00    +0.000 C 
ATOM      7  C   UNL     1       3.948   5.636  17.275  0.00  0.00    +0.000 C 
ENDROOT
BRANCH   7   8
ATOM      8  C   UNL     1       3.108   6.525  18.192  0.00  0.00    +0.000 A 
ATOM      9  C   UNL     1       2.751   6.159  19.498  0.00  0.00    +0.000 A 
ATOM     10  C   UNL     1       2.023   7.024  20.324  0.00  0.00    +0.000 A 
ATOM     11  C   UNL     1       1.621   8.283  19.869  0.00  0.00    +0.000 A 
ATOM     12  C   UNL     1       0.892   9.156  20.693  0.00  0.00    +0.000 A 
ATOM     13  C   UNL     1       0.494  10.395  20.209  0.00  0.00    +0.000 A 
ATOM     14  F   UNL     1      -0.205  11.219  21.003  0.00  0.00    +0.000 F 
ATOM     15  C   UNL     1       0.808  10.794  18.916  0.00  0.00    +0.000 A 
ATOM     16  C   UNL     1       1.541   9.938  18.094  0.00  0.00    +0.000 A 
ATOM     17  C   UNL     1       1.959   8.676  18.555  0.00  0.00    +0.000 A 
ATOM     18  C   UNL     1       2.704   7.797  17.741  0.00  0.00    +0.000 A 
ENDBRANCH   7   8
BRANCH   1  19
ATOM     19  C   UNL     1       4.048   3.074  17.656  0.00  0.00    +0.000 C 
BRANCH  19  21
ATOM     20  C   UNL     1       3.863   2.504  19.993  0.00  0.00    +0.000 C 
ATOM     21  N   UNL     1       4.337   2.072  18.685  0.00  0.00    +0.000 NA
ATOM     22  H   UNL     1       3.890   1.188  18.446  0.00  0.00    +0.000 HD
ENDBRANCH  19  21
ENDBRANCH   1  19
TORSDOF 3
ENDMDL
MODEL 5
REMARK VINA RESULT:      -7.9      1.364      2.944
REMARK  Name = 
REMARK  4 active torsions:
REMARK  status: ('A' for Active; 'I' for Inactive)
REMARK    1  A    between atoms: C_1  and  N_2
REMARK    2  A    between atoms: N_2  and  C_3
REMARK    3  A    between atoms: C_3  and  C_4
REMARK    4  A    between atoms: C_10  and  C_11
REMARK                            x       y       z     vdW  Elec       q    Type
REMARK                         _______ _______ _______ _____ _____    ______ ____
ROOT
ATOM      1  C   UNL     1       4.888   5.415  18.732  0.00  0.00    +0.000 C 
ATOM      2  C   UNL     1       6.273   5.553  18.033  0.00  0.00    +0.000 C 
ATOM      3  C   UNL     1       6.430   4.574  16.858  0.00  0.00    +0.000 C 
ATOM      4  C   UNL     1       5.396   5.087  15.852  0.00  0.00    +0.000 C 
ATOM      5  C   UNL     1       4.874   6.380  16.513  0.00  0.00    +0.000 C 
ATOM      6  C   UNL     1       6.111   6.868  17.271  0.00  0.00    +0.000 C 
ATOM      7  C   UNL     1       3.897   5.999  17.664  0.00  0.00    +0.000 C 
ENDROOT
BRANCH   7   8
ATOM      8  C   UNL     1       3.020   7.131  18.200  0.00  0.00    +0.000 A 
ATOM      9  C   UNL     1       2.681   8.261  17.443  0.00  0.00    +0.000 A 
ATOM     10  C   UNL     1       1.834   9.254  17.952  0.00  0.00    +0.000 A 
ATOM     11  C   UNL     1       1.303   9.151  19.240  0.00  0.00    +0.000 A 
ATOM     12  C   UNL     1       0.452  10.141  19.758  0.00  0.00    +0.000 A 
ATOM     13  C   UNL     1      -0.050  10.020  21.047  0.00  0.00    +0.000 A 
ATOM     14  F   UNL     1      -0.859  10.974  21.532  0.00  0.00    +0.000 F 
ATOM     15  C   UNL     1       0.274   8.929  21.842  0.00  0.00    +0.000 A 
ATOM     16  C   UNL     1       1.110   7.935  21.334  0.00  0.00    +0.000 A 
ATOM     17  C   UNL     1       1.634   8.028  20.031  0.00  0.00    +0.000 A 
ATOM     18  C   UNL     1       2.479   7.033  19.497  0.00  0.00    +0.000 A 
ENDBRANCH   7   8
BRANCH   1  19
ATOM     19  C   UNL     1       4.519   3.988  19.175  0.00  0.00    +0.000 C 
BRANCH  19  21
ATOM     20  C   UNL     1       3.426   2.039  18.263  0.00  0.00    +0.000 C 
ATOM     21  N   UNL     1       3.355   3.484  18.441  0.00  0.00    +0.000 NA
ATOM     22  H   UNL     1       2.498   3.714  18.944  0.00  0.00    +0.000 HD
ENDBRANCH  19  21
ENDBRANCH   1  19
TORSDOF 3
ENDMDL
MODEL 6
REMARK VINA RESULT:      -7.8      0.902      1.787
REMARK  Name = 
REMARK  4 active torsions:
REMARK  status: ('A' for Active; 'I' for Inactive)
REMARK    1  A    between atoms: C_1  and  N_2
REMARK    2  A    between atoms: N_2  and  C_3
REMARK    3  A    between atoms: C_3  and  C_4
REMARK    4  A    between atoms: C_10  and  C_11
REMARK                            x       y       z     vdW  Elec       q    Type
REMARK                         _______ _______ _______ _____ _____    ______ ____
ROOT
ATOM      1  C   UNL     1       3.633   4.567  17.787  0.00  0.00    +0.000 C 
ATOM      2  C   UNL     1       2.911   3.297  17.244  0.00  0.00    +0.000 C 
ATOM      3  C   UNL     1       3.420   2.010  17.911  0.00  0.00    +0.000 C 
ATOM      4  C   UNL     1       2.953   2.174  19.361  0.00  0.00    +0.000 C 
ATOM      5  C   UNL     1       2.110   3.467  19.313  0.00  0.00    +0.000 C 
ATOM      6  C   UNL     1       1.534   3.416  17.896  0.00  0.00    +0.000 C 
ATOM      7  C   UNL     1       3.070   4.691  19.247  0.00  0.00    +0.000 C 
ENDROOT
BRANCH   7   8
ATOM      8  C   UNL     1       2.439   6.052  19.544  0.00  0.00    +0.000 A 
ATOM      9  C   UNL     1       1.781   6.346  20.747  0.00  0.00    +0.000 A 
ATOM     10  C   UNL     1       1.259   7.620  21.001  0.00  0.00    +0.000 A 
ATOM     11  C   UNL     1       1.373   8.643  20.056  0.00  0.00    +0.000 A 
ATOM     12  C   UNL     1       0.854   9.924  20.304  0.00  0.00    +0.000 A 
ATOM     13  C   UNL     1       0.970  10.918  19.341  0.00  0.00    +0.000 A 
ATOM     14  F   UNL     1       0.467  12.136  19.587  0.00  0.00    +0.000 F 
ATOM     15  C   UNL     1       1.596  10.669  18.127  0.00  0.00    +0.000 A 
ATOM     16  C   UNL     1       2.124   9.403  17.875  0.00  0.00    +0.000 A 
ATOM     17  C   UNL     1       2.024   8.375  18.831  0.00  0.00    +0.000 A 
ATOM     18  C   UNL     1       2.554   7.089  18.597  0.00  0.00    +0.000 A 
ENDBRANCH   7   8
BRANCH   1  19
ATOM     19  C   UNL     1       5.171   4.515  17.740  0.00  0.00    +0.000 C 
BRANCH  19  21
ATOM     20  C   UNL     1       6.781   5.536  19.219  0.00  0.00    +0.000 C 
ATOM     21  N   UNL     1       5.748   4.517  19.088  0.00  0.00    +0.000 NA
ATOM     22  H   UNL     1       5.019   4.692  19.779  0.00  0.00    +0.000 HD
ENDBRANCH  19  21
ENDBRANCH   1  19
TORSDOF 3
ENDMDL
MODEL 7
REMARK VINA RESULT:      -7.8      3.946      6.383
REMARK  Name = 
REMARK  4 active torsions:
REMARK  status: ('A' for Active; 'I' for Inactive)
REMARK    1  A    between atoms: C_1  and  N_2
REMARK    2  A    between atoms: N_2  and  C_3
REMARK    3  A    between atoms: C_3  and  C_4
REMARK    4  A    between atoms: C_10  and  C_11
REMARK                            x       y       z     vdW  Elec       q    Type
REMARK                         _______ _______ _______ _____ _____    ______ ____
ROOT
ATOM      1  C   UNL     1       3.076   2.890  18.382  0.00  0.00    +0.000 C 
ATOM      2  C   UNL     1       1.563   3.246  18.491  0.00  0.00    +0.000 C 
ATOM      3  C   UNL     1       1.153   3.608  19.927  0.00  0.00    +0.000 C 
ATOM      4  C   UNL     1       1.915   4.914  20.175  0.00  0.00    +0.000 C 
ATOM      5  C   UNL     1       2.553   5.215  18.803  0.00  0.00    +0.000 C 
ATOM      6  C   UNL     1       1.520   4.628  17.838  0.00  0.00    +0.000 C 
ATOM      7  C   UNL     1       3.779   4.275  18.601  0.00  0.00    +0.000 C 
ENDROOT
BRANCH   7   8
ATOM      8  C   UNL     1       4.736   4.659  17.472  0.00  0.00    +0.000 A 
ATOM      9  C   UNL     1       5.734   5.635  17.611  0.00  0.00    +0.000 A 
ATOM     10  C   UNL     1       6.624   5.922  16.569  0.00  0.00    +0.000 A 
ATOM     11  C   UNL     1       6.542   5.246  15.349  0.00  0.00    +0.000 A 
ATOM     12  C   UNL     1       7.431   5.528  14.299  0.00  0.00    +0.000 A 
ATOM     13  C   UNL     1       7.317   4.850  13.092  0.00  0.00    +0.000 A 
ATOM     14  F   UNL     1       8.170   5.130  12.096  0.00  0.00    +0.000 F 
ATOM     15  C   UNL     1       6.333   3.890  12.901  0.00  0.00    +0.000 A 
ATOM     16  C   UNL     1       5.451   3.595  13.940  0.00  0.00    +0.000 A 
ATOM     17  C   UNL     1       5.541   4.264  15.176  0.00  0.00    +0.000 A 
ATOM     18  C   UNL     1       4.661   3.979  16.241  0.00  0.00    +0.000 A 
ENDBRANCH   7   8
BRANCH   1  19
ATOM     19  C   UNL     1       3.564   1.808  19.364  0.00  0.00    +0.000 C 
BRANCH  19  21
ATOM     20  C   UNL     1       5.250   1.225  20.989  0.00  0.00    +0.000 C 
ATOM     21  N   UNL     1       4.874   2.148  19.925  0.00  0.00    +0.000 NA
ATOM     22  H   UNL     1       5.585   2.118  19.195  0.00  0.00    +0.000 HD
ENDBRANCH  19  21
ENDBRANCH   1  19
TORSDOF 3
ENDMDL
MODEL 8
REMARK VINA RESULT:      -7.8      1.409      1.721
REMARK  Name = 
REMARK  4 active torsions:
REMARK  status: ('A' for Active; 'I' for Inactive)
REMARK    1  A    between atoms: C_1  and  N_2
REMARK    2  A    between atoms: N_2  and  C_3
REMARK    3  A    between atoms: C_3  and  C_4
REMARK    4  A    between atoms: C_10  and  C_11
REMARK                            x       y       z     vdW  Elec       q    Type
REMARK                         _______ _______ _______ _____ _____    ______ ____
ROOT
ATOM      1  C   UNL     1       3.725   5.755  17.489  0.00  0.00    +0.000 C 
ATOM      2  C   UNL     1       3.201   4.304  17.271  0.00  0.00    +0.000 C 
ATOM      3  C   UNL     1       3.989   3.272  18.092  0.00  0.00    +0.000 C 
ATOM      4  C   UNL     1       3.625   3.640  19.534  0.00  0.00    +0.000 C 
ATOM      5  C   UNL     1       2.562   4.746  19.356  0.00  0.00    +0.000 C 
ATOM      6  C   UNL     1       1.886   4.325  18.049  0.00  0.00    +0.000 C 
ATOM      7  C   UNL     1       3.276   6.072  18.959  0.00  0.00    +0.000 C 
ENDROOT
BRANCH   7   8
ATOM      8  C   UNL     1       2.437   7.344  19.080  0.00  0.00    +0.000 A 
ATOM      9  C   UNL     1       2.184   8.202  18.000  0.00  0.00    +0.000 A 
ATOM     10  C   UNL     1       1.369   9.332  18.140  0.00  0.00    +0.000 A 
ATOM     11  C   UNL     1       0.785   9.646  19.369  0.00  0.00    +0.000 A 
ATOM     12  C   UNL     1      -0.034  10.777  19.518  0.00  0.00    +0.000 A 
ATOM     13  C   UNL     1      -0.591  11.073  20.755  0.00  0.00    +0.000 A 
ATOM     14  F   UNL     1      -1.368  12.158  20.886  0.00  0.00    +0.000 F 
ATOM     15  C   UNL     1      -0.352  10.265  21.859  0.00  0.00    +0.000 A 
ATOM     16  C   UNL     1       0.452   9.134  21.720  0.00  0.00    +0.000 A 
ATOM     17  C   UNL     1       1.029   8.807  20.479  0.00  0.00    +0.000 A 
ATOM     18  C   UNL     1       1.843   7.666  20.316  0.00  0.00    +0.000 A 
ENDBRANCH   7   8
BRANCH   1  19
ATOM     19  C   UNL     1       5.237   5.943  17.271  0.00  0.00    +0.000 C 
BRANCH  19  21
ATOM     20  C   UNL     1       5.868   5.250  15.047  0.00  0.00    +0.000 C 
ATOM     21  N   UNL     1       5.529   6.380  15.902  0.00  0.00    +0.000 NA
ATOM     22  H   UNL     1       4.721   6.862  15.510  0.00  0.00    +0.000 HD
ENDBRANCH  19  21
ENDBRANCH   1  19
TORSDOF 3
ENDMDL
MODEL 9
REMARK VINA RESULT:      -7.8      1.038      1.172
REMARK  Name = 
REMARK  4 active torsions:
REMARK  status: ('A' for Active; 'I' for Inactive)
REMARK    1  A    between atoms: C_1  and  N_2
REMARK    2  A    between atoms: N_2  and  C_3
REMARK    3  A    between atoms: C_3  and  C_4
REMARK    4  A    between atoms: C_10  and  C_11
REMARK                            x       y       z     vdW  Elec       q    Type
REMARK                         _______ _______ _______ _____ _____    ______ ____
ROOT
ATOM      1  C   UNL     1       3.748   5.237  17.712  0.00  0.00    +0.000 C 
ATOM      2  C   UNL     1       3.086   3.864  17.389  0.00  0.00    +0.000 C 
ATOM      3  C   UNL     1       3.656   2.727  18.251  0.00  0.00    +0.000 C 
ATOM      4  C   UNL     1       3.185   3.103  19.659  0.00  0.00    +0.000 C 
ATOM      5  C   UNL     1       2.283   4.331  19.412  0.00  0.00    +0.000 C 
ATOM      6  C   UNL     1       1.706   4.024  18.028  0.00  0.00    +0.000 C 
ATOM      7  C   UNL     1       3.185   5.571  19.138  0.00  0.00    +0.000 C 
ENDROOT
BRANCH   7   8
ATOM      8  C   UNL     1       2.492   6.932  19.216  0.00  0.00    +0.000 A 
ATOM      9  C   UNL     1       2.398   7.809  18.126  0.00  0.00    +0.000 A 
ATOM     10  C   UNL     1       1.711   9.025  18.225  0.00  0.00    +0.000 A 
ATOM     11  C   UNL     1       1.100   9.408  19.421  0.00  0.00    +0.000 A 
ATOM     12  C   UNL     1       0.408  10.626  19.528  0.00  0.00    +0.000 A 
ATOM     13  C   UNL     1      -0.178  10.987  20.734  0.00  0.00    +0.000 A 
ATOM     14  F   UNL     1      -0.833  12.154  20.825  0.00  0.00    +0.000 F 
ATOM     15  C   UNL     1      -0.095  10.161  21.847  0.00  0.00    +0.000 A 
ATOM     16  C   UNL     1       0.581   8.945  21.748  0.00  0.00    +0.000 A 
ATOM     17  C   UNL     1       1.185   8.550  20.540  0.00  0.00    +0.000 A 
ATOM     18  C   UNL     1       1.870   7.323  20.418  0.00  0.00    +0.000 A 
ENDBRANCH   7   8
BRANCH   1  19
ATOM     19  C   UNL     1       5.287   5.248  17.658  0.00  0.00    +0.000 C 
BRANCH  19  21
ATOM     20  C   UNL     1       7.321   5.575  18.914  0.00  0.00    +0.000 C 
ATOM     21  N   UNL     1       5.866   5.513  18.978  0.00  0.00    +0.000 NA
ATOM     22  H   UNL     1       5.513   6.396  19.343  0.00  0.00    +0.000 HD
ENDBRANCH  19  21
ENDBRANCH   1  19
TORSDOF 3
ENDMDL
