MODEL 1
REMARK VINA RESULT:      -6.5      0.000      0.000
REMARK  Name = 
REMARK  13 active torsions:
REMARK  status: ('A' for Active; 'I' for Inactive)
REMARK    1  A    between atoms: C_1  and  C_2
REMARK    2  A    between atoms: C_2  and  C_3
REMARK    3  A    between atoms: C_2  and  C_4
REMARK    4  A    between atoms: C_4  and  N_5
REMARK    5  A    between atoms: C_7  and  C_8
REMARK    6  A    between atoms: C_8  and  C_9
REMARK    7  A    between atoms: C_9  and  C_10
REMARK    8  A    between atoms: C_10  and  C_11
REMARK    9  A    between atoms: C_11  and  N_12
REMARK   10  A    between atoms: N_18  and  C_19
REMARK   11  A    between atoms: C_19  and  C_20
REMARK   12  A    between atoms: C_20  and  C_21
REMARK   13  A    between atoms: C_20  and  C_22
REMARK                            x       y       z     vdW  Elec       q    Type
REMARK                         _______ _______ _______ _____ _____    ______ ____
ROOT
ATOM      1  N   UNL     1       3.897   6.536  17.133  0.00  0.00    +0.000 N 
ATOM      2  C   UNL     1       4.865   6.892  16.080  0.00  0.00    +0.000 C 
ATOM      3  C   UNL     1       6.096   5.959  15.897  0.00  0.00    +0.000 C 
ATOM      4  N   UNL     1       7.000   6.020  17.045  0.00  0.00    +0.000 N 
ATOM      5  C   UNL     1       6.692   5.622  18.318  0.00  0.00    +0.000 C 
ATOM      6  S   UNL     1       7.823   5.747  19.537  0.00  0.00    +0.000 S 
ATOM      7  C   UNL     1       5.360   5.096  18.593  0.00  0.00    +0.000 A 
ATOM      8  N   UNL     1       5.173   4.007  19.355  0.00  0.00    +0.000 NA
ATOM      9  N   UNL     1       3.847   3.807  19.329  0.00  0.00    +0.000 N 
ATOM     10  C   UNL     1       3.169   4.721  18.579  0.00  0.00    +0.000 A 
ATOM     11  C   UNL     1       4.121   5.547  18.037  0.00  0.00    +0.000 A 
ATOM     12  H   UNL     1       7.938   6.384  16.918  0.00  0.00    +0.000 HD
ENDROOT
BRANCH   1  13
ATOM     13  C   UNL     1       2.688   7.381  17.190  0.00  0.00    +0.000 C 
BRANCH  13  15
ATOM     14  C   UNL     1       2.090   9.738  17.967  0.00  0.00    +0.000 C 
ATOM     15  C   UNL     1       2.736   8.404  18.344  0.00  0.00    +0.000 C 
ATOM     16  C   UNL     1       2.034   7.846  19.589  0.00  0.00    +0.000 C 
ENDBRANCH  13  15
ENDBRANCH   1  13
BRANCH   3  17
ATOM     17  C   UNL     1       5.774   4.507  15.481  0.00  0.00    +0.000 C 
BRANCH  17  18
ATOM     18  C   UNL     1       6.546   4.063  14.241  0.00  0.00    +0.000 C 
BRANCH  18  19
ATOM     19  C   UNL     1       5.607   3.660  13.109  0.00  0.00    +0.000 C 
BRANCH  19  20
ATOM     20  C   UNL     1       6.407   3.078  11.941  0.00  0.00    +0.000 C 
BRANCH  20  21
ATOM     21  N   UNL     1       5.955   1.737  11.638  0.00  0.00    +0.000 NA
ATOM     22  H   UNL     1       5.291   1.427  12.346  0.00  0.00    +0.000 HD
ATOM     23  H   UNL     1       6.743   1.094  11.687  0.00  0.00    +0.000 HD
ENDBRANCH  20  21
ENDBRANCH  19  20
ENDBRANCH  18  19
ENDBRANCH  17  18
ENDBRANCH   3  17
BRANCH   9  24
ATOM     24  C   UNL     1       3.288   2.678  20.050  0.00  0.00    +0.000 C 
BRANCH  24  25
ATOM     25  C   UNL     1       1.803   2.859  20.403  0.00  0.00    +0.000 C 
ATOM     26  C   UNL     1       0.899   2.069  19.455  0.00  0.00    +0.000 C 
ATOM     27  C   UNL     1       1.557   2.425  21.848  0.00  0.00    +0.000 C 
ENDBRANCH  24  25
ENDBRANCH   9  24
TORSDOF 9
ENDMDL
MODEL 2
REMARK VINA RESULT:      -6.3      2.297      5.189
REMARK  Name = 
REMARK  13 active torsions:
REMARK  status: ('A' for Active; 'I' for Inactive)
REMARK    1  A    between atoms: C_1  and  C_2
REMARK    2  A    between atoms: C_2  and  C_3
REMARK    3  A    between atoms: C_2  and  C_4
REMARK    4  A    between atoms: C_4  and  N_5
REMARK    5  A    between atoms: C_7  and  C_8
REMARK    6  A    between atoms: C_8  and  C_9
REMARK    7  A    between atoms: C_9  and  C_10
REMARK    8  A    between atoms: C_10  and  C_11
REMARK    9  A    between atoms: C_11  and  N_12
REMARK   10  A    between atoms: N_18  and  C_19
REMARK   11  A    between atoms: C_19  and  C_20
REMARK   12  A    between atoms: C_20  and  C_21
REMARK   13  A    between atoms: C_20  and  C_22
REMARK                            x       y       z     vdW  Elec       q    Type
REMARK                         _______ _______ _______ _____ _____    ______ ____
ROOT
ATOM      1  N   UNL     1       5.541   4.547  15.917  0.00  0.00    +0.000 N 
ATOM      2  C   UNL     1       6.391   5.731  15.696  0.00  0.00    +0.000 C 
ATOM      3  C   UNL     1       6.476   6.774  16.847  0.00  0.00    +0.000 C 
ATOM      4  N   UNL     1       5.202   7.461  17.051  0.00  0.00    +0.000 N 
ATOM      5  C   UNL     1       4.039   6.869  17.465  0.00  0.00    +0.000 C 
ATOM      6  S   UNL     1       2.654   7.777  17.658  0.00  0.00    +0.000 S 
ATOM      7  C   UNL     1       4.028   5.435  17.724  0.00  0.00    +0.000 A 
ATOM      8  N   UNL     1       3.418   4.914  18.800  0.00  0.00    +0.000 NA
ATOM      9  N   UNL     1       3.669   3.599  18.721  0.00  0.00    +0.000 N 
ATOM     10  C   UNL     1       4.417   3.248  17.638  0.00  0.00    +0.000 A 
ATOM     11  C   UNL     1       4.719   4.418  16.990  0.00  0.00    +0.000 A 
ATOM     12  H   UNL     1       5.144   8.460  16.881  0.00  0.00    +0.000 HD
ENDROOT
BRANCH   1  13
ATOM     13  C   UNL     1       5.586   3.530  14.848  0.00  0.00    +0.000 C 
BRANCH  13  15
ATOM     14  C   UNL     1       7.117   4.080  12.879  0.00  0.00    +0.000 C 
ATOM     15  C   UNL     1       5.696   4.156  13.442  0.00  0.00    +0.000 C 
ATOM     16  C   UNL     1       4.737   3.462  12.466  0.00  0.00    +0.000 C 
ENDBRANCH  13  15
ENDBRANCH   1  13
BRANCH   3  17
ATOM     17  C   UNL     1       7.081   6.256  18.170  0.00  0.00    +0.000 C 
BRANCH  17  18
ATOM     18  C   UNL     1       8.215   7.139  18.686  0.00  0.00    +0.000 C 
BRANCH  18  19
ATOM     19  C   UNL     1       8.239   8.491  17.981  0.00  0.00    +0.000 C 
BRANCH  19  20
ATOM     20  C   UNL     1       8.885   9.545  18.883  0.00  0.00    +0.000 C 
BRANCH  20  21
ATOM     21  N   UNL     1       9.073  10.784  18.158  0.00  0.00    +0.000 NA
ATOM     22  H   UNL     1       8.772  11.570  18.733  0.00  0.00    +0.000 HD
ATOM     23  H   UNL     1       8.475  10.790  17.334  0.00  0.00    +0.000 HD
ENDBRANCH  20  21
ENDBRANCH  19  20
ENDBRANCH  18  19
ENDBRANCH  17  18
ENDBRANCH   3  17
BRANCH   9  24
ATOM     24  C   UNL     1       3.161   2.720  19.759  0.00  0.00    +0.000 C 
BRANCH  24  25
ATOM     25  C   UNL     1       1.752   3.104  20.242  0.00  0.00    +0.000 C 
ATOM     26  C   UNL     1       0.670   2.579  19.297  0.00  0.00    +0.000 C 
ATOM     27  C   UNL     1       1.524   2.565  21.654  0.00  0.00    +0.000 C 
ENDBRANCH  24  25
ENDBRANCH   9  24
TORSDOF 9
ENDMDL
MODEL 3
REMARK VINA RESULT:      -6.2      1.181      1.428
REMARK  Name = 
REMARK  13 active torsions:
REMARK  status: ('A' for Active; 'I' for Inactive)
REMARK    1  A    between atoms: C_1  and  C_2
REMARK    2  A    between atoms: C_2  and  C_3
REMARK    3  A    between atoms: C_2  and  C_4
REMARK    4  A    between atoms: C_4  and  N_5
REMARK    5  A    between atoms: C_7  and  C_8
REMARK    6  A    between atoms: C_8  and  C_9
REMARK    7  A    between atoms: C_9  and  C_10
REMARK    8  A    between atoms: C_10  and  C_11
REMARK    9  A    between atoms: C_11  and  N_12
REMARK   10  A    between atoms: N_18  and  C_19
REMARK   11  A    between atoms: C_19  and  C_20
REMARK   12  A    between atoms: C_20  and  C_21
REMARK   13  A    between atoms: C_20  and  C_22
REMARK                            x       y       z     vdW  Elec       q    Type
REMARK                         _______ _______ _______ _____ _____    ______ ____
ROOT
ATOM      1  N   UNL     1       3.974   6.302  17.224  0.00  0.00    +0.000 N 
ATOM      2  C   UNL     1       4.956   6.742  16.218  0.00  0.00    +0.000 C 
ATOM      3  C   UNL     1       6.234   5.872  16.039  0.00  0.00    +0.000 C 
ATOM      4  N   UNL     1       7.098   5.928  17.218  0.00  0.00    +0.000 N 
ATOM      5  C   UNL     1       6.769   5.466  18.463  0.00  0.00    +0.000 C 
ATOM      6  S   UNL     1       7.855   5.593  19.722  0.00  0.00    +0.000 S 
ATOM      7  C   UNL     1       5.455   4.871  18.675  0.00  0.00    +0.000 A 
ATOM      8  N   UNL     1       5.294   3.746  19.388  0.00  0.00    +0.000 NA
ATOM      9  N   UNL     1       3.980   3.489  19.311  0.00  0.00    +0.000 N 
ATOM     10  C   UNL     1       3.284   4.401  18.575  0.00  0.00    +0.000 A 
ATOM     11  C   UNL     1       4.214   5.289  18.097  0.00  0.00    +0.000 A 
ATOM     12  H   UNL     1       8.022   6.337  17.136  0.00  0.00    +0.000 HD
ENDROOT
BRANCH   1  13
ATOM     13  C   UNL     1       2.726   7.090  17.274  0.00  0.00    +0.000 C 
BRANCH  13  15
ATOM     14  C   UNL     1       2.042   9.459  17.937  0.00  0.00    +0.000 C 
ATOM     15  C   UNL     1       2.757   8.176  18.369  0.00  0.00    +0.000 C 
ATOM     16  C   UNL     1       2.112   7.659  19.661  0.00  0.00    +0.000 C 
ENDBRANCH  13  15
ENDBRANCH   1  13
BRANCH   3  17
ATOM     17  C   UNL     1       5.991   4.425  15.558  0.00  0.00    +0.000 C 
BRANCH  17  18
ATOM     18  C   UNL     1       5.623   4.348  14.079  0.00  0.00    +0.000 C 
BRANCH  18  19
ATOM     19  C   UNL     1       6.815   3.931  13.223  0.00  0.00    +0.000 C 
BRANCH  19  20
ATOM     20  C   UNL     1       7.395   5.148  12.498  0.00  0.00    +0.000 C 
BRANCH  20  21
ATOM     21  N   UNL     1       8.510   5.695  13.241  0.00  0.00    +0.000 NA
ATOM     22  H   UNL     1       8.236   5.852  14.211  0.00  0.00    +0.000 HD
ATOM     23  H   UNL     1       8.753   6.609  12.864  0.00  0.00    +0.000 HD
ENDBRANCH  20  21
ENDBRANCH  19  20
ENDBRANCH  18  19
ENDBRANCH  17  18
ENDBRANCH   3  17
BRANCH   9  24
ATOM     24  C   UNL     1       3.451   2.308  19.971  0.00  0.00    +0.000 C 
BRANCH  24  25
ATOM     25  C   UNL     1       2.189   2.593  20.802  0.00  0.00    +0.000 C 
ATOM     26  C   UNL     1       2.351   3.851  21.658  0.00  0.00    +0.000 C 
ATOM     27  C   UNL     1       0.981   2.737  19.877  0.00  0.00    +0.000 C 
ENDBRANCH  24  25
ENDBRANCH   9  24
TORSDOF 9
ENDMDL
MODEL 4
REMARK VINA RESULT:      -6.0      0.738      1.063
REMARK  Name = 
REMARK  13 active torsions:
REMARK  status: ('A' for Active; 'I' for Inactive)
REMARK    1  A    between atoms: C_1  and  C_2
REMARK    2  A    between atoms: C_2  and  C_3
REMARK    3  A    between atoms: C_2  and  C_4
REMARK    4  A    between atoms: C_4  and  N_5
REMARK    5  A    between atoms: C_7  and  C_8
REMARK    6  A    between atoms: C_8  and  C_9
REMARK    7  A    between atoms: C_9  and  C_10
REMARK    8  A    between atoms: C_10  and  C_11
REMARK    9  A    between atoms: C_11  and  N_12
REMARK   10  A    between atoms: N_18  and  C_19
REMARK   11  A    between atoms: C_19  and  C_20
REMARK   12  A    between atoms: C_20  and  C_21
REMARK   13  A    between atoms: C_20  and  C_22
REMARK                            x       y       z     vdW  Elec       q    Type
REMARK                         _______ _______ _______ _____ _____    ______ ____
ROOT
ATOM      1  N   UNL     1       3.971   6.445  17.204  0.00  0.00    +0.000 N 
ATOM      2  C   UNL     1       4.936   6.772  16.139  0.00  0.00    +0.000 C 
ATOM      3  C   UNL     1       6.181   5.850  15.996  0.00  0.00    +0.000 C 
ATOM      4  N   UNL     1       7.081   5.970  17.143  0.00  0.00    +0.000 N 
ATOM      5  C   UNL     1       6.775   5.619  18.430  0.00  0.00    +0.000 C 
ATOM      6  S   UNL     1       7.901   5.810  19.645  0.00  0.00    +0.000 S 
ATOM      7  C   UNL     1       5.450   5.086  18.724  0.00  0.00    +0.000 A 
ATOM      8  N   UNL     1       5.276   4.027  19.529  0.00  0.00    +0.000 NA
ATOM      9  N   UNL     1       3.953   3.807  19.508  0.00  0.00    +0.000 N 
ATOM     10  C   UNL     1       3.265   4.681  18.721  0.00  0.00    +0.000 A 
ATOM     11  C   UNL     1       4.206   5.497  18.148  0.00  0.00    +0.000 A 
ATOM     12  H   UNL     1       8.015   6.342  17.003  0.00  0.00    +0.000 HD
ENDROOT
BRANCH   1  13
ATOM     13  C   UNL     1       2.750   7.275  17.224  0.00  0.00    +0.000 C 
BRANCH  13  15
ATOM     14  C   UNL     1       2.165   9.671  17.883  0.00  0.00    +0.000 C 
ATOM     15  C   UNL     1       2.782   8.346  18.334  0.00  0.00    +0.000 C 
ATOM     16  C   UNL     1       2.039   7.852  19.582  0.00  0.00    +0.000 C 
ENDBRANCH  13  15
ENDBRANCH   1  13
BRANCH   3  17
ATOM     17  C   UNL     1       5.880   4.377  15.639  0.00  0.00    +0.000 C 
BRANCH  17  18
ATOM     18  C   UNL     1       5.632   4.171  14.147  0.00  0.00    +0.000 C 
BRANCH  18  19
ATOM     19  C   UNL     1       6.869   4.507  13.320  0.00  0.00    +0.000 C 
BRANCH  19  20
ATOM     20  C   UNL     1       6.837   3.750  11.991  0.00  0.00    +0.000 C 
BRANCH  20  21
ATOM     21  N   UNL     1       6.105   2.509  12.134  0.00  0.00    +0.000 NA
ATOM     22  H   UNL     1       5.665   2.471  13.052  0.00  0.00    +0.000 HD
ATOM     23  H   UNL     1       6.754   1.726  12.097  0.00  0.00    +0.000 HD
ENDBRANCH  20  21
ENDBRANCH  19  20
ENDBRANCH  18  19
ENDBRANCH  17  18
ENDBRANCH   3  17
BRANCH   9  24
ATOM     24  C   UNL     1       3.409   2.700  20.274  0.00  0.00    +0.000 C 
BRANCH  24  25
ATOM     25  C   UNL     1       2.664   1.672  19.406  0.00  0.00    +0.000 C 
ATOM     26  C   UNL     1       1.257   2.153  19.047  0.00  0.00    +0.000 C 
ATOM     27  C   UNL     1       3.464   1.389  18.136  0.00  0.00    +0.000 C 
ENDBRANCH  24  25
ENDBRANCH   9  24
TORSDOF 9
ENDMDL
MODEL 5
REMARK VINA RESULT:      -6.0      2.516      5.656
REMARK  Name = 
REMARK  13 active torsions:
REMARK  status: ('A' for Active; 'I' for Inactive)
REMARK    1  A    between atoms: C_1  and  C_2
REMARK    2  A    between atoms: C_2  and  C_3
REMARK    3  A    between atoms: C_2  and  C_4
REMARK    4  A    between atoms: C_4  and  N_5
REMARK    5  A    between atoms: C_7  and  C_8
REMARK    6  A    between atoms: C_8  and  C_9
REMARK    7  A    between atoms: C_9  and  C_10
REMARK    8  A    between atoms: C_10  and  C_11
REMARK    9  A    between atoms: C_11  and  N_12
REMARK   10  A    between atoms: N_18  and  C_19
REMARK   11  A    between atoms: C_19  and  C_20
REMARK   12  A    between atoms: C_20  and  C_21
REMARK   13  A    between atoms: C_20  and  C_22
REMARK                            x       y       z     vdW  Elec       q    Type
REMARK                         _______ _______ _______ _____ _____    ______ ____
ROOT
ATOM      1  N   UNL     1       3.207   4.656  19.249  0.00  0.00    +0.000 N 
ATOM      2  C   UNL     1       4.340   3.735  19.451  0.00  0.00    +0.000 C 
ATOM      3  C   UNL     1       5.722   4.167  18.884  0.00  0.00    +0.000 C 
ATOM      4  N   UNL     1       5.726   4.192  17.422  0.00  0.00    +0.000 N 
ATOM      5  C   UNL     1       4.971   5.024  16.641  0.00  0.00    +0.000 C 
ATOM      6  S   UNL     1       5.074   4.945  14.979  0.00  0.00    +0.000 S 
ATOM      7  C   UNL     1       4.070   5.974  17.283  0.00  0.00    +0.000 A 
ATOM      8  N   UNL     1       3.968   7.246  16.867  0.00  0.00    +0.000 NA
ATOM      9  N   UNL     1       3.100   7.807  17.722  0.00  0.00    +0.000 N 
ATOM     10  C   UNL     1       2.639   6.950  18.676  0.00  0.00    +0.000 A 
ATOM     11  C   UNL     1       3.285   5.760  18.461  0.00  0.00    +0.000 A 
ATOM     12  H   UNL     1       6.327   3.549  16.917  0.00  0.00    +0.000 HD
ENDROOT
BRANCH   1  13
ATOM     13  C   UNL     1       1.947   4.260  19.907  0.00  0.00    +0.000 C 
BRANCH  13  15
ATOM     14  C   UNL     1       1.461   2.432  21.623  0.00  0.00    +0.000 C 
ATOM     15  C   UNL     1       1.877   2.743  20.183  0.00  0.00    +0.000 C 
ATOM     16  C   UNL     1       0.891   2.065  19.223  0.00  0.00    +0.000 C 
ENDBRANCH  13  15
ENDBRANCH   1  13
BRANCH   3  17
ATOM     17  C   UNL     1       6.317   5.456  19.493  0.00  0.00    +0.000 C 
BRANCH  17  18
ATOM     18  C   UNL     1       7.832   5.544  19.324  0.00  0.00    +0.000 C 
BRANCH  18  19
ATOM     19  C   UNL     1       8.265   6.928  18.848  0.00  0.00    +0.000 C 
BRANCH  19  20
ATOM     20  C   UNL     1       7.521   7.301  17.564  0.00  0.00    +0.000 C 
BRANCH  20  21
ATOM     21  N   UNL     1       7.563   8.732  17.353  0.00  0.00    +0.000 NA
ATOM     22  H   UNL     1       6.619   9.090  17.219  0.00  0.00    +0.000 HD
ATOM     23  H   UNL     1       8.068   8.933  16.491  0.00  0.00    +0.000 HD
ENDBRANCH  20  21
ENDBRANCH  19  20
ENDBRANCH  18  19
ENDBRANCH  17  18
ENDBRANCH   3  17
BRANCH   9  24
ATOM     24  C   UNL     1       2.767   9.212  17.570  0.00  0.00    +0.000 C 
BRANCH  24  25
ATOM     25  C   UNL     1       1.570   9.648  18.432  0.00  0.00    +0.000 C 
ATOM     26  C   UNL     1       1.650  11.131  18.796  0.00  0.00    +0.000 C 
ATOM     27  C   UNL     1       0.266   9.357  17.692  0.00  0.00    +0.000 C 
ENDBRANCH  24  25
ENDBRANCH   9  24
TORSDOF 9
ENDMDL
MODEL 6
REMARK VINA RESULT:      -5.9      0.977      1.490
REMARK  Name = 
REMARK  13 active torsions:
REMARK  status: ('A' for Active; 'I' for Inactive)
REMARK    1  A    between atoms: C_1  and  C_2
REMARK    2  A    between atoms: C_2  and  C_3
REMARK    3  A    between atoms: C_2  and  C_4
REMARK    4  A    between atoms: C_4  and  N_5
REMARK    5  A    between atoms: C_7  and  C_8
REMARK    6  A    between atoms: C_8  and  C_9
REMARK    7  A    between atoms: C_9  and  C_10
REMARK    8  A    between atoms: C_10  and  C_11
REMARK    9  A    between atoms: C_11  and  N_12
REMARK   10  A    between atoms: N_18  and  C_19
REMARK   11  A    between atoms: C_19  and  C_20
REMARK   12  A    between atoms: C_20  and  C_21
REMARK   13  A    between atoms: C_20  and  C_22
REMARK                            x       y       z     vdW  Elec       q    Type
REMARK                         _______ _______ _______ _____ _____    ______ ____
ROOT
ATOM      1  N   UNL     1       3.532   7.004  18.203  0.00  0.00    +0.000 N 
ATOM      2  C   UNL     1       4.289   7.555  17.065  0.00  0.00    +0.000 C 
ATOM      3  C   UNL     1       5.388   6.652  16.434  0.00  0.00    +0.000 C 
ATOM      4  N   UNL     1       6.507   6.439  17.350  0.00  0.00    +0.000 N 
ATOM      5  C   UNL     1       6.436   5.781  18.548  0.00  0.00    +0.000 C 
ATOM      6  S   UNL     1       7.797   5.609  19.496  0.00  0.00    +0.000 S 
ATOM      7  C   UNL     1       5.154   5.243  18.986  0.00  0.00    +0.000 A 
ATOM      8  N   UNL     1       5.048   4.020  19.528  0.00  0.00    +0.000 NA
ATOM      9  N   UNL     1       3.733   3.865  19.745  0.00  0.00    +0.000 N 
ATOM     10  C   UNL     1       2.984   4.938  19.363  0.00  0.00    +0.000 A 
ATOM     11  C   UNL     1       3.863   5.837  18.814  0.00  0.00    +0.000 A 
ATOM     12  H   UNL     1       7.424   6.797  17.104  0.00  0.00    +0.000 HD
ENDROOT
BRANCH   1  13
ATOM     13  C   UNL     1       2.423   7.847  18.690  0.00  0.00    +0.000 C 
BRANCH  13  15
ATOM     14  C   UNL     1       0.489   8.898  17.396  0.00  0.00    +0.000 C 
ATOM     15  C   UNL     1       1.996   8.914  17.660  0.00  0.00    +0.000 C 
ATOM     16  C   UNL     1       2.403  10.315  18.135  0.00  0.00    +0.000 C 
ENDBRANCH  13  15
ENDBRANCH   1  13
BRANCH   3  17
ATOM     17  C   UNL     1       4.885   5.334  15.805  0.00  0.00    +0.000 C 
BRANCH  17  18
ATOM     18  C   UNL     1       6.016   4.352  15.510  0.00  0.00    +0.000 C 
BRANCH  18  19
ATOM     19  C   UNL     1       6.559   4.528  14.095  0.00  0.00    +0.000 C 
BRANCH  19  20
ATOM     20  C   UNL     1       5.650   3.817  13.090  0.00  0.00    +0.000 C 
BRANCH  20  21
ATOM     21  N   UNL     1       6.365   2.745  12.432  0.00  0.00    +0.000 NA
ATOM     22  H   UNL     1       6.989   2.286  13.096  0.00  0.00    +0.000 HD
ATOM     23  H   UNL     1       6.962   3.131  11.703  0.00  0.00    +0.000 HD
ENDBRANCH  20  21
ENDBRANCH  19  20
ENDBRANCH  18  19
ENDBRANCH  17  18
ENDBRANCH   3  17
BRANCH   9  24
ATOM     24  C   UNL     1       3.254   2.621  20.319  0.00  0.00    +0.000 C 
BRANCH  24  25
ATOM     25  C   UNL     1       2.338   1.829  19.370  0.00  0.00    +0.000 C 
ATOM     26  C   UNL     1       0.926   2.415  19.332  0.00  0.00    +0.000 C 
ATOM     27  C   UNL     1       2.939   1.811  17.965  0.00  0.00    +0.000 C 
ENDBRANCH  24  25
ENDBRANCH   9  24
TORSDOF 9
ENDMDL
MODEL 7
REMARK VINA RESULT:      -5.8      0.800      1.086
REMARK  Name = 
REMARK  13 active torsions:
REMARK  status: ('A' for Active; 'I' for Inactive)
REMARK    1  A    between atoms: C_1  and  C_2
REMARK    2  A    between atoms: C_2  and  C_3
REMARK    3  A    between atoms: C_2  and  C_4
REMARK    4  A    between atoms: C_4  and  N_5
REMARK    5  A    between atoms: C_7  and  C_8
REMARK    6  A    between atoms: C_8  and  C_9
REMARK    7  A    between atoms: C_9  and  C_10
REMARK    8  A    between atoms: C_10  and  C_11
REMARK    9  A    between atoms: C_11  and  N_12
REMARK   10  A    between atoms: N_18  and  C_19
REMARK   11  A    between atoms: C_19  and  C_20
REMARK   12  A    between atoms: C_20  and  C_21
REMARK   13  A    between atoms: C_20  and  C_22
REMARK                            x       y       z     vdW  Elec       q    Type
REMARK                         _______ _______ _______ _____ _____    ______ ____
ROOT
ATOM      1  N   UNL     1       3.611   7.106  18.166  0.00  0.00    +0.000 N 
ATOM      2  C   UNL     1       4.371   7.678  17.039  0.00  0.00    +0.000 C 
ATOM      3  C   UNL     1       5.461   6.782  16.385  0.00  0.00    +0.000 C 
ATOM      4  N   UNL     1       6.581   6.539  17.294  0.00  0.00    +0.000 N 
ATOM      5  C   UNL     1       6.507   5.854  18.477  0.00  0.00    +0.000 C 
ATOM      6  S   UNL     1       7.868   5.650  19.418  0.00  0.00    +0.000 S 
ATOM      7  C   UNL     1       5.222   5.316  18.905  0.00  0.00    +0.000 A 
ATOM      8  N   UNL     1       5.107   4.081  19.419  0.00  0.00    +0.000 NA
ATOM      9  N   UNL     1       3.792   3.931  19.634  0.00  0.00    +0.000 N 
ATOM     10  C   UNL     1       3.051   5.018  19.279  0.00  0.00    +0.000 A 
ATOM     11  C   UNL     1       3.935   5.923  18.749  0.00  0.00    +0.000 A 
ATOM     12  H   UNL     1       7.500   6.895  17.054  0.00  0.00    +0.000 HD
ENDROOT
BRANCH   1  13
ATOM     13  C   UNL     1       2.510   7.946  18.674  0.00  0.00    +0.000 C 
BRANCH  13  15
ATOM     14  C   UNL     1       0.512   8.881  17.388  0.00  0.00    +0.000 C 
ATOM     15  C   UNL     1       2.020   8.973  17.632  0.00  0.00    +0.000 C 
ATOM     16  C   UNL     1       2.366  10.400  18.076  0.00  0.00    +0.000 C 
ENDBRANCH  13  15
ENDBRANCH   1  13
BRANCH   3  17
ATOM     17  C   UNL     1       4.948   5.482  15.727  0.00  0.00    +0.000 C 
BRANCH  17  18
ATOM     18  C   UNL     1       6.003   4.804  14.857  0.00  0.00    +0.000 C 
BRANCH  18  19
ATOM     19  C   UNL     1       5.367   3.946  13.768  0.00  0.00    +0.000 C 
BRANCH  19  20
ATOM     20  C   UNL     1       6.392   3.635  12.675  0.00  0.00    +0.000 C 
BRANCH  20  21
ATOM     21  N   UNL     1       6.053   2.401  12.001  0.00  0.00    +0.000 NA
ATOM     22  H   UNL     1       5.919   2.575  11.005  0.00  0.00    +0.000 HD
ATOM     23  H   UNL     1       5.161   2.056  12.351  0.00  0.00    +0.000 HD
ENDBRANCH  20  21
ENDBRANCH  19  20
ENDBRANCH  18  19
ENDBRANCH  17  18
ENDBRANCH   3  17
BRANCH   9  24
ATOM     24  C   UNL     1       3.304   2.678  20.181  0.00  0.00    +0.000 C 
BRANCH  24  25
ATOM     25  C   UNL     1       1.790   2.682  20.449  0.00  0.00    +0.000 C 
ATOM     26  C   UNL     1       1.044   1.763  19.480  0.00  0.00    +0.000 C 
ATOM     27  C   UNL     1       1.518   2.258  21.892  0.00  0.00    +0.000 C 
ENDBRANCH  24  25
ENDBRANCH   9  24
TORSDOF 9
ENDMDL
MODEL 8
REMARK VINA RESULT:      -5.7      2.409      5.254
REMARK  Name = 
REMARK  13 active torsions:
REMARK  status: ('A' for Active; 'I' for Inactive)
REMARK    1  A    between atoms: C_1  and  C_2
REMARK    2  A    between atoms: C_2  and  C_3
REMARK    3  A    between atoms: C_2  and  C_4
REMARK    4  A    between atoms: C_4  and  N_5
REMARK    5  A    between atoms: C_7  and  C_8
REMARK    6  A    between atoms: C_8  and  C_9
REMARK    7  A    between atoms: C_9  and  C_10
REMARK    8  A    between atoms: C_10  and  C_11
REMARK    9  A    between atoms: C_11  and  N_12
REMARK   10  A    between atoms: N_18  and  C_19
REMARK   11  A    between atoms: C_19  and  C_20
REMARK   12  A    between atoms: C_20  and  C_21
REMARK   13  A    between atoms: C_20  and  C_22
REMARK                            x       y       z     vdW  Elec       q    Type
REMARK                         _______ _______ _______ _____ _____    ______ ____
ROOT
ATOM      1  N   UNL     1       3.600   4.107  18.810  0.00  0.00    +0.000 N 
ATOM      2  C   UNL     1       4.851   3.343  18.969  0.00  0.00    +0.000 C 
ATOM      3  C   UNL     1       6.176   4.050  18.561  0.00  0.00    +0.000 C 
ATOM      4  N   UNL     1       6.248   4.278  17.119  0.00  0.00    +0.000 N 
ATOM      5  C   UNL     1       5.412   5.091  16.402  0.00  0.00    +0.000 C 
ATOM      6  S   UNL     1       5.609   5.261  14.755  0.00  0.00    +0.000 S 
ATOM      7  C   UNL     1       4.344   5.799  17.098  0.00  0.00    +0.000 A 
ATOM      8  N   UNL     1       4.066   7.087  16.845  0.00  0.00    +0.000 NA
ATOM      9  N   UNL     1       3.081   7.389  17.704  0.00  0.00    +0.000 N 
ATOM     10  C   UNL     1       2.711   6.349  18.503  0.00  0.00    +0.000 A 
ATOM     11  C   UNL     1       3.544   5.309  18.180  0.00  0.00    +0.000 A 
ATOM     12  H   UNL     1       6.966   3.808  16.578  0.00  0.00    +0.000 HD
ENDROOT
BRANCH   1  13
ATOM     13  C   UNL     1       2.386   3.441  19.320  0.00  0.00    +0.000 C 
BRANCH  13  15
ATOM     14  C   UNL     1       1.050   4.926  20.911  0.00  0.00    +0.000 C 
ATOM     15  C   UNL     1       2.085   3.805  20.789  0.00  0.00    +0.000 C 
ATOM     16  C   UNL     1       1.581   2.577  21.557  0.00  0.00    +0.000 C 
ENDBRANCH  13  15
ENDBRANCH   1  13
BRANCH   3  17
ATOM     17  C   UNL     1       6.532   5.314  19.373  0.00  0.00    +0.000 C 
BRANCH  17  18
ATOM     18  C   UNL     1       8.006   5.695  19.256  0.00  0.00    +0.000 C 
BRANCH  18  19
ATOM     19  C   UNL     1       8.178   7.160  18.867  0.00  0.00    +0.000 C 
BRANCH  19  20
ATOM     20  C   UNL     1       7.830   7.358  17.390  0.00  0.00    +0.000 C 
BRANCH  20  21
ATOM     21  N   UNL     1       6.901   8.457  17.233  0.00  0.00    +0.000 NA
ATOM     22  H   UNL     1       6.092   8.152  16.692  0.00  0.00    +0.000 HD
ATOM     23  H   UNL     1       7.341   9.199  16.691  0.00  0.00    +0.000 HD
ENDBRANCH  20  21
ENDBRANCH  19  20
ENDBRANCH  18  19
ENDBRANCH  17  18
ENDBRANCH   3  17
BRANCH   9  24
ATOM     24  C   UNL     1       2.541   8.737  17.713  0.00  0.00    +0.000 C 
BRANCH  24  25
ATOM     25  C   UNL     1       1.216   8.854  18.486  0.00  0.00    +0.000 C 
ATOM     26  C   UNL     1       1.455   9.059  19.983  0.00  0.00    +0.000 C 
ATOM     27  C   UNL     1       0.388  10.008  17.922  0.00  0.00    +0.000 C 
ENDBRANCH  24  25
ENDBRANCH   9  24
TORSDOF 9
ENDMDL
MODEL 9
REMARK VINA RESULT:      -5.7      1.630      6.413
REMARK  Name = 
REMARK  13 active torsions:
REMARK  status: ('A' for Active; 'I' for Inactive)
REMARK    1  A    between atoms: C_1  and  C_2
REMARK    2  A    between atoms: C_2  and  C_3
REMARK    3  A    between atoms: C_2  and  C_4
REMARK    4  A    between atoms: C_4  and  N_5
REMARK    5  A    between atoms: C_7  and  C_8
REMARK    6  A    between atoms: C_8  and  C_9
REMARK    7  A    between atoms: C_9  and  C_10
REMARK    8  A    between atoms: C_10  and  C_11
REMARK    9  A    between atoms: C_11  and  N_12
REMARK   10  A    between atoms: N_18  and  C_19
REMARK   11  A    between atoms: C_19  and  C_20
REMARK   12  A    between atoms: C_20  and  C_21
REMARK   13  A    between atoms: C_20  and  C_22
REMARK                            x       y       z     vdW  Elec       q    Type
REMARK                         _______ _______ _______ _____ _____    ______ ____
ROOT
ATOM      1  N   UNL     1       3.594   3.975  17.608  0.00  0.00    +0.000 N 
ATOM      2  C   UNL     1       3.132   4.818  18.725  0.00  0.00    +0.000 C 
ATOM      3  C   UNL     1       3.803   6.212  18.892  0.00  0.00    +0.000 C 
ATOM      4  N   UNL     1       5.207   6.096  19.281  0.00  0.00    +0.000 N 
ATOM      5  C   UNL     1       6.197   5.539  18.517  0.00  0.00    +0.000 C 
ATOM      6  S   UNL     1       7.763   5.472  19.086  0.00  0.00    +0.000 S 
ATOM      7  C   UNL     1       5.861   4.998  17.206  0.00  0.00    +0.000 A 
ATOM      8  N   UNL     1       6.632   5.219  16.130  0.00  0.00    +0.000 NA
ATOM      9  N   UNL     1       5.978   4.620  15.124  0.00  0.00    +0.000 N 
ATOM     10  C   UNL     1       4.814   4.022  15.505  0.00  0.00    +0.000 A 
ATOM     11  C   UNL     1       4.671   4.289  16.843  0.00  0.00    +0.000 A 
ATOM     12  H   UNL     1       5.502   6.448  20.186  0.00  0.00    +0.000 HD
ENDROOT
BRANCH   1  13
ATOM     13  C   UNL     1       2.848   2.715  17.418  0.00  0.00    +0.000 C 
BRANCH  13  15
ATOM     14  C   UNL     1       4.119   2.098  19.546  0.00  0.00    +0.000 C 
ATOM     15  C   UNL     1       2.906   1.802  18.661  0.00  0.00    +0.000 C 
ATOM     16  C   UNL     1       1.630   1.950  19.499  0.00  0.00    +0.000 C 
ENDBRANCH  13  15
ENDBRANCH   1  13
BRANCH   3  17
ATOM     17  C   UNL     1       3.599   7.193  17.717  0.00  0.00    +0.000 C 
BRANCH  17  18
ATOM     18  C   UNL     1       2.176   7.744  17.648  0.00  0.00    +0.000 C 
BRANCH  18  19
ATOM     19  C   UNL     1       2.145   9.250  17.889  0.00  0.00    +0.000 C 
BRANCH  19  20
ATOM     20  C   UNL     1       1.098   9.592  18.951  0.00  0.00    +0.000 C 
BRANCH  20  21
ATOM     21  N   UNL     1       1.270   8.755  20.119  0.00  0.00    +0.000 NA
ATOM     22  H   UNL     1       0.441   8.810  20.710  0.00  0.00    +0.000 HD
ATOM     23  H   UNL     1       2.043   9.108  20.680  0.00  0.00    +0.000 HD
ENDBRANCH  20  21
ENDBRANCH  19  20
ENDBRANCH  18  19
ENDBRANCH  17  18
ENDBRANCH   3  17
BRANCH   9  24
ATOM     24  C   UNL     1       6.534   4.681  13.784  0.00  0.00    +0.000 C 
BRANCH  24  25
ATOM     25  C   UNL     1       6.128   3.487  12.904  0.00  0.00    +0.000 C 
ATOM     26  C   UNL     1       4.799   3.741  12.190  0.00  0.00    +0.000 C 
ATOM     27  C   UNL     1       7.227   3.197  11.883  0.00  0.00    +0.000 C 
ENDBRANCH  24  25
ENDBRANCH   9  24
TORSDOF 9
ENDMDL
