MODEL 1
REMARK VINA RESULT:      -7.3      0.000      0.000
REMARK  Name = 
REMARK  6 active torsions:
REMARK  status: ('A' for Active; 'I' for Inactive)
REMARK    1  A    between atoms: C_1  and  C_2
REMARK    2  A    between atoms: N_5  and  C_6
REMARK    3  A    between atoms: C_6  and  C_7
REMARK    4  A    between atoms: C_10  and  C_11
REMARK    5  A    between atoms: C_14  and  C_15
REMARK    6  A    between atoms: C_22  and  C_23
REMARK                            x       y       z     vdW  Elec       q    Type
REMARK                         _______ _______ _______ _____ _____    ______ ____
ROOT
ATOM      1  C   UNL     1       7.622   6.765  18.014  0.00  0.00    +0.000 A 
ATOM      2  C   UNL     1       6.953   7.549  17.100  0.00  0.00    +0.000 A 
ATOM      3  O   UNL     1       7.368   8.834  17.259  0.00  0.00    +0.000 OA
ATOM      4  C   UNL     1       8.287   8.773  18.272  0.00  0.00    +0.000 A 
ATOM      5  N   UNL     1       8.467   7.560  18.761  0.00  0.00    +0.000 NA
ENDROOT
BRANCH   4   6
ATOM      6  C   UNL     1       8.919  10.028  18.665  0.00  0.00    +0.000 A 
ATOM      7  C   UNL     1       9.499  10.198  19.930  0.00  0.00    +0.000 A 
ATOM      8  C   UNL     1      10.108  11.406  20.280  0.00  0.00    +0.000 A 
ATOM      9  C   UNL     1      10.152  12.472  19.372  0.00  0.00    +0.000 A 
ATOM     10  C   UNL     1       9.559  12.312  18.110  0.00  0.00    +0.000 A 
ATOM     11  C   UNL     1       8.951  11.100  17.763  0.00  0.00    +0.000 A 
BRANCH   9  12
ATOM     12  C   UNL     1      10.841  13.765  19.732  0.00  0.00    +0.000 C 
ATOM     13  F   UNL     1      12.184  13.630  19.915  0.00  0.00    +0.000 F 
ATOM     14  F   UNL     1      10.692  14.717  18.770  0.00  0.00    +0.000 F 
ATOM     15  F   UNL     1      10.362  14.314  20.882  0.00  0.00    +0.000 F 
ENDBRANCH   9  12
ENDBRANCH   4   6
BRANCH   1  16
ATOM     16  C   UNL     1       7.500   5.311  18.280  0.00  0.00    +0.000 C 
BRANCH  16  21
ATOM     17  C   UNL     1       2.937   3.502  17.157  0.00  0.00    +0.000 C 
ATOM     18  C   UNL     1       4.128   4.121  17.787  0.00  0.00    +0.000 A 
ATOM     19  N   UNL     1       4.036   4.653  19.051  0.00  0.00    +0.000 NA
ATOM     20  C   UNL     1       5.236   5.110  19.330  0.00  0.00    +0.000 A 
ATOM     21  N   UNL     1       6.106   4.889  18.296  0.00  0.00    +0.000 N 
ATOM     22  C   UNL     1       5.406   4.277  17.278  0.00  0.00    +0.000 A 
BRANCH  22  23
ATOM     23  C   UNL     1       5.912   3.891  15.985  0.00  0.00    +0.000 C 
ATOM     24  O   UNL     1       6.262   4.673  15.105  0.00  0.00    +0.000 OA
ENDBRANCH  22  23
ENDBRANCH  16  21
ENDBRANCH   1  16
TORSDOF 5
ENDMDL
MODEL 2
REMARK VINA RESULT:      -7.3      7.466      8.829
REMARK  Name = 
REMARK  6 active torsions:
REMARK  status: ('A' for Active; 'I' for Inactive)
REMARK    1  A    between atoms: C_1  and  C_2
REMARK    2  A    between atoms: N_5  and  C_6
REMARK    3  A    between atoms: C_6  and  C_7
REMARK    4  A    between atoms: C_10  and  C_11
REMARK    5  A    between atoms: C_14  and  C_15
REMARK    6  A    between atoms: C_22  and  C_23
REMARK                            x       y       z     vdW  Elec       q    Type
REMARK                         _______ _______ _______ _____ _____    ______ ____
ROOT
ATOM      1  C   UNL     1       2.481   7.409  19.377  0.00  0.00    +0.000 A 
ATOM      2  C   UNL     1       2.209   8.277  18.343  0.00  0.00    +0.000 A 
ATOM      3  O   UNL     1       1.353   9.229  18.802  0.00  0.00    +0.000 OA
ATOM      4  C   UNL     1       1.144   8.896  20.114  0.00  0.00    +0.000 A 
ATOM      5  N   UNL     1       1.790   7.812  20.501  0.00  0.00    +0.000 NA
ENDROOT
BRANCH   4   6
ATOM      6  C   UNL     1       0.254   9.761  20.880  0.00  0.00    +0.000 A 
ATOM      7  C   UNL     1       0.039   9.570  22.251  0.00  0.00    +0.000 A 
ATOM      8  C   UNL     1      -0.812  10.418  22.967  0.00  0.00    +0.000 A 
ATOM      9  C   UNL     1      -1.465  11.479  22.325  0.00  0.00    +0.000 A 
ATOM     10  C   UNL     1      -1.265  11.664  20.948  0.00  0.00    +0.000 A 
ATOM     11  C   UNL     1      -0.412  10.814  20.237  0.00  0.00    +0.000 A 
BRANCH   9  12
ATOM     12  C   UNL     1      -2.354  12.419  23.101  0.00  0.00    +0.000 C 
ATOM     13  F   UNL     1      -3.189  13.150  22.310  0.00  0.00    +0.000 F 
ATOM     14  F   UNL     1      -3.160  11.762  23.981  0.00  0.00    +0.000 F 
ATOM     15  F   UNL     1      -1.651  13.323  23.837  0.00  0.00    +0.000 F 
ENDBRANCH   9  12
ENDBRANCH   4   6
BRANCH   1  16
ATOM     16  C   UNL     1       3.316   6.184  19.386  0.00  0.00    +0.000 C 
BRANCH  16  21
ATOM     17  C   UNL     1       0.532   2.009  18.971  0.00  0.00    +0.000 C 
ATOM     18  C   UNL     1       1.378   3.205  18.748  0.00  0.00    +0.000 A 
ATOM     19  N   UNL     1       1.789   3.529  17.477  0.00  0.00    +0.000 NA
ATOM     20  C   UNL     1       2.504   4.624  17.604  0.00  0.00    +0.000 A 
ATOM     21  N   UNL     1       2.569   5.027  18.911  0.00  0.00    +0.000 N 
ATOM     22  C   UNL     1       1.872   4.111  19.671  0.00  0.00    +0.000 A 
BRANCH  22  23
ATOM     23  C   UNL     1       1.706   4.118  21.102  0.00  0.00    +0.000 C 
ATOM     24  O   UNL     1       2.233   3.323  21.876  0.00  0.00    +0.000 OA
ENDBRANCH  22  23
ENDBRANCH  16  21
ENDBRANCH   1  16
TORSDOF 5
ENDMDL
MODEL 3
REMARK VINA RESULT:      -7.3      7.508      8.907
REMARK  Name = 
REMARK  6 active torsions:
REMARK  status: ('A' for Active; 'I' for Inactive)
REMARK    1  A    between atoms: C_1  and  C_2
REMARK    2  A    between atoms: N_5  and  C_6
REMARK    3  A    between atoms: C_6  and  C_7
REMARK    4  A    between atoms: C_10  and  C_11
REMARK    5  A    between atoms: C_14  and  C_15
REMARK    6  A    between atoms: C_22  and  C_23
REMARK                            x       y       z     vdW  Elec       q    Type
REMARK                         _______ _______ _______ _____ _____    ______ ____
ROOT
ATOM      1  C   UNL     1       2.456   7.456  19.355  0.00  0.00    +0.000 A 
ATOM      2  C   UNL     1       2.191   8.312  18.310  0.00  0.00    +0.000 A 
ATOM      3  O   UNL     1       1.342   9.276  18.755  0.00  0.00    +0.000 OA
ATOM      4  C   UNL     1       1.129   8.962  20.071  0.00  0.00    +0.000 A 
ATOM      5  N   UNL     1       1.767   7.879  20.473  0.00  0.00    +0.000 NA
ENDROOT
BRANCH   4   6
ATOM      6  C   UNL     1       0.244   9.843  20.824  0.00  0.00    +0.000 A 
ATOM      7  C   UNL     1      -0.406  10.928  20.221  0.00  0.00    +0.000 A 
ATOM      8  C   UNL     1      -1.258  11.753  20.961  0.00  0.00    +0.000 A 
ATOM      9  C   UNL     1      -1.480  11.510  22.323  0.00  0.00    +0.000 A 
ATOM     10  C   UNL     1      -0.818  10.434  22.936  0.00  0.00    +0.000 A 
ATOM     11  C   UNL     1       0.033   9.610  22.191  0.00  0.00    +0.000 A 
BRANCH   9  12
ATOM     12  C   UNL     1      -2.426  12.376  23.117  0.00  0.00    +0.000 C 
ATOM     13  F   UNL     1      -3.194  11.672  23.996  0.00  0.00    +0.000 F 
ATOM     14  F   UNL     1      -1.773  13.310  23.861  0.00  0.00    +0.000 F 
ATOM     15  F   UNL     1      -3.297  13.064  22.329  0.00  0.00    +0.000 F 
ENDBRANCH   9  12
ENDBRANCH   4   6
BRANCH   1  16
ATOM     16  C   UNL     1       3.283   6.225  19.381  0.00  0.00    +0.000 C 
BRANCH  16  21
ATOM     17  C   UNL     1       0.553   2.005  19.079  0.00  0.00    +0.000 C 
ATOM     18  C   UNL     1       1.358   3.223  18.821  0.00  0.00    +0.000 A 
ATOM     19  N   UNL     1       1.665   3.583  17.531  0.00  0.00    +0.000 NA
ATOM     20  C   UNL     1       2.367   4.689  17.630  0.00  0.00    +0.000 A 
ATOM     21  N   UNL     1       2.523   5.065  18.937  0.00  0.00    +0.000 N 
ATOM     22  C   UNL     1       1.904   4.119  19.725  0.00  0.00    +0.000 A 
BRANCH  22  23
ATOM     23  C   UNL     1       1.847   4.090  21.165  0.00  0.00    +0.000 C 
ATOM     24  O   UNL     1       2.273   3.179  21.868  0.00  0.00    +0.000 OA
ENDBRANCH  22  23
ENDBRANCH  16  21
ENDBRANCH   1  16
TORSDOF 5
ENDMDL
MODEL 4
REMARK VINA RESULT:      -7.2      6.119      7.230
REMARK  Name = 
REMARK  6 active torsions:
REMARK  status: ('A' for Active; 'I' for Inactive)
REMARK    1  A    between atoms: C_1  and  C_2
REMARK    2  A    between atoms: N_5  and  C_6
REMARK    3  A    between atoms: C_6  and  C_7
REMARK    4  A    between atoms: C_10  and  C_11
REMARK    5  A    between atoms: C_14  and  C_15
REMARK    6  A    between atoms: C_22  and  C_23
REMARK                            x       y       z     vdW  Elec       q    Type
REMARK                         _______ _______ _______ _____ _____    ______ ____
ROOT
ATOM      1  C   UNL     1       4.538   4.289  17.408  0.00  0.00    +0.000 A 
ATOM      2  C   UNL     1       4.696   4.145  18.769  0.00  0.00    +0.000 A 
ATOM      3  O   UNL     1       4.044   5.168  19.383  0.00  0.00    +0.000 OA
ATOM      4  C   UNL     1       3.507   5.896  18.354  0.00  0.00    +0.000 A 
ATOM      5  N   UNL     1       3.782   5.415  17.156  0.00  0.00    +0.000 NA
ENDROOT
BRANCH   4   6
ATOM      6  C   UNL     1       2.731   7.077  18.717  0.00  0.00    +0.000 A 
ATOM      7  C   UNL     1       2.505   8.120  17.809  0.00  0.00    +0.000 A 
ATOM      8  C   UNL     1       1.749   9.236  18.177  0.00  0.00    +0.000 A 
ATOM      9  C   UNL     1       1.200   9.334  19.462  0.00  0.00    +0.000 A 
ATOM     10  C   UNL     1       1.438   8.300  20.381  0.00  0.00    +0.000 A 
ATOM     11  C   UNL     1       2.193   7.183  20.008  0.00  0.00    +0.000 A 
BRANCH   9  12
ATOM     12  C   UNL     1       0.353  10.521  19.851  0.00  0.00    +0.000 C 
ATOM     13  F   UNL     1      -0.824  10.174  20.443  0.00  0.00    +0.000 F 
ATOM     14  F   UNL     1       0.986  11.340  20.737  0.00  0.00    +0.000 F 
ATOM     15  F   UNL     1       0.020  11.301  18.787  0.00  0.00    +0.000 F 
ENDBRANCH   9  12
ENDBRANCH   4   6
BRANCH   1  16
ATOM     16  C   UNL     1       5.086   3.467  16.302  0.00  0.00    +0.000 C 
BRANCH  16  21
ATOM     17  C   UNL     1       7.906   5.479  12.648  0.00  0.00    +0.000 C 
ATOM     18  C   UNL     1       7.296   5.057  13.931  0.00  0.00    +0.000 A 
ATOM     19  N   UNL     1       7.837   5.483  15.121  0.00  0.00    +0.000 NA
ATOM     20  C   UNL     1       7.083   4.957  16.060  0.00  0.00    +0.000 A 
ATOM     21  N   UNL     1       6.069   4.210  15.525  0.00  0.00    +0.000 N 
ATOM     22  C   UNL     1       6.203   4.237  14.153  0.00  0.00    +0.000 A 
BRANCH  22  23
ATOM     23  C   UNL     1       5.376   3.560  13.186  0.00  0.00    +0.000 C 
ATOM     24  O   UNL     1       5.797   2.881  12.253  0.00  0.00    +0.000 OA
ENDBRANCH  22  23
ENDBRANCH  16  21
ENDBRANCH   1  16
TORSDOF 5
ENDMDL
MODEL 5
REMARK VINA RESULT:      -7.2      5.593      7.121
REMARK  Name = 
REMARK  6 active torsions:
REMARK  status: ('A' for Active; 'I' for Inactive)
REMARK    1  A    between atoms: C_1  and  C_2
REMARK    2  A    between atoms: N_5  and  C_6
REMARK    3  A    between atoms: C_6  and  C_7
REMARK    4  A    between atoms: C_10  and  C_11
REMARK    5  A    between atoms: C_14  and  C_15
REMARK    6  A    between atoms: C_22  and  C_23
REMARK                            x       y       z     vdW  Elec       q    Type
REMARK                         _______ _______ _______ _____ _____    ______ ____
ROOT
ATOM      1  C   UNL     1       3.651   4.846  19.658  0.00  0.00    +0.000 A 
ATOM      2  C   UNL     1       2.573   4.632  20.489  0.00  0.00    +0.000 A 
ATOM      3  O   UNL     1       1.820   5.764  20.508  0.00  0.00    +0.000 OA
ATOM      4  C   UNL     1       2.480   6.627  19.673  0.00  0.00    +0.000 A 
ATOM      5  N   UNL     1       3.583   6.126  19.148  0.00  0.00    +0.000 NA
ENDROOT
BRANCH   4   6
ATOM      6  C   UNL     1       1.890   7.948  19.490  0.00  0.00    +0.000 A 
ATOM      7  C   UNL     1       1.234   8.614  20.534  0.00  0.00    +0.000 A 
ATOM      8  C   UNL     1       0.684   9.884  20.337  0.00  0.00    +0.000 A 
ATOM      9  C   UNL     1       0.780  10.518  19.091  0.00  0.00    +0.000 A 
ATOM     10  C   UNL     1       1.422   9.847  18.038  0.00  0.00    +0.000 A 
ATOM     11  C   UNL     1       1.972   8.577  18.240  0.00  0.00    +0.000 A 
BRANCH   9  12
ATOM     12  C   UNL     1       0.221  11.904  18.885  0.00  0.00    +0.000 C 
ATOM     13  F   UNL     1      -0.898  11.925  18.107  0.00  0.00    +0.000 F 
ATOM     14  F   UNL     1      -0.132  12.499  20.058  0.00  0.00    +0.000 F 
ATOM     15  F   UNL     1       1.107  12.746  18.287  0.00  0.00    +0.000 F 
ENDBRANCH   9  12
ENDBRANCH   4   6
BRANCH   1  16
ATOM     16  C   UNL     1       4.785   3.948  19.332  0.00  0.00    +0.000 C 
BRANCH  16  21
ATOM     17  C   UNL     1       7.150   4.920  14.995  0.00  0.00    +0.000 C 
ATOM     18  C   UNL     1       6.203   4.517  16.061  0.00  0.00    +0.000 A 
ATOM     19  N   UNL     1       4.984   3.976  15.729  0.00  0.00    +0.000 NA
ATOM     20  C   UNL     1       4.387   3.720  16.871  0.00  0.00    +0.000 A 
ATOM     21  N   UNL     1       5.175   4.070  17.934  0.00  0.00    +0.000 N 
ATOM     22  C   UNL     1       6.341   4.613  17.436  0.00  0.00    +0.000 A 
BRANCH  22  23
ATOM     23  C   UNL     1       7.443   5.149  18.194  0.00  0.00    +0.000 C 
ATOM     24  O   UNL     1       7.751   6.336  18.243  0.00  0.00    +0.000 OA
ENDBRANCH  22  23
ENDBRANCH  16  21
ENDBRANCH   1  16
TORSDOF 5
ENDMDL
MODEL 6
REMARK VINA RESULT:      -7.2      1.779      2.169
REMARK  Name = 
REMARK  6 active torsions:
REMARK  status: ('A' for Active; 'I' for Inactive)
REMARK    1  A    between atoms: C_1  and  C_2
REMARK    2  A    between atoms: N_5  and  C_6
REMARK    3  A    between atoms: C_6  and  C_7
REMARK    4  A    between atoms: C_10  and  C_11
REMARK    5  A    between atoms: C_14  and  C_15
REMARK    6  A    between atoms: C_22  and  C_23
REMARK                            x       y       z     vdW  Elec       q    Type
REMARK                         _______ _______ _______ _____ _____    ______ ____
ROOT
ATOM      1  C   UNL     1       6.970   7.179  17.494  0.00  0.00    +0.000 A 
ATOM      2  C   UNL     1       7.895   6.736  18.412  0.00  0.00    +0.000 A 
ATOM      3  O   UNL     1       8.654   7.797  18.797  0.00  0.00    +0.000 OA
ATOM      4  C   UNL     1       8.146   8.854  18.089  0.00  0.00    +0.000 A 
ATOM      5  N   UNL     1       7.145   8.533  17.292  0.00  0.00    +0.000 NA
ENDROOT
BRANCH   4   6
ATOM      6  C   UNL     1       8.772  10.153  18.306  0.00  0.00    +0.000 A 
ATOM      7  C   UNL     1       8.348  11.300  17.622  0.00  0.00    +0.000 A 
ATOM      8  C   UNL     1       8.956  12.537  17.853  0.00  0.00    +0.000 A 
ATOM      9  C   UNL     1      10.002  12.655  18.778  0.00  0.00    +0.000 A 
ATOM     10  C   UNL     1      10.441  11.506  19.455  0.00  0.00    +0.000 A 
ATOM     11  C   UNL     1       9.828  10.270  19.221  0.00  0.00    +0.000 A 
BRANCH   9  12
ATOM     12  C   UNL     1      10.637  13.995  19.058  0.00  0.00    +0.000 C 
ATOM     13  F   UNL     1      11.957  14.049  18.725  0.00  0.00    +0.000 F 
ATOM     14  F   UNL     1      10.039  15.005  18.368  0.00  0.00    +0.000 F 
ATOM     15  F   UNL     1      10.570  14.345  20.372  0.00  0.00    +0.000 F 
ENDBRANCH   9  12
ENDBRANCH   4   6
BRANCH   1  16
ATOM     16  C   UNL     1       5.945   6.416  16.742  0.00  0.00    +0.000 C 
BRANCH  16  21
ATOM     17  C   UNL     1       2.046   5.007  19.600  0.00  0.00    +0.000 C 
ATOM     18  C   UNL     1       3.000   5.705  18.705  0.00  0.00    +0.000 A 
ATOM     19  N   UNL     1       2.677   6.935  18.183  0.00  0.00    +0.000 NA
ATOM     20  C   UNL     1       3.708   7.290  17.450  0.00  0.00    +0.000 A 
ATOM     21  N   UNL     1       4.692   6.338  17.481  0.00  0.00    +0.000 N 
ATOM     22  C   UNL     1       4.245   5.293  18.262  0.00  0.00    +0.000 A 
BRANCH  22  23
ATOM     23  C   UNL     1       4.938   4.062  18.543  0.00  0.00    +0.000 C 
ATOM     24  O   UNL     1       5.907   3.954  19.290  0.00  0.00    +0.000 OA
ENDBRANCH  22  23
ENDBRANCH  16  21
ENDBRANCH   1  16
TORSDOF 5
ENDMDL
MODEL 7
REMARK VINA RESULT:      -7.2      5.721      7.257
REMARK  Name = 
REMARK  6 active torsions:
REMARK  status: ('A' for Active; 'I' for Inactive)
REMARK    1  A    between atoms: C_1  and  C_2
REMARK    2  A    between atoms: N_5  and  C_6
REMARK    3  A    between atoms: C_6  and  C_7
REMARK    4  A    between atoms: C_10  and  C_11
REMARK    5  A    between atoms: C_14  and  C_15
REMARK    6  A    between atoms: C_22  and  C_23
REMARK                            x       y       z     vdW  Elec       q    Type
REMARK                         _______ _______ _______ _____ _____    ______ ____
ROOT
ATOM      1  C   UNL     1       3.686   4.739  19.641  0.00  0.00    +0.000 A 
ATOM      2  C   UNL     1       2.583   4.435  20.407  0.00  0.00    +0.000 A 
ATOM      3  O   UNL     1       1.811   5.550  20.503  0.00  0.00    +0.000 OA
ATOM      4  C   UNL     1       2.487   6.496  19.777  0.00  0.00    +0.000 A 
ATOM      5  N   UNL     1       3.616   6.060  19.249  0.00  0.00    +0.000 NA
ENDROOT
BRANCH   4   6
ATOM      6  C   UNL     1       1.882   7.820  19.695  0.00  0.00    +0.000 A 
ATOM      7  C   UNL     1       1.916   8.576  18.516  0.00  0.00    +0.000 A 
ATOM      8  C   UNL     1       1.320   9.839  18.458  0.00  0.00    +0.000 A 
ATOM      9  C   UNL     1       0.676  10.375  19.581  0.00  0.00    +0.000 A 
ATOM     10  C   UNL     1       0.654   9.629  20.770  0.00  0.00    +0.000 A 
ATOM     11  C   UNL     1       1.250   8.364  20.822  0.00  0.00    +0.000 A 
BRANCH   9  12
ATOM     12  C   UNL     1       0.000  11.722  19.513  0.00  0.00    +0.000 C 
ATOM     13  F   UNL     1      -0.041  12.243  18.254  0.00  0.00    +0.000 F 
ATOM     14  F   UNL     1      -1.293  11.675  19.937  0.00  0.00    +0.000 F 
ATOM     15  F   UNL     1       0.615  12.660  20.284  0.00  0.00    +0.000 F 
ENDBRANCH   9  12
ENDBRANCH   4   6
BRANCH   1  16
ATOM     16  C   UNL     1       4.845   3.889  19.275  0.00  0.00    +0.000 C 
BRANCH  16  21
ATOM     17  C   UNL     1       7.129   4.952  14.915  0.00  0.00    +0.000 C 
ATOM     18  C   UNL     1       6.196   4.539  15.991  0.00  0.00    +0.000 A 
ATOM     19  N   UNL     1       4.952   4.051  15.671  0.00  0.00    +0.000 NA
ATOM     20  C   UNL     1       4.377   3.770  16.819  0.00  0.00    +0.000 A 
ATOM     21  N   UNL     1       5.203   4.053  17.872  0.00  0.00    +0.000 N 
ATOM     22  C   UNL     1       6.373   4.577  17.364  0.00  0.00    +0.000 A 
BRANCH  22  23
ATOM     23  C   UNL     1       7.511   5.047  18.112  0.00  0.00    +0.000 C 
ATOM     24  O   UNL     1       7.796   6.228  18.292  0.00  0.00    +0.000 OA
ENDBRANCH  22  23
ENDBRANCH  16  21
ENDBRANCH   1  16
TORSDOF 5
ENDMDL
MODEL 8
REMARK VINA RESULT:      -7.2      6.684      8.200
REMARK  Name = 
REMARK  6 active torsions:
REMARK  status: ('A' for Active; 'I' for Inactive)
REMARK    1  A    between atoms: C_1  and  C_2
REMARK    2  A    between atoms: N_5  and  C_6
REMARK    3  A    between atoms: C_6  and  C_7
REMARK    4  A    between atoms: C_10  and  C_11
REMARK    5  A    between atoms: C_14  and  C_15
REMARK    6  A    between atoms: C_22  and  C_23
REMARK                            x       y       z     vdW  Elec       q    Type
REMARK                         _______ _______ _______ _____ _____    ______ ____
ROOT
ATOM      1  C   UNL     1       2.717   6.377  19.587  0.00  0.00    +0.000 A 
ATOM      2  C   UNL     1       2.712   7.279  18.546  0.00  0.00    +0.000 A 
ATOM      3  O   UNL     1       1.966   8.353  18.917  0.00  0.00    +0.000 OA
ATOM      4  C   UNL     1       1.548   8.055  20.187  0.00  0.00    +0.000 A 
ATOM      5  N   UNL     1       1.964   6.882  20.627  0.00  0.00    +0.000 NA
ENDROOT
BRANCH   4   6
ATOM      6  C   UNL     1       0.716   9.048  20.858  0.00  0.00    +0.000 A 
ATOM      7  C   UNL     1       0.370   8.929  22.210  0.00  0.00    +0.000 A 
ATOM      8  C   UNL     1      -0.420   9.899  22.834  0.00  0.00    +0.000 A 
ATOM      9  C   UNL     1      -0.881  11.012  22.117  0.00  0.00    +0.000 A 
ATOM     10  C   UNL     1      -0.551  11.126  20.758  0.00  0.00    +0.000 A 
ATOM     11  C   UNL     1       0.242  10.154  20.138  0.00  0.00    +0.000 A 
BRANCH   9  12
ATOM     12  C   UNL     1      -1.704  12.079  22.796  0.00  0.00    +0.000 C 
ATOM     13  F   UNL     1      -2.567  11.586  23.728  0.00  0.00    +0.000 F 
ATOM     14  F   UNL     1      -0.931  12.990  23.451  0.00  0.00    +0.000 F 
ATOM     15  F   UNL     1      -2.466  12.792  21.922  0.00  0.00    +0.000 F 
ENDBRANCH   9  12
ENDBRANCH   4   6
BRANCH   1  16
ATOM     16  C   UNL     1       3.343   5.036  19.671  0.00  0.00    +0.000 C 
BRANCH  16  21
ATOM     17  C   UNL     1       7.007   4.591  16.247  0.00  0.00    +0.000 C 
ATOM     18  C   UNL     1       5.734   4.579  17.005  0.00  0.00    +0.000 A 
ATOM     19  N   UNL     1       4.590   4.091  16.419  0.00  0.00    +0.000 NA
ATOM     20  C   UNL     1       3.650   4.206  17.330  0.00  0.00    +0.000 A 
ATOM     21  N   UNL     1       4.141   4.746  18.487  0.00  0.00    +0.000 N 
ATOM     22  C   UNL     1       5.478   5.021  18.292  0.00  0.00    +0.000 A 
BRANCH  22  23
ATOM     23  C   UNL     1       6.386   5.628  19.232  0.00  0.00    +0.000 C 
ATOM     24  O   UNL     1       7.400   5.095  19.674  0.00  0.00    +0.000 OA
ENDBRANCH  22  23
ENDBRANCH  16  21
ENDBRANCH   1  16
TORSDOF 5
ENDMDL
MODEL 9
REMARK VINA RESULT:      -7.2      6.925      8.448
REMARK  Name = 
REMARK  6 active torsions:
REMARK  status: ('A' for Active; 'I' for Inactive)
REMARK    1  A    between atoms: C_1  and  C_2
REMARK    2  A    between atoms: N_5  and  C_6
REMARK    3  A    between atoms: C_6  and  C_7
REMARK    4  A    between atoms: C_10  and  C_11
REMARK    5  A    between atoms: C_14  and  C_15
REMARK    6  A    between atoms: C_22  and  C_23
REMARK                            x       y       z     vdW  Elec       q    Type
REMARK                         _______ _______ _______ _____ _____    ______ ____
ROOT
ATOM      1  C   UNL     1       2.398   6.478  19.937  0.00  0.00    +0.000 A 
ATOM      2  C   UNL     1       2.490   7.365  18.888  0.00  0.00    +0.000 A 
ATOM      3  O   UNL     1       1.785   8.482  19.213  0.00  0.00    +0.000 OA
ATOM      4  C   UNL     1       1.293   8.223  20.465  0.00  0.00    +0.000 A 
ATOM      5  N   UNL     1       1.626   7.035  20.936  0.00  0.00    +0.000 NA
ENDROOT
BRANCH   4   6
ATOM      6  C   UNL     1       0.485   9.266  21.085  0.00  0.00    +0.000 A 
ATOM      7  C   UNL     1       0.067  10.398  20.371  0.00  0.00    +0.000 A 
ATOM      8  C   UNL     1      -0.716  11.380  20.984  0.00  0.00    +0.000 A 
ATOM      9  C   UNL     1      -1.099  11.253  22.326  0.00  0.00    +0.000 A 
ATOM     10  C   UNL     1      -0.669  10.129  23.049  0.00  0.00    +0.000 A 
ATOM     11  C   UNL     1       0.113   9.147  22.431  0.00  0.00    +0.000 A 
BRANCH   9  12
ATOM     12  C   UNL     1      -1.974  12.293  22.981  0.00  0.00    +0.000 C 
ATOM     13  F   UNL     1      -2.893  11.765  23.837  0.00  0.00    +0.000 F 
ATOM     14  F   UNL     1      -1.255  13.187  23.714  0.00  0.00    +0.000 F 
ATOM     15  F   UNL     1      -2.683  13.027  22.080  0.00  0.00    +0.000 F 
ENDBRANCH   9  12
ENDBRANCH   4   6
BRANCH   1  16
ATOM     16  C   UNL     1       2.947   5.107  20.065  0.00  0.00    +0.000 C 
BRANCH  16  21
ATOM     17  C   UNL     1       5.889   4.096  16.105  0.00  0.00    +0.000 C 
ATOM     18  C   UNL     1       4.783   4.225  17.084  0.00  0.00    +0.000 A 
ATOM     19  N   UNL     1       3.546   3.698  16.797  0.00  0.00    +0.000 NA
ATOM     20  C   UNL     1       2.798   3.962  17.843  0.00  0.00    +0.000 A 
ATOM     21  N   UNL     1       3.503   4.637  18.803  0.00  0.00    +0.000 N 
ATOM     22  C   UNL     1       4.779   4.842  18.324  0.00  0.00    +0.000 A 
BRANCH  22  23
ATOM     23  C   UNL     1       5.853   5.540  18.983  0.00  0.00    +0.000 C 
ATOM     24  O   UNL     1       6.672   5.021  19.737  0.00  0.00    +0.000 OA
ENDBRANCH  22  23
ENDBRANCH  16  21
ENDBRANCH   1  16
TORSDOF 5
ENDMDL
