MODEL 1
REMARK VINA RESULT:      -9.3      0.000      0.000
REMARK  Name = 
REMARK  5 active torsions:
REMARK  status: ('A' for Active; 'I' for Inactive)
REMARK    1  A    between atoms: N_2  and  C_4
REMARK    2  A    between atoms: C_6  and  O_7
REMARK    3  A    between atoms: C_8  and  N_9
REMARK    4  A    between atoms: N_10  and  C_11
REMARK    5  A    between atoms: C_12  and  O_13
REMARK                            x       y       z     vdW  Elec       q    Type
REMARK                         _______ _______ _______ _____ _____    ______ ____
ROOT
ATOM      1  C   UNL     1       3.709   3.597  19.185  0.00  0.00    +0.000 A 
ATOM      2  C   UNL     1       2.706   3.970  20.082  0.00  0.00    +0.000 A 
ATOM      3  C   UNL     1       2.189   5.257  20.012  0.00  0.00    +0.000 A 
ATOM      4  C   UNL     1       2.671   6.198  19.071  0.00  0.00    +0.000 A 
ATOM      5  C   UNL     1       3.701   5.795  18.161  0.00  0.00    +0.000 A 
ATOM      6  C   UNL     1       4.212   6.677  17.178  0.00  0.00    +0.000 A 
ATOM      7  C   UNL     1       5.198   6.290  16.267  0.00  0.00    +0.000 A 
ATOM      8  C   UNL     1       5.705   5.003  16.306  0.00  0.00    +0.000 A 
ATOM      9  C   UNL     1       5.229   4.106  17.260  0.00  0.00    +0.000 A 
ATOM     10  C   UNL     1       4.233   4.474  18.205  0.00  0.00    +0.000 A 
ENDROOT
BRANCH   1  12
ATOM     11  O   UNL     1       3.638   1.396  18.536  0.00  0.00    +0.000 OA
ATOM     12  N   UNL     1       4.175   2.223  19.282  0.00  0.00    +0.000 N 
ATOM     13  O   UNL     1       5.041   1.974  20.131  0.00  0.00    +0.000 OA
ENDBRANCH   1  12
BRANCH   3  14
ATOM     14  O   UNL     1       1.163   5.588  20.859  0.00  0.00    +0.000 OA
ATOM     15  H   UNL     1       1.035   4.898  21.530  0.00  0.00    +0.000 HD
ENDBRANCH   3  14
BRANCH   4  16
ATOM     16  N   UNL     1       2.092   7.490  18.900  0.00  0.00    +0.000 NA
ATOM     17  N   UNL     1       1.927   8.122  19.963  0.00  0.00    +0.000 NA
BRANCH  17  18
ATOM     18  C   UNL     1       1.232   9.363  19.823  0.00  0.00    +0.000 A 
ATOM     19  C   UNL     1       1.209  10.122  18.631  0.00  0.00    +0.000 A 
ATOM     20  C   UNL     1       0.493  11.310  18.523  0.00  0.00    +0.000 A 
ATOM     21  C   UNL     1      -0.249  11.767  19.605  0.00  0.00    +0.000 A 
ATOM     22  C   UNL     1      -0.283  11.042  20.803  0.00  0.00    +0.000 A 
ATOM     23  C   UNL     1      -1.059  11.509  21.877  0.00  0.00    +0.000 A 
ATOM     24  C   UNL     1      -1.117  10.805  23.076  0.00  0.00    +0.000 A 
ATOM     25  C   UNL     1      -0.399   9.624  23.217  0.00  0.00    +0.000 A 
ATOM     26  C   UNL     1       0.376   9.147  22.156  0.00  0.00    +0.000 A 
ATOM     27  C   UNL     1       0.458   9.834  20.925  0.00  0.00    +0.000 A 
BRANCH  19  28
ATOM     28  O   UNL     1       1.870   9.732  17.493  0.00  0.00    +0.000 OA
ATOM     29  H   UNL     1       2.273   8.869  17.708  0.00  0.00    +0.000 HD
ENDBRANCH  19  28
ENDBRANCH  17  18
ENDBRANCH   4  16
TORSDOF 5
ENDMDL
MODEL 2
REMARK VINA RESULT:      -8.6      1.856      8.318
REMARK  Name = 
REMARK  5 active torsions:
REMARK  status: ('A' for Active; 'I' for Inactive)
REMARK    1  A    between atoms: N_2  and  C_4
REMARK    2  A    between atoms: C_6  and  O_7
REMARK    3  A    between atoms: C_8  and  N_9
REMARK    4  A    between atoms: N_10  and  C_11
REMARK    5  A    between atoms: C_12  and  O_13
REMARK                            x       y       z     vdW  Elec       q    Type
REMARK                         _______ _______ _______ _____ _____    ______ ____
ROOT
ATOM      1  C   UNL     1       0.519  11.891  19.768  0.00  0.00    +0.000 A 
ATOM      2  C   UNL     1       1.167  11.465  18.607  0.00  0.00    +0.000 A 
ATOM      3  C   UNL     1       1.515  10.125  18.487  0.00  0.00    +0.000 A 
ATOM      4  C   UNL     1       1.249   9.196  19.521  0.00  0.00    +0.000 A 
ATOM      5  C   UNL     1       0.584   9.654  20.704  0.00  0.00    +0.000 A 
ATOM      6  C   UNL     1       0.264   8.774  21.766  0.00  0.00    +0.000 A 
ATOM      7  C   UNL     1      -0.407   9.202  22.914  0.00  0.00    +0.000 A 
ATOM      8  C   UNL     1      -0.784  10.528  23.038  0.00  0.00    +0.000 A 
ATOM      9  C   UNL     1      -0.486  11.426  22.015  0.00  0.00    +0.000 A 
ATOM     10  C   UNL     1       0.203  11.021  20.840  0.00  0.00    +0.000 A 
ENDROOT
BRANCH   1  12
ATOM     11  O   UNL     1       0.954  14.076  20.322  0.00  0.00    +0.000 OA
ATOM     12  N   UNL     1       0.142  13.295  19.811  0.00  0.00    +0.000 N 
ATOM     13  O   UNL     1      -0.976  13.599  19.374  0.00  0.00    +0.000 OA
ENDBRANCH   1  12
BRANCH   3  14
ATOM     14  O   UNL     1       2.096   9.711  17.316  0.00  0.00    +0.000 OA
ATOM     15  H   UNL     1       1.602   8.970  16.930  0.00  0.00    +0.000 HD
ENDBRANCH   3  14
BRANCH   4  16
ATOM     16  N   UNL     1       1.496   7.798  19.389  0.00  0.00    +0.000 NA
ATOM     17  N   UNL     1       2.683   7.508  19.140  0.00  0.00    +0.000 NA
BRANCH  17  18
ATOM     18  C   UNL     1       2.922   6.124  18.878  0.00  0.00    +0.000 A 
ATOM     19  C   UNL     1       2.319   5.070  19.601  0.00  0.00    +0.000 A 
ATOM     20  C   UNL     1       2.550   3.734  19.294  0.00  0.00    +0.000 A 
ATOM     21  C   UNL     1       3.382   3.405  18.231  0.00  0.00    +0.000 A 
ATOM     22  C   UNL     1       3.988   4.409  17.465  0.00  0.00    +0.000 A 
ATOM     23  C   UNL     1       4.806   4.057  16.378  0.00  0.00    +0.000 A 
ATOM     24  C   UNL     1       5.414   5.034  15.594  0.00  0.00    +0.000 A 
ATOM     25  C   UNL     1       5.211   6.376  15.888  0.00  0.00    +0.000 A 
ATOM     26  C   UNL     1       4.399   6.741  16.964  0.00  0.00    +0.000 A 
ATOM     27  C   UNL     1       3.765   5.778  17.781  0.00  0.00    +0.000 A 
BRANCH  19  28
ATOM     28  O   UNL     1       1.445   5.290  20.638  0.00  0.00    +0.000 OA
ATOM     29  H   UNL     1       0.554   5.163  20.260  0.00  0.00    +0.000 HD
ENDBRANCH  19  28
ENDBRANCH  17  18
ENDBRANCH   4  16
TORSDOF 5
ENDMDL
MODEL 3
REMARK VINA RESULT:      -8.5      1.848      8.278
REMARK  Name = 
REMARK  5 active torsions:
REMARK  status: ('A' for Active; 'I' for Inactive)
REMARK    1  A    between atoms: N_2  and  C_4
REMARK    2  A    between atoms: C_6  and  O_7
REMARK    3  A    between atoms: C_8  and  N_9
REMARK    4  A    between atoms: N_10  and  C_11
REMARK    5  A    between atoms: C_12  and  O_13
REMARK                            x       y       z     vdW  Elec       q    Type
REMARK                         _______ _______ _______ _____ _____    ______ ____
ROOT
ATOM      1  C   UNL     1      -0.535  11.462  19.582  0.00  0.00    +0.000 A 
ATOM      2  C   UNL     1       0.162  11.091  18.430  0.00  0.00    +0.000 A 
ATOM      3  C   UNL     1       1.048  10.023  18.498  0.00  0.00    +0.000 A 
ATOM      4  C   UNL     1       1.273   9.324  19.708  0.00  0.00    +0.000 A 
ATOM      5  C   UNL     1       0.548   9.722  20.878  0.00  0.00    +0.000 A 
ATOM      6  C   UNL     1       0.706   9.051  22.115  0.00  0.00    +0.000 A 
ATOM      7  C   UNL     1      -0.014   9.411  23.257  0.00  0.00    +0.000 A 
ATOM      8  C   UNL     1      -0.920  10.457  23.199  0.00  0.00    +0.000 A 
ATOM      9  C   UNL     1      -1.102  11.142  22.000  0.00  0.00    +0.000 A 
ATOM     10  C   UNL     1      -0.378  10.804  20.825  0.00  0.00    +0.000 A 
ENDROOT
BRANCH   1  12
ATOM     11  O   UNL     1      -2.635  12.259  19.110  0.00  0.00    +0.000 OA
ATOM     12  N   UNL     1      -1.479  12.558  19.431  0.00  0.00    +0.000 N 
ATOM     13  O   UNL     1      -1.049  13.708  19.594  0.00  0.00    +0.000 OA
ENDBRANCH   1  12
BRANCH   3  14
ATOM     14  O   UNL     1       1.680   9.633  17.345  0.00  0.00    +0.000 OA
ATOM     15  H   UNL     1       2.514  10.117  17.229  0.00  0.00    +0.000 HD
ENDBRANCH   3  14
BRANCH   4  16
ATOM     16  N   UNL     1       2.093   8.160  19.790  0.00  0.00    +0.000 NA
ATOM     17  N   UNL     1       2.018   7.410  18.797  0.00  0.00    +0.000 NA
BRANCH  17  18
ATOM     18  C   UNL     1       2.733   6.178  18.918  0.00  0.00    +0.000 A 
ATOM     19  C   UNL     1       2.423   5.179  19.868  0.00  0.00    +0.000 A 
ATOM     20  C   UNL     1       3.121   3.978  19.934  0.00  0.00    +0.000 A 
ATOM     21  C   UNL     1       4.145   3.726  19.029  0.00  0.00    +0.000 A 
ATOM     22  C   UNL     1       4.479   4.671  18.050  0.00  0.00    +0.000 A 
ATOM     23  C   UNL     1       5.500   4.387  17.129  0.00  0.00    +0.000 A 
ATOM     24  C   UNL     1       5.847   5.304  16.140  0.00  0.00    +0.000 A 
ATOM     25  C   UNL     1       5.176   6.518  16.062  0.00  0.00    +0.000 A 
ATOM     26  C   UNL     1       4.157   6.813  16.970  0.00  0.00    +0.000 A 
ATOM     27  C   UNL     1       3.777   5.907  17.985  0.00  0.00    +0.000 A 
BRANCH  19  28
ATOM     28  O   UNL     1       1.400   5.311  20.774  0.00  0.00    +0.000 OA
ATOM     29  H   UNL     1       1.464   4.531  21.357  0.00  0.00    +0.000 HD
ENDBRANCH  19  28
ENDBRANCH  17  18
ENDBRANCH   4  16
TORSDOF 5
ENDMDL
MODEL 4
REMARK VINA RESULT:      -8.3      2.326      7.720
REMARK  Name = 
REMARK  5 active torsions:
REMARK  status: ('A' for Active; 'I' for Inactive)
REMARK    1  A    between atoms: N_2  and  C_4
REMARK    2  A    between atoms: C_6  and  O_7
REMARK    3  A    between atoms: C_8  and  N_9
REMARK    4  A    between atoms: N_10  and  C_11
REMARK    5  A    between atoms: C_12  and  O_13
REMARK                            x       y       z     vdW  Elec       q    Type
REMARK                         _______ _______ _______ _____ _____    ______ ____
ROOT
ATOM      1  C   UNL     1      -0.613  10.978  19.437  0.00  0.00    +0.000 A 
ATOM      2  C   UNL     1       0.026  10.652  18.238  0.00  0.00    +0.000 A 
ATOM      3  C   UNL     1       1.044   9.707  18.257  0.00  0.00    +0.000 A 
ATOM      4  C   UNL     1       1.459   9.091  19.461  0.00  0.00    +0.000 A 
ATOM      5  C   UNL     1       0.792   9.440  20.679  0.00  0.00    +0.000 A 
ATOM      6  C   UNL     1       1.139   8.844  21.916  0.00  0.00    +0.000 A 
ATOM      7  C   UNL     1       0.479   9.156  23.107  0.00  0.00    +0.000 A 
ATOM      8  C   UNL     1      -0.555  10.077  23.101  0.00  0.00    +0.000 A 
ATOM      9  C   UNL     1      -0.925  10.686  21.904  0.00  0.00    +0.000 A 
ATOM     10  C   UNL     1      -0.267  10.395  20.679  0.00  0.00    +0.000 A 
ENDROOT
BRANCH   1  12
ATOM     11  O   UNL     1      -2.802  11.505  18.990  0.00  0.00    +0.000 OA
ATOM     12  N   UNL     1      -1.699  11.941  19.341  0.00  0.00    +0.000 N 
ATOM     13  O   UNL     1      -1.432  13.127  19.574  0.00  0.00    +0.000 OA
ENDBRANCH   1  12
BRANCH   3  14
ATOM     14  O   UNL     1       1.619   9.354  17.063  0.00  0.00    +0.000 OA
ATOM     15  H   UNL     1       1.566   8.395  16.926  0.00  0.00    +0.000 HD
ENDBRANCH   3  14
BRANCH   4  16
ATOM     16  N   UNL     1       2.425   8.043  19.502  0.00  0.00    +0.000 NA
ATOM     17  N   UNL     1       2.235   7.138  18.665  0.00  0.00    +0.000 NA
BRANCH  17  18
ATOM     18  C   UNL     1       3.118   6.019  18.779  0.00  0.00    +0.000 A 
ATOM     19  C   UNL     1       4.423   5.988  18.236  0.00  0.00    +0.000 A 
ATOM     20  C   UNL     1       5.266   4.893  18.396  0.00  0.00    +0.000 A 
ATOM     21  C   UNL     1       4.835   3.795  19.130  0.00  0.00    +0.000 A 
ATOM     22  C   UNL     1       3.561   3.781  19.711  0.00  0.00    +0.000 A 
ATOM     23  C   UNL     1       3.154   2.671  20.470  0.00  0.00    +0.000 A 
ATOM     24  C   UNL     1       1.896   2.634  21.066  0.00  0.00    +0.000 A 
ATOM     25  C   UNL     1       1.029   3.708  20.909  0.00  0.00    +0.000 A 
ATOM     26  C   UNL     1       1.420   4.820  20.158  0.00  0.00    +0.000 A 
ATOM     27  C   UNL     1       2.689   4.893  19.541  0.00  0.00    +0.000 A 
BRANCH  19  28
ATOM     28  O   UNL     1       4.958   7.041  17.536  0.00  0.00    +0.000 OA
ATOM     29  H   UNL     1       4.887   6.792  16.595  0.00  0.00    +0.000 HD
ENDBRANCH  19  28
ENDBRANCH  17  18
ENDBRANCH   4  16
TORSDOF 5
ENDMDL
MODEL 5
REMARK VINA RESULT:      -8.0      2.442      7.793
REMARK  Name = 
REMARK  5 active torsions:
REMARK  status: ('A' for Active; 'I' for Inactive)
REMARK    1  A    between atoms: N_2  and  C_4
REMARK    2  A    between atoms: C_6  and  O_7
REMARK    3  A    between atoms: C_8  and  N_9
REMARK    4  A    between atoms: N_10  and  C_11
REMARK    5  A    between atoms: C_12  and  O_13
REMARK                            x       y       z     vdW  Elec       q    Type
REMARK                         _______ _______ _______ _____ _____    ______ ____
ROOT
ATOM      1  C   UNL     1       0.740  11.938  20.281  0.00  0.00    +0.000 A 
ATOM      2  C   UNL     1       1.401  11.886  19.053  0.00  0.00    +0.000 A 
ATOM      3  C   UNL     1       1.742  10.646  18.527  0.00  0.00    +0.000 A 
ATOM      4  C   UNL     1       1.455   9.445  19.219  0.00  0.00    +0.000 A 
ATOM      5  C   UNL     1       0.777   9.521  20.478  0.00  0.00    +0.000 A 
ATOM      6  C   UNL     1       0.435   8.359  21.211  0.00  0.00    +0.000 A 
ATOM      7  C   UNL     1      -0.249   8.417  22.427  0.00  0.00    +0.000 A 
ATOM      8  C   UNL     1      -0.619   9.643  22.952  0.00  0.00    +0.000 A 
ATOM      9  C   UNL     1      -0.301  10.810  22.261  0.00  0.00    +0.000 A 
ATOM     10  C   UNL     1       0.403  10.782  21.026  0.00  0.00    +0.000 A 
ENDROOT
BRANCH   1  12
ATOM     11  O   UNL     1       1.106  13.777  21.605  0.00  0.00    +0.000 OA
ATOM     12  N   UNL     1       0.371  13.264  20.753  0.00  0.00    +0.000 N 
ATOM     13  O   UNL     1      -0.669  13.761  20.302  0.00  0.00    +0.000 OA
ENDBRANCH   1  12
BRANCH   3  14
ATOM     14  O   UNL     1       2.338  10.610  17.293  0.00  0.00    +0.000 OA
ATOM     15  H   UNL     1       2.431   9.695  16.982  0.00  0.00    +0.000 HD
ENDBRANCH   3  14
BRANCH   4  16
ATOM     16  N   UNL     1       1.695   8.154  18.662  0.00  0.00    +0.000 NA
ATOM     17  N   UNL     1       2.583   7.501  19.247  0.00  0.00    +0.000 NA
BRANCH  17  18
ATOM     18  C   UNL     1       2.924   6.260  18.625  0.00  0.00    +0.000 A 
ATOM     19  C   UNL     1       3.786   6.149  17.511  0.00  0.00    +0.000 A 
ATOM     20  C   UNL     1       4.121   4.920  16.953  0.00  0.00    +0.000 A 
ATOM     21  C   UNL     1       3.619   3.751  17.512  0.00  0.00    +0.000 A 
ATOM     22  C   UNL     1       2.779   3.800  18.631  0.00  0.00    +0.000 A 
ATOM     23  C   UNL     1       2.301   2.605  19.196  0.00  0.00    +0.000 A 
ATOM     24  C   UNL     1       1.472   2.624  20.314  0.00  0.00    +0.000 A 
ATOM     25  C   UNL     1       1.109   3.839  20.882  0.00  0.00    +0.000 A 
ATOM     26  C   UNL     1       1.578   5.035  20.332  0.00  0.00    +0.000 A 
ATOM     27  C   UNL     1       2.422   5.055  19.199  0.00  0.00    +0.000 A 
BRANCH  19  28
ATOM     28  O   UNL     1       4.371   7.240  16.917  0.00  0.00    +0.000 OA
ATOM     29  H   UNL     1       5.318   7.188  17.150  0.00  0.00    +0.000 HD
ENDBRANCH  19  28
ENDBRANCH  17  18
ENDBRANCH   4  16
TORSDOF 5
ENDMDL
MODEL 6
REMARK VINA RESULT:      -8.0      0.859      1.068
REMARK  Name = 
REMARK  5 active torsions:
REMARK  status: ('A' for Active; 'I' for Inactive)
REMARK    1  A    between atoms: N_2  and  C_4
REMARK    2  A    between atoms: C_6  and  O_7
REMARK    3  A    between atoms: C_8  and  N_9
REMARK    4  A    between atoms: N_10  and  C_11
REMARK    5  A    between atoms: C_12  and  O_13
REMARK                            x       y       z     vdW  Elec       q    Type
REMARK                         _______ _______ _______ _____ _____    ______ ____
ROOT
ATOM      1  C   UNL     1       3.004   4.126  18.884  0.00  0.00    +0.000 A 
ATOM      2  C   UNL     1       2.202   4.508  19.962  0.00  0.00    +0.000 A 
ATOM      3  C   UNL     1       1.979   5.861  20.185  0.00  0.00    +0.000 A 
ATOM      4  C   UNL     1       2.563   6.852  19.362  0.00  0.00    +0.000 A 
ATOM      5  C   UNL     1       3.383   6.439  18.262  0.00  0.00    +0.000 A 
ATOM      6  C   UNL     1       3.977   7.377  17.383  0.00  0.00    +0.000 A 
ATOM      7  C   UNL     1       4.757   6.988  16.292  0.00  0.00    +0.000 A 
ATOM      8  C   UNL     1       4.968   5.643  16.041  0.00  0.00    +0.000 A 
ATOM      9  C   UNL     1       4.401   4.689  16.884  0.00  0.00    +0.000 A 
ATOM     10  C   UNL     1       3.610   5.056  18.006  0.00  0.00    +0.000 A 
ENDROOT
BRANCH   1  12
ATOM     11  O   UNL     1       4.162   2.166  19.176  0.00  0.00    +0.000 OA
ATOM     12  N   UNL     1       3.161   2.694  18.680  0.00  0.00    +0.000 N 
ATOM     13  O   UNL     1       2.307   2.120  17.992  0.00  0.00    +0.000 OA
ENDBRANCH   1  12
BRANCH   3  14
ATOM     14  O   UNL     1       1.140   6.216  21.210  0.00  0.00    +0.000 OA
ATOM     15  H   UNL     1       0.705   5.434  21.586  0.00  0.00    +0.000 HD
ENDBRANCH   3  14
BRANCH   4  16
ATOM     16  N   UNL     1       2.271   8.242  19.496  0.00  0.00    +0.000 NA
ATOM     17  N   UNL     1       1.079   8.491  19.767  0.00  0.00    +0.000 NA
BRANCH  17  18
ATOM     18  C   UNL     1       0.744   9.881  19.779  0.00  0.00    +0.000 A 
ATOM     19  C   UNL     1       0.979  10.756  18.695  0.00  0.00    +0.000 A 
ATOM     20  C   UNL     1       0.607  12.096  18.731  0.00  0.00    +0.000 A 
ATOM     21  C   UNL     1      -0.038  12.602  19.853  0.00  0.00    +0.000 A 
ATOM     22  C   UNL     1      -0.318  11.773  20.946  0.00  0.00    +0.000 A 
ATOM     23  C   UNL     1      -0.994  12.298  22.061  0.00  0.00    +0.000 A 
ATOM     24  C   UNL     1      -1.293  11.495  23.159  0.00  0.00    +0.000 A 
ATOM     25  C   UNL     1      -0.920  10.157  23.156  0.00  0.00    +0.000 A 
ATOM     26  C   UNL     1      -0.249   9.621  22.053  0.00  0.00    +0.000 A 
ATOM     27  C   UNL     1       0.070  10.405  20.921  0.00  0.00    +0.000 A 
BRANCH  19  28
ATOM     28  O   UNL     1       1.566  10.343  17.524  0.00  0.00    +0.000 OA
ATOM     29  H   UNL     1       2.030  11.127  17.174  0.00  0.00    +0.000 HD
ENDBRANCH  19  28
ENDBRANCH  17  18
ENDBRANCH   4  16
TORSDOF 5
ENDMDL
MODEL 7
REMARK VINA RESULT:      -8.0      1.788      3.560
REMARK  Name = 
REMARK  5 active torsions:
REMARK  status: ('A' for Active; 'I' for Inactive)
REMARK    1  A    between atoms: N_2  and  C_4
REMARK    2  A    between atoms: C_6  and  O_7
REMARK    3  A    between atoms: C_8  and  N_9
REMARK    4  A    between atoms: N_10  and  C_11
REMARK    5  A    between atoms: C_12  and  O_13
REMARK                            x       y       z     vdW  Elec       q    Type
REMARK                         _______ _______ _______ _____ _____    ______ ____
ROOT
ATOM      1  C   UNL     1       4.484   5.029  17.985  0.00  0.00    +0.000 A 
ATOM      2  C   UNL     1       4.265   6.331  17.531  0.00  0.00    +0.000 A 
ATOM      3  C   UNL     1       3.324   7.118  18.183  0.00  0.00    +0.000 A 
ATOM      4  C   UNL     1       2.572   6.622  19.274  0.00  0.00    +0.000 A 
ATOM      5  C   UNL     1       2.811   5.283  19.723  0.00  0.00    +0.000 A 
ATOM      6  C   UNL     1       2.114   4.731  20.824  0.00  0.00    +0.000 A 
ATOM      7  C   UNL     1       2.356   3.436  21.289  0.00  0.00    +0.000 A 
ATOM      8  C   UNL     1       3.309   2.648  20.667  0.00  0.00    +0.000 A 
ATOM      9  C   UNL     1       4.016   3.155  19.579  0.00  0.00    +0.000 A 
ATOM     10  C   UNL     1       3.785   4.465  19.079  0.00  0.00    +0.000 A 
ENDROOT
BRANCH   1  12
ATOM     11  O   UNL     1       6.671   4.387  17.710  0.00  0.00    +0.000 OA
ATOM     12  N   UNL     1       5.514   4.274  17.288  0.00  0.00    +0.000 N 
ATOM     13  O   UNL     1       5.165   3.610  16.303  0.00  0.00    +0.000 OA
ENDBRANCH   1  12
BRANCH   3  14
ATOM     14  O   UNL     1       3.164   8.414  17.763  0.00  0.00    +0.000 OA
ATOM     15  H   UNL     1       3.518   9.035  18.420  0.00  0.00    +0.000 HD
ENDBRANCH   3  14
BRANCH   4  16
ATOM     16  N   UNL     1       1.676   7.433  20.031  0.00  0.00    +0.000 NA
ATOM     17  N   UNL     1       1.464   8.560  19.539  0.00  0.00    +0.000 NA
BRANCH  17  18
ATOM     18  C   UNL     1       0.672   9.431  20.349  0.00  0.00    +0.000 A 
ATOM     19  C   UNL     1       0.856   9.594  21.741  0.00  0.00    +0.000 A 
ATOM     20  C   UNL     1       0.086  10.477  22.490  0.00  0.00    +0.000 A 
ATOM     21  C   UNL     1      -0.884  11.249  21.863  0.00  0.00    +0.000 A 
ATOM     22  C   UNL     1      -1.093  11.145  20.482  0.00  0.00    +0.000 A 
ATOM     23  C   UNL     1      -2.062  11.952  19.862  0.00  0.00    +0.000 A 
ATOM     24  C   UNL     1      -2.285  11.876  18.490  0.00  0.00    +0.000 A 
ATOM     25  C   UNL     1      -1.541  10.992  17.720  0.00  0.00    +0.000 A 
ATOM     26  C   UNL     1      -0.572  10.184  18.322  0.00  0.00    +0.000 A 
ATOM     27  C   UNL     1      -0.318  10.235  19.711  0.00  0.00    +0.000 A 
BRANCH  19  28
ATOM     28  O   UNL     1       1.819   8.914  22.445  0.00  0.00    +0.000 OA
ATOM     29  H   UNL     1       1.360   8.543  23.222  0.00  0.00    +0.000 HD
ENDBRANCH  19  28
ENDBRANCH  17  18
ENDBRANCH   4  16
TORSDOF 5
ENDMDL
MODEL 8
REMARK VINA RESULT:      -8.0      2.671      7.799
REMARK  Name = 
REMARK  5 active torsions:
REMARK  status: ('A' for Active; 'I' for Inactive)
REMARK    1  A    between atoms: N_2  and  C_4
REMARK    2  A    between atoms: C_6  and  O_7
REMARK    3  A    between atoms: C_8  and  N_9
REMARK    4  A    between atoms: N_10  and  C_11
REMARK    5  A    between atoms: C_12  and  O_13
REMARK                            x       y       z     vdW  Elec       q    Type
REMARK                         _______ _______ _______ _____ _____    ______ ____
ROOT
ATOM      1  C   UNL     1      -0.816  11.150  22.069  0.00  0.00    +0.000 A 
ATOM      2  C   UNL     1       0.126  10.332  22.696  0.00  0.00    +0.000 A 
ATOM      3  C   UNL     1       0.866   9.446  21.922  0.00  0.00    +0.000 A 
ATOM      4  C   UNL     1       0.669   9.342  20.525  0.00  0.00    +0.000 A 
ATOM      5  C   UNL     1      -0.302  10.191  19.901  0.00  0.00    +0.000 A 
ATOM      6  C   UNL     1      -0.532  10.157  18.504  0.00  0.00    +0.000 A 
ATOM      7  C   UNL     1      -1.458  10.997  17.879  0.00  0.00    +0.000 A 
ATOM      8  C   UNL     1      -2.185  11.903  18.633  0.00  0.00    +0.000 A 
ATOM      9  C   UNL     1      -1.987  11.965  20.011  0.00  0.00    +0.000 A 
ATOM     10  C   UNL     1      -1.059  11.118  20.674  0.00  0.00    +0.000 A 
ENDROOT
BRANCH   1  12
ATOM     11  O   UNL     1      -0.981  13.177  23.133  0.00  0.00    +0.000 OA
ATOM     12  N   UNL     1      -1.524  12.085  22.929  0.00  0.00    +0.000 N 
ATOM     13  O   UNL     1      -2.592  11.705  23.425  0.00  0.00    +0.000 OA
ENDBRANCH   1  12
BRANCH   3  14
ATOM     14  O   UNL     1       1.828   8.693  22.545  0.00  0.00    +0.000 OA
ATOM     15  H   UNL     1       2.563   8.504  21.939  0.00  0.00    +0.000 HD
ENDBRANCH   3  14
BRANCH   4  16
ATOM     16  N   UNL     1       1.482   8.523  19.686  0.00  0.00    +0.000 NA
ATOM     17  N   UNL     1       1.581   7.339  20.067  0.00  0.00    +0.000 NA
BRANCH  17  18
ATOM     18  C   UNL     1       2.493   6.540  19.311  0.00  0.00    +0.000 A 
ATOM     19  C   UNL     1       3.205   7.010  18.185  0.00  0.00    +0.000 A 
ATOM     20  C   UNL     1       4.111   6.210  17.495  0.00  0.00    +0.000 A 
ATOM     21  C   UNL     1       4.351   4.911  17.927  0.00  0.00    +0.000 A 
ATOM     22  C   UNL     1       3.691   4.402  19.052  0.00  0.00    +0.000 A 
ATOM     23  C   UNL     1       3.967   3.095  19.488  0.00  0.00    +0.000 A 
ATOM     24  C   UNL     1       3.332   2.565  20.608  0.00  0.00    +0.000 A 
ATOM     25  C   UNL     1       2.412   3.336  21.307  0.00  0.00    +0.000 A 
ATOM     26  C   UNL     1       2.129   4.638  20.886  0.00  0.00    +0.000 A 
ATOM     27  C   UNL     1       2.755   5.210  19.755  0.00  0.00    +0.000 A 
BRANCH  19  28
ATOM     28  O   UNL     1       3.074   8.290  17.709  0.00  0.00    +0.000 OA
ATOM     29  H   UNL     1       2.308   8.267  17.105  0.00  0.00    +0.000 HD
ENDBRANCH  19  28
ENDBRANCH  17  18
ENDBRANCH   4  16
TORSDOF 5
ENDMDL
MODEL 9
REMARK VINA RESULT:      -7.7      1.763      3.686
REMARK  Name = 
REMARK  5 active torsions:
REMARK  status: ('A' for Active; 'I' for Inactive)
REMARK    1  A    between atoms: N_2  and  C_4
REMARK    2  A    between atoms: C_6  and  O_7
REMARK    3  A    between atoms: C_8  and  N_9
REMARK    4  A    between atoms: N_10  and  C_11
REMARK    5  A    between atoms: C_12  and  O_13
REMARK                            x       y       z     vdW  Elec       q    Type
REMARK                         _______ _______ _______ _____ _____    ______ ____
ROOT
ATOM      1  C   UNL     1       3.922   5.257  17.917  0.00  0.00    +0.000 A 
ATOM      2  C   UNL     1       3.805   6.589  17.516  0.00  0.00    +0.000 A 
ATOM      3  C   UNL     1       3.052   7.459  18.294  0.00  0.00    +0.000 A 
ATOM      4  C   UNL     1       2.386   7.019  19.463  0.00  0.00    +0.000 A 
ATOM      5  C   UNL     1       2.519   5.648  19.856  0.00  0.00    +0.000 A 
ATOM      6  C   UNL     1       1.902   5.147  21.027  0.00  0.00    +0.000 A 
ATOM      7  C   UNL     1       2.044   3.819  21.436  0.00  0.00    +0.000 A 
ATOM      8  C   UNL     1       2.812   2.945  20.686  0.00  0.00    +0.000 A 
ATOM      9  C   UNL     1       3.435   3.401  19.526  0.00  0.00    +0.000 A 
ATOM     10  C   UNL     1       3.301   4.744  19.081  0.00  0.00    +0.000 A 
ENDROOT
BRANCH   1  12
ATOM     11  O   UNL     1       5.971   4.400  17.337  0.00  0.00    +0.000 OA
ATOM     12  N   UNL     1       4.761   4.410  17.083  0.00  0.00    +0.000 N 
ATOM     13  O   UNL     1       4.212   3.797  16.158  0.00  0.00    +0.000 OA
ENDBRANCH   1  12
BRANCH   3  14
ATOM     14  O   UNL     1       2.996   8.777  17.919  0.00  0.00    +0.000 OA
ATOM     15  H   UNL     1       2.653   9.326  18.642  0.00  0.00    +0.000 HD
ENDBRANCH   3  14
BRANCH   4  16
ATOM     16  N   UNL     1       1.694   7.905  20.340  0.00  0.00    +0.000 NA
ATOM     17  N   UNL     1       1.026   8.784  19.759  0.00  0.00    +0.000 NA
BRANCH  17  18
ATOM     18  C   UNL     1       0.431   9.756  20.622  0.00  0.00    +0.000 A 
ATOM     19  C   UNL     1      -0.326   9.430  21.770  0.00  0.00    +0.000 A 
ATOM     20  C   UNL     1      -0.861  10.405  22.605  0.00  0.00    +0.000 A 
ATOM     21  C   UNL     1      -0.636  11.748  22.328  0.00  0.00    +0.000 A 
ATOM     22  C   UNL     1       0.128  12.128  21.217  0.00  0.00    +0.000 A 
ATOM     23  C   UNL     1       0.365  13.490  20.969  0.00  0.00    +0.000 A 
ATOM     24  C   UNL     1       1.127  13.896  19.876  0.00  0.00    +0.000 A 
ATOM     25  C   UNL     1       1.661  12.943  19.018  0.00  0.00    +0.000 A 
ATOM     26  C   UNL     1       1.435  11.585  19.253  0.00  0.00    +0.000 A 
ATOM     27  C   UNL     1       0.668  11.136  20.352  0.00  0.00    +0.000 A 
BRANCH  19  28
ATOM     28  O   UNL     1      -0.565   8.134  22.155  0.00  0.00    +0.000 OA
ATOM     29  H   UNL     1      -0.168   8.048  23.043  0.00  0.00    +0.000 HD
ENDBRANCH  19  28
ENDBRANCH  17  18
ENDBRANCH   4  16
TORSDOF 5
ENDMDL
