MODEL 1
REMARK VINA RESULT:      -8.2      0.000      0.000
REMARK  Name = 
REMARK  5 active torsions:
REMARK  status: ('A' for Active; 'I' for Inactive)
REMARK    1  A    between atoms: C_1  and  C_2
REMARK    2  A    between atoms: C_7  and  C_8
REMARK    3  A    between atoms: C_7  and  N_9
REMARK    4  A    between atoms: N_9  and  N_10
REMARK    5  A    between atoms: N_10  and  C_11
REMARK                            x       y       z     vdW  Elec       q    Type
REMARK                         _______ _______ _______ _____ _____    ______ ____
ROOT
ATOM      1  C   UNL     1       8.594   9.273  17.909  0.00  0.00    +0.000 C 
ATOM      2  C   UNL     1       7.832   7.988  17.940  0.00  0.00    +0.000 C 
ATOM      3  C   UNL     1       8.021   7.049  18.862  0.00  0.00    +0.000 C 
ATOM      4  C   UNL     1       7.179   5.855  18.860  0.00  0.00    +0.000 C 
ATOM      5  O   UNL     1       7.301   5.072  19.802  0.00  0.00    +0.000 OA
ATOM      6  C   UNL     1       6.209   5.683  17.737  0.00  0.00    +0.000 C 
ATOM      7  C   UNL     1       5.505   4.514  17.694  0.00  0.00    +0.000 C 
ATOM      8  C   UNL     1       4.472   4.136  16.644  0.00  0.00    +0.000 C 
ATOM      9  C   UNL     1       6.098   6.760  16.716  0.00  0.00    +0.000 C 
ATOM     10  O   UNL     1       5.364   6.719  15.731  0.00  0.00    +0.000 OA
ATOM     11  O   UNL     1       6.884   7.861  16.912  0.00  0.00    +0.000 OA
ENDROOT
BRANCH   7  12
ATOM     12  N   UNL     1       5.649   3.490  18.652  0.00  0.00    +0.000 N 
ATOM     13  H   UNL     1       5.595   2.560  18.199  0.00  0.00    +0.000 HD
BRANCH  12  14
ATOM     14  N   UNL     1       4.886   3.486  19.789  0.00  0.00    +0.000 N 
ATOM     15  H   UNL     1       5.363   3.460  20.687  0.00  0.00    +0.000 HD
BRANCH  14  16
ATOM     16  C   UNL     1       3.490   3.360  19.834  0.00  0.00    +0.000 A 
ATOM     17  C   UNL     1       2.893   2.238  19.243  0.00  0.00    +0.000 A 
ATOM     18  C   UNL     1       1.505   2.106  19.192  0.00  0.00    +0.000 A 
ATOM     19  C   UNL     1       0.694   3.086  19.757  0.00  0.00    +0.000 A 
ATOM     20  C   UNL     1       1.273   4.181  20.395  0.00  0.00    +0.000 A 
ATOM     21  C   UNL     1       2.665   4.313  20.439  0.00  0.00    +0.000 A 
ENDBRANCH  14  16
ENDBRANCH  12  14
ENDBRANCH   7  12
TORSDOF 3
ENDMDL
MODEL 2
REMARK VINA RESULT:      -8.2      0.099      1.108
REMARK  Name = 
REMARK  5 active torsions:
REMARK  status: ('A' for Active; 'I' for Inactive)
REMARK    1  A    between atoms: C_1  and  C_2
REMARK    2  A    between atoms: C_7  and  C_8
REMARK    3  A    between atoms: C_7  and  N_9
REMARK    4  A    between atoms: N_9  and  N_10
REMARK    5  A    between atoms: N_10  and  C_11
REMARK                            x       y       z     vdW  Elec       q    Type
REMARK                         _______ _______ _______ _____ _____    ______ ____
ROOT
ATOM      1  C   UNL     1       8.579   9.261  17.866  0.00  0.00    +0.000 C 
ATOM      2  C   UNL     1       7.824   7.973  17.900  0.00  0.00    +0.000 C 
ATOM      3  C   UNL     1       8.006   7.044  18.835  0.00  0.00    +0.000 C 
ATOM      4  C   UNL     1       7.172   5.845  18.834  0.00  0.00    +0.000 C 
ATOM      5  O   UNL     1       7.287   5.072  19.786  0.00  0.00    +0.000 OA
ATOM      6  C   UNL     1       6.216   5.656  17.701  0.00  0.00    +0.000 C 
ATOM      7  C   UNL     1       5.521   4.483  17.661  0.00  0.00    +0.000 C 
ATOM      8  C   UNL     1       4.503   4.089  16.602  0.00  0.00    +0.000 C 
ATOM      9  C   UNL     1       6.113   6.722  16.668  0.00  0.00    +0.000 C 
ATOM     10  O   UNL     1       5.391   6.667  15.675  0.00  0.00    +0.000 OA
ATOM     11  O   UNL     1       6.890   7.830  16.862  0.00  0.00    +0.000 OA
ENDROOT
BRANCH   7  12
ATOM     12  N   UNL     1       5.658   3.469  18.632  0.00  0.00    +0.000 N 
ATOM     13  H   UNL     1       5.624   2.535  18.186  0.00  0.00    +0.000 HD
BRANCH  12  14
ATOM     14  N   UNL     1       4.874   3.466  19.754  0.00  0.00    +0.000 N 
ATOM     15  H   UNL     1       5.333   3.421  20.660  0.00  0.00    +0.000 HD
BRANCH  14  16
ATOM     16  C   UNL     1       3.475   3.365  19.771  0.00  0.00    +0.000 A 
ATOM     17  C   UNL     1       2.730   4.394  20.366  0.00  0.00    +0.000 A 
ATOM     18  C   UNL     1       1.343   4.303  20.478  0.00  0.00    +0.000 A 
ATOM     19  C   UNL     1       0.678   3.189  19.973  0.00  0.00    +0.000 A 
ATOM     20  C   UNL     1       1.398   2.184  19.333  0.00  0.00    +0.000 A 
ATOM     21  C   UNL     1       2.789   2.276  19.226  0.00  0.00    +0.000 A 
ENDBRANCH  14  16
ENDBRANCH  12  14
ENDBRANCH   7  12
TORSDOF 3
ENDMDL
MODEL 3
REMARK VINA RESULT:      -7.8      0.893      1.072
REMARK  Name = 
REMARK  5 active torsions:
REMARK  status: ('A' for Active; 'I' for Inactive)
REMARK    1  A    between atoms: C_1  and  C_2
REMARK    2  A    between atoms: C_7  and  C_8
REMARK    3  A    between atoms: C_7  and  N_9
REMARK    4  A    between atoms: N_9  and  N_10
REMARK    5  A    between atoms: N_10  and  C_11
REMARK                            x       y       z     vdW  Elec       q    Type
REMARK                         _______ _______ _______ _____ _____    ______ ____
ROOT
ATOM      1  C   UNL     1       8.495   8.935  17.937  0.00  0.00    +0.000 C 
ATOM      2  C   UNL     1       7.677   7.686  17.884  0.00  0.00    +0.000 C 
ATOM      3  C   UNL     1       7.725   6.742  18.819  0.00  0.00    +0.000 C 
ATOM      4  C   UNL     1       6.835   5.588  18.726  0.00  0.00    +0.000 C 
ATOM      5  O   UNL     1       6.822   4.802  19.675  0.00  0.00    +0.000 OA
ATOM      6  C   UNL     1       5.982   5.456  17.507  0.00  0.00    +0.000 C 
ATOM      7  C   UNL     1       5.235   4.320  17.388  0.00  0.00    +0.000 C 
ATOM      8  C   UNL     1       4.302   3.986  16.234  0.00  0.00    +0.000 C 
ATOM      9  C   UNL     1       6.028   6.534  16.482  0.00  0.00    +0.000 C 
ATOM     10  O   UNL     1       5.401   6.523  15.425  0.00  0.00    +0.000 OA
ATOM     11  O   UNL     1       6.838   7.599  16.762  0.00  0.00    +0.000 OA
ENDROOT
BRANCH   7  12
ATOM     12  N   UNL     1       5.230   3.293  18.354  0.00  0.00    +0.000 N 
ATOM     13  H   UNL     1       6.095   2.728  18.286  0.00  0.00    +0.000 HD
BRANCH  12  14
ATOM     14  N   UNL     1       4.152   2.459  18.481  0.00  0.00    +0.000 N 
ATOM     15  H   UNL     1       4.007   1.751  17.765  0.00  0.00    +0.000 HD
BRANCH  14  16
ATOM     16  C   UNL     1       3.130   2.586  19.432  0.00  0.00    +0.000 A 
ATOM     17  C   UNL     1       1.834   2.897  18.995  0.00  0.00    +0.000 A 
ATOM     18  C   UNL     1       0.800   3.111  19.907  0.00  0.00    +0.000 A 
ATOM     19  C   UNL     1       1.045   2.992  21.273  0.00  0.00    +0.000 A 
ATOM     20  C   UNL     1       2.314   2.632  21.720  0.00  0.00    +0.000 A 
ATOM     21  C   UNL     1       3.349   2.424  20.803  0.00  0.00    +0.000 A 
ENDBRANCH  14  16
ENDBRANCH  12  14
ENDBRANCH   7  12
TORSDOF 3
ENDMDL
MODEL 4
REMARK VINA RESULT:      -7.3      2.229      3.235
REMARK  Name = 
REMARK  5 active torsions:
REMARK  status: ('A' for Active; 'I' for Inactive)
REMARK    1  A    between atoms: C_1  and  C_2
REMARK    2  A    between atoms: C_7  and  C_8
REMARK    3  A    between atoms: C_7  and  N_9
REMARK    4  A    between atoms: N_9  and  N_10
REMARK    5  A    between atoms: N_10  and  C_11
REMARK                            x       y       z     vdW  Elec       q    Type
REMARK                         _______ _______ _______ _____ _____    ______ ____
ROOT
ATOM      1  C   UNL     1       7.809   5.322  12.547  0.00  0.00    +0.000 C 
ATOM      2  C   UNL     1       7.269   5.018  13.906  0.00  0.00    +0.000 C 
ATOM      3  C   UNL     1       6.466   3.988  14.159  0.00  0.00    +0.000 C 
ATOM      4  C   UNL     1       6.045   3.722  15.532  0.00  0.00    +0.000 C 
ATOM      5  O   UNL     1       5.406   2.690  15.741  0.00  0.00    +0.000 OA
ATOM      6  C   UNL     1       6.443   4.698  16.590  0.00  0.00    +0.000 C 
ATOM      7  C   UNL     1       5.954   4.490  17.847  0.00  0.00    +0.000 C 
ATOM      8  C   UNL     1       6.234   5.358  19.065  0.00  0.00    +0.000 C 
ATOM      9  C   UNL     1       7.301   5.854  16.210  0.00  0.00    +0.000 C 
ATOM     10  O   UNL     1       7.665   6.739  16.981  0.00  0.00    +0.000 OA
ATOM     11  O   UNL     1       7.694   5.910  14.903  0.00  0.00    +0.000 OA
ENDROOT
BRANCH   7  12
ATOM     12  N   UNL     1       5.114   3.408  18.181  0.00  0.00    +0.000 N 
ATOM     13  H   UNL     1       5.380   2.564  17.642  0.00  0.00    +0.000 HD
BRANCH  12  14
ATOM     14  N   UNL     1       3.752   3.550  18.161  0.00  0.00    +0.000 N 
ATOM     15  H   UNL     1       3.320   3.906  17.312  0.00  0.00    +0.000 HD
BRANCH  14  16
ATOM     16  C   UNL     1       2.900   3.393  19.263  0.00  0.00    +0.000 A 
ATOM     17  C   UNL     1       3.409   2.816  20.435  0.00  0.00    +0.000 A 
ATOM     18  C   UNL     1       2.583   2.566  21.531  0.00  0.00    +0.000 A 
ATOM     19  C   UNL     1       1.236   2.914  21.476  0.00  0.00    +0.000 A 
ATOM     20  C   UNL     1       0.726   3.536  20.339  0.00  0.00    +0.000 A 
ATOM     21  C   UNL     1       1.557   3.780  19.241  0.00  0.00    +0.000 A 
ENDBRANCH  14  16
ENDBRANCH  12  14
ENDBRANCH   7  12
TORSDOF 3
ENDMDL
MODEL 5
REMARK VINA RESULT:      -7.2      1.376      1.814
REMARK  Name = 
REMARK  5 active torsions:
REMARK  status: ('A' for Active; 'I' for Inactive)
REMARK    1  A    between atoms: C_1  and  C_2
REMARK    2  A    between atoms: C_7  and  C_8
REMARK    3  A    between atoms: C_7  and  N_9
REMARK    4  A    between atoms: N_9  and  N_10
REMARK    5  A    between atoms: N_10  and  C_11
REMARK                            x       y       z     vdW  Elec       q    Type
REMARK                         _______ _______ _______ _____ _____    ______ ____
ROOT
ATOM      1  C   UNL     1       8.558   8.022  18.564  0.00  0.00    +0.000 C 
ATOM      2  C   UNL     1       7.705   6.875  18.131  0.00  0.00    +0.000 C 
ATOM      3  C   UNL     1       7.159   6.009  18.980  0.00  0.00    +0.000 C 
ATOM      4  C   UNL     1       6.278   4.960  18.475  0.00  0.00    +0.000 C 
ATOM      5  O   UNL     1       5.695   4.259  19.304  0.00  0.00    +0.000 OA
ATOM      6  C   UNL     1       6.119   4.829  16.995  0.00  0.00    +0.000 C 
ATOM      7  C   UNL     1       5.376   3.780  16.538  0.00  0.00    +0.000 C 
ATOM      8  C   UNL     1       5.089   3.463  15.079  0.00  0.00    +0.000 C 
ATOM      9  C   UNL     1       6.808   5.809  16.113  0.00  0.00    +0.000 C 
ATOM     10  O   UNL     1       6.782   5.785  14.885  0.00  0.00    +0.000 OA
ATOM     11  O   UNL     1       7.517   6.794  16.742  0.00  0.00    +0.000 OA
ENDROOT
BRANCH   7  12
ATOM     12  N   UNL     1       4.758   2.840  17.390  0.00  0.00    +0.000 N 
ATOM     13  H   UNL     1       5.170   1.901  17.251  0.00  0.00    +0.000 HD
BRANCH  12  14
ATOM     14  N   UNL     1       3.394   2.736  17.440  0.00  0.00    +0.000 N 
ATOM     15  H   UNL     1       2.909   2.387  16.617  0.00  0.00    +0.000 HD
BRANCH  14  16
ATOM     16  C   UNL     1       2.577   3.212  18.476  0.00  0.00    +0.000 A 
ATOM     17  C   UNL     1       2.409   4.596  18.623  0.00  0.00    +0.000 A 
ATOM     18  C   UNL     1       1.671   5.121  19.684  0.00  0.00    +0.000 A 
ATOM     19  C   UNL     1       1.068   4.264  20.600  0.00  0.00    +0.000 A 
ATOM     20  C   UNL     1       1.181   2.886  20.437  0.00  0.00    +0.000 A 
ATOM     21  C   UNL     1       1.926   2.363  19.376  0.00  0.00    +0.000 A 
ENDBRANCH  14  16
ENDBRANCH  12  14
ENDBRANCH   7  12
TORSDOF 3
ENDMDL
MODEL 6
REMARK VINA RESULT:      -7.1      2.037      3.328
REMARK  Name = 
REMARK  5 active torsions:
REMARK  status: ('A' for Active; 'I' for Inactive)
REMARK    1  A    between atoms: C_1  and  C_2
REMARK    2  A    between atoms: C_7  and  C_8
REMARK    3  A    between atoms: C_7  and  N_9
REMARK    4  A    between atoms: N_9  and  N_10
REMARK    5  A    between atoms: N_10  and  C_11
REMARK                            x       y       z     vdW  Elec       q    Type
REMARK                         _______ _______ _______ _____ _____    ______ ____
ROOT
ATOM      1  C   UNL     1       7.128   4.813  12.498  0.00  0.00    +0.000 C 
ATOM      2  C   UNL     1       6.854   4.699  13.962  0.00  0.00    +0.000 C 
ATOM      3  C   UNL     1       6.088   3.749  14.490  0.00  0.00    +0.000 C 
ATOM      4  C   UNL     1       5.935   3.667  15.940  0.00  0.00    +0.000 C 
ATOM      5  O   UNL     1       5.321   2.701  16.394  0.00  0.00    +0.000 OA
ATOM      6  C   UNL     1       6.558   4.740  16.773  0.00  0.00    +0.000 C 
ATOM      7  C   UNL     1       6.317   4.707  18.116  0.00  0.00    +0.000 C 
ATOM      8  C   UNL     1       6.851   5.696  19.140  0.00  0.00    +0.000 C 
ATOM      9  C   UNL     1       7.357   5.797  16.096  0.00  0.00    +0.000 C 
ATOM     10  O   UNL     1       7.887   6.747  16.667  0.00  0.00    +0.000 OA
ATOM     11  O   UNL     1       7.490   5.679  14.741  0.00  0.00    +0.000 OA
ENDROOT
BRANCH   7  12
ATOM     12  N   UNL     1       5.528   3.715  18.735  0.00  0.00    +0.000 N 
ATOM     13  H   UNL     1       5.150   3.060  18.029  0.00  0.00    +0.000 HD
BRANCH  12  14
ATOM     14  N   UNL     1       4.535   4.061  19.612  0.00  0.00    +0.000 N 
ATOM     15  H   UNL     1       4.797   4.544  20.468  0.00  0.00    +0.000 HD
BRANCH  14  16
ATOM     16  C   UNL     1       3.190   3.675  19.515  0.00  0.00    +0.000 A 
ATOM     17  C   UNL     1       2.234   4.357  20.281  0.00  0.00    +0.000 A 
ATOM     18  C   UNL     1       0.897   3.960  20.279  0.00  0.00    +0.000 A 
ATOM     19  C   UNL     1       0.493   2.887  19.489  0.00  0.00    +0.000 A 
ATOM     20  C   UNL     1       1.421   2.233  18.683  0.00  0.00    +0.000 A 
ATOM     21  C   UNL     1       2.762   2.630  18.691  0.00  0.00    +0.000 A 
ENDBRANCH  14  16
ENDBRANCH  12  14
ENDBRANCH   7  12
TORSDOF 3
ENDMDL
MODEL 7
REMARK VINA RESULT:      -7.1      2.114      3.576
REMARK  Name = 
REMARK  5 active torsions:
REMARK  status: ('A' for Active; 'I' for Inactive)
REMARK    1  A    between atoms: C_1  and  C_2
REMARK    2  A    between atoms: C_7  and  C_8
REMARK    3  A    between atoms: C_7  and  N_9
REMARK    4  A    between atoms: N_9  and  N_10
REMARK    5  A    between atoms: N_10  and  C_11
REMARK                            x       y       z     vdW  Elec       q    Type
REMARK                         _______ _______ _______ _____ _____    ______ ____
ROOT
ATOM      1  C   UNL     1       6.319   3.816  13.209  0.00  0.00    +0.000 C 
ATOM      2  C   UNL     1       6.120   4.275  14.617  0.00  0.00    +0.000 C 
ATOM      3  C   UNL     1       4.991   4.826  15.053  0.00  0.00    +0.000 C 
ATOM      4  C   UNL     1       4.857   5.177  16.464  0.00  0.00    +0.000 C 
ATOM      5  O   UNL     1       3.755   5.567  16.851  0.00  0.00    +0.000 OA
ATOM      6  C   UNL     1       6.052   5.010  17.345  0.00  0.00    +0.000 C 
ATOM      7  C   UNL     1       5.941   5.440  18.635  0.00  0.00    +0.000 C 
ATOM      8  C   UNL     1       7.029   5.364  19.695  0.00  0.00    +0.000 C 
ATOM      9  C   UNL     1       7.294   4.434  16.763  0.00  0.00    +0.000 C 
ATOM     10  O   UNL     1       8.348   4.279  17.376  0.00  0.00    +0.000 OA
ATOM     11  O   UNL     1       7.230   4.062  15.449  0.00  0.00    +0.000 OA
ENDROOT
BRANCH   7  12
ATOM     12  N   UNL     1       4.765   6.016  19.160  0.00  0.00    +0.000 N 
ATOM     13  H   UNL     1       4.944   6.987  19.470  0.00  0.00    +0.000 HD
BRANCH  12  14
ATOM     14  N   UNL     1       4.034   5.361  20.115  0.00  0.00    +0.000 N 
ATOM     15  H   UNL     1       4.279   5.509  21.091  0.00  0.00    +0.000 HD
BRANCH  14  16
ATOM     16  C   UNL     1       3.066   4.377  19.869  0.00  0.00    +0.000 A 
ATOM     17  C   UNL     1       1.721   4.670  20.137  0.00  0.00    +0.000 A 
ATOM     18  C   UNL     1       0.730   3.700  19.985  0.00  0.00    +0.000 A 
ATOM     19  C   UNL     1       1.070   2.427  19.536  0.00  0.00    +0.000 A 
ATOM     20  C   UNL     1       2.394   2.136  19.215  0.00  0.00    +0.000 A 
ATOM     21  C   UNL     1       3.385   3.110  19.374  0.00  0.00    +0.000 A 
ENDBRANCH  14  16
ENDBRANCH  12  14
ENDBRANCH   7  12
TORSDOF 3
ENDMDL
MODEL 8
REMARK VINA RESULT:      -7.0      2.219      3.204
REMARK  Name = 
REMARK  5 active torsions:
REMARK  status: ('A' for Active; 'I' for Inactive)
REMARK    1  A    between atoms: C_1  and  C_2
REMARK    2  A    between atoms: C_7  and  C_8
REMARK    3  A    between atoms: C_7  and  N_9
REMARK    4  A    between atoms: N_9  and  N_10
REMARK    5  A    between atoms: N_10  and  C_11
REMARK                            x       y       z     vdW  Elec       q    Type
REMARK                         _______ _______ _______ _____ _____    ______ ____
ROOT
ATOM      1  C   UNL     1       8.046   5.554  12.722  0.00  0.00    +0.000 C 
ATOM      2  C   UNL     1       7.436   5.179  14.032  0.00  0.00    +0.000 C 
ATOM      3  C   UNL     1       6.623   4.137  14.188  0.00  0.00    +0.000 C 
ATOM      4  C   UNL     1       6.131   3.798  15.520  0.00  0.00    +0.000 C 
ATOM      5  O   UNL     1       5.485   2.757  15.640  0.00  0.00    +0.000 OA
ATOM      6  C   UNL     1       6.469   4.717  16.649  0.00  0.00    +0.000 C 
ATOM      7  C   UNL     1       5.915   4.443  17.865  0.00  0.00    +0.000 C 
ATOM      8  C   UNL     1       6.127   5.244  19.140  0.00  0.00    +0.000 C 
ATOM      9  C   UNL     1       7.343   5.891  16.377  0.00  0.00    +0.000 C 
ATOM     10  O   UNL     1       7.663   6.734  17.212  0.00  0.00    +0.000 OA
ATOM     11  O   UNL     1       7.805   6.017  15.097  0.00  0.00    +0.000 OA
ENDROOT
BRANCH   7  12
ATOM     12  N   UNL     1       5.061   3.344  18.095  0.00  0.00    +0.000 N 
ATOM     13  H   UNL     1       5.298   2.563  17.459  0.00  0.00    +0.000 HD
BRANCH  12  14
ATOM     14  N   UNL     1       3.703   3.511  18.126  0.00  0.00    +0.000 N 
ATOM     15  H   UNL     1       3.253   3.927  17.314  0.00  0.00    +0.000 HD
BRANCH  14  16
ATOM     16  C   UNL     1       2.880   3.300  19.241  0.00  0.00    +0.000 A 
ATOM     17  C   UNL     1       1.560   3.772  19.206  0.00  0.00    +0.000 A 
ATOM     18  C   UNL     1       0.726   3.657  20.319  0.00  0.00    +0.000 A 
ATOM     19  C   UNL     1       1.197   3.044  21.477  0.00  0.00    +0.000 A 
ATOM     20  C   UNL     1       2.488   2.523  21.510  0.00  0.00    +0.000 A 
ATOM     21  C   UNL     1       3.322   2.645  20.394  0.00  0.00    +0.000 A 
ENDBRANCH  14  16
ENDBRANCH  12  14
ENDBRANCH   7  12
TORSDOF 3
ENDMDL
MODEL 9
REMARK VINA RESULT:      -7.0      2.566      5.644
REMARK  Name = 
REMARK  5 active torsions:
REMARK  status: ('A' for Active; 'I' for Inactive)
REMARK    1  A    between atoms: C_1  and  C_2
REMARK    2  A    between atoms: C_7  and  C_8
REMARK    3  A    between atoms: C_7  and  N_9
REMARK    4  A    between atoms: N_9  and  N_10
REMARK    5  A    between atoms: N_10  and  C_11
REMARK                            x       y       z     vdW  Elec       q    Type
REMARK                         _______ _______ _______ _____ _____    ______ ____
ROOT
ATOM      1  C   UNL     1       1.129   8.009  21.186  0.00  0.00    +0.000 C 
ATOM      2  C   UNL     1       1.808   6.965  20.361  0.00  0.00    +0.000 C 
ATOM      3  C   UNL     1       2.334   7.209  19.164  0.00  0.00    +0.000 C 
ATOM      4  C   UNL     1       3.046   6.147  18.458  0.00  0.00    +0.000 C 
ATOM      5  O   UNL     1       3.624   6.446  17.413  0.00  0.00    +0.000 OA
ATOM      6  C   UNL     1       3.052   4.782  19.066  0.00  0.00    +0.000 C 
ATOM      7  C   UNL     1       3.631   3.779  18.344  0.00  0.00    +0.000 C 
ATOM      8  C   UNL     1       3.745   2.325  18.774  0.00  0.00    +0.000 C 
ATOM      9  C   UNL     1       2.393   4.584  20.386  0.00  0.00    +0.000 C 
ATOM     10  O   UNL     1       2.303   3.507  20.970  0.00  0.00    +0.000 OA
ATOM     11  O   UNL     1       1.856   5.700  20.967  0.00  0.00    +0.000 OA
ENDROOT
BRANCH   7  12
ATOM     12  N   UNL     1       4.220   3.979  17.078  0.00  0.00    +0.000 N 
ATOM     13  H   UNL     1       3.806   3.335  16.381  0.00  0.00    +0.000 HD
BRANCH  12  14
ATOM     14  N   UNL     1       5.582   3.989  16.937  0.00  0.00    +0.000 N 
ATOM     15  H   UNL     1       6.029   3.162  16.549  0.00  0.00    +0.000 HD
BRANCH  14  16
ATOM     16  C   UNL     1       6.445   4.983  17.420  0.00  0.00    +0.000 A 
ATOM     17  C   UNL     1       6.988   4.840  18.705  0.00  0.00    +0.000 A 
ATOM     18  C   UNL     1       7.788   5.838  19.262  0.00  0.00    +0.000 A 
ATOM     19  C   UNL     1       8.078   6.985  18.527  0.00  0.00    +0.000 A 
ATOM     20  C   UNL     1       7.590   7.117  17.229  0.00  0.00    +0.000 A 
ATOM     21  C   UNL     1       6.783   6.118  16.677  0.00  0.00    +0.000 A 
ENDBRANCH  14  16
ENDBRANCH  12  14
ENDBRANCH   7  12
TORSDOF 3
ENDMDL
