MODEL 1
REMARK VINA RESULT:      -8.4      0.000      0.000
REMARK  Name = 
REMARK  4 active torsions:
REMARK  status: ('A' for Active; 'I' for Inactive)
REMARK    1  A    between atoms: C_1  and  C_2
REMARK    2  A    between atoms: C_6  and  C_7
REMARK    3  A    between atoms: C_19  and  C_20
REMARK    4  A    between atoms: C_23  and  C_24
REMARK                            x       y       z     vdW  Elec       q    Type
REMARK                         _______ _______ _______ _____ _____    ______ ____
ROOT
ATOM      1  C   UNL     1      -3.648  13.320  22.092  0.00  0.00    +0.000 C 
ATOM      2  C   UNL     1      -4.376  12.620  23.203  0.00  0.00    +0.000 C 
ATOM      3  O   UNL     1      -3.361  11.893  23.905  0.00  0.00    +0.000 OA
ATOM      4  C   UNL     1      -2.274  11.743  23.078  0.00  0.00    +0.000 C 
ATOM      5  O   UNL     1      -1.320  11.068  23.392  0.00  0.00    +0.000 OA
ATOM      6  N   UNL     1      -2.453  12.531  21.946  0.00  0.00    +0.000 N 
ATOM      7  C   UNL     1      -1.535  12.653  20.927  0.00  0.00    +0.000 A 
ATOM      8  C   UNL     1      -1.567  13.972  20.215  0.00  0.00    +0.000 A 
ATOM      9  C   UNL     1      -0.578  14.181  19.348  0.00  0.00    +0.000 A 
ATOM     10  N   UNL     1       0.335  13.178  19.081  0.00  0.00    +0.000 N 
ATOM     11  N   UNL     1       1.401  13.252  18.254  0.00  0.00    +0.000 NA
ATOM     12  C   UNL     1       1.921  12.029  18.287  0.00  0.00    +0.000 A 
ATOM     13  C   UNL     1       1.219  11.147  19.136  0.00  0.00    +0.000 A 
ATOM     14  C   UNL     1       0.215  11.922  19.682  0.00  0.00    +0.000 A 
ATOM     15  N   UNL     1      -0.735  11.684  20.639  0.00  0.00    +0.000 NA
ENDROOT
BRANCH   1  21
ATOM     16  C   UNL     1      -6.066  10.960  18.632  0.00  0.00    +0.000 C 
ATOM     17  C   UNL     1      -5.719  12.288  19.234  0.00  0.00    +0.000 A 
ATOM     18  C   UNL     1      -6.410  13.438  18.876  0.00  0.00    +0.000 A 
ATOM     19  C   UNL     1      -6.068  14.639  19.483  0.00  0.00    +0.000 A 
ATOM     20  C   UNL     1      -5.065  14.652  20.443  0.00  0.00    +0.000 A 
ATOM     21  C   UNL     1      -4.447  13.447  20.800  0.00  0.00    +0.000 A 
ATOM     22  N   UNL     1      -4.748  12.281  20.182  0.00  0.00    +0.000 NA
ENDBRANCH   1  21
BRANCH  13  23
ATOM     23  C   UNL     1       1.463   9.747  19.427  0.00  0.00    +0.000 A 
ATOM     24  C   UNL     1       1.105   9.194  20.662  0.00  0.00    +0.000 A 
ATOM     25  C   UNL     1       1.292   7.832  20.913  0.00  0.00    +0.000 A 
ATOM     26  C   UNL     1       1.855   7.003  19.932  0.00  0.00    +0.000 A 
ATOM     27  C   UNL     1       2.207   7.565  18.704  0.00  0.00    +0.000 A 
ATOM     28  F   UNL     1       2.732   6.819  17.719  0.00  0.00    +0.000 F 
ATOM     29  C   UNL     1       2.015   8.919  18.446  0.00  0.00    +0.000 A 
BRANCH  26  30
ATOM     30  C   UNL     1       2.070   5.591  20.195  0.00  0.00    +0.000 A 
ATOM     31  N   UNL     1       1.047   4.733  20.531  0.00  0.00    +0.000 NA
ATOM     32  C   UNL     1       1.639   3.579  20.670  0.00  0.00    +0.000 A 
ATOM     33  N   UNL     1       2.967   3.727  20.449  0.00  0.00    +0.000 N 
ATOM     34  N   UNL     1       3.270   4.991  20.131  0.00  0.00    +0.000 NA
ATOM     35  H   UNL     1       3.703   3.037  20.504  0.00  0.00    +0.000 HD
ENDBRANCH  26  30
ENDBRANCH  13  23
TORSDOF 3
ENDMDL
MODEL 2
REMARK VINA RESULT:      -8.3      0.869      1.198
REMARK  Name = 
REMARK  4 active torsions:
REMARK  status: ('A' for Active; 'I' for Inactive)
REMARK    1  A    between atoms: C_1  and  C_2
REMARK    2  A    between atoms: C_6  and  C_7
REMARK    3  A    between atoms: C_19  and  C_20
REMARK    4  A    between atoms: C_23  and  C_24
REMARK                            x       y       z     vdW  Elec       q    Type
REMARK                         _______ _______ _______ _____ _____    ______ ____
ROOT
ATOM      1  C   UNL     1      -3.724  13.418  22.117  0.00  0.00    +0.000 C 
ATOM      2  C   UNL     1      -4.445  12.626  23.170  0.00  0.00    +0.000 C 
ATOM      3  O   UNL     1      -3.421  11.864  23.819  0.00  0.00    +0.000 OA
ATOM      4  C   UNL     1      -2.329  11.791  22.988  0.00  0.00    +0.000 C 
ATOM      5  O   UNL     1      -1.366  11.110  23.254  0.00  0.00    +0.000 OA
ATOM      6  N   UNL     1      -2.518  12.660  21.917  0.00  0.00    +0.000 N 
ATOM      7  C   UNL     1      -1.599  12.871  20.913  0.00  0.00    +0.000 A 
ATOM      8  C   UNL     1      -1.649  14.239  20.301  0.00  0.00    +0.000 A 
ATOM      9  C   UNL     1      -0.661  14.526  19.456  0.00  0.00    +0.000 A 
ATOM     10  N   UNL     1       0.268  13.559  19.119  0.00  0.00    +0.000 N 
ATOM     11  N   UNL     1       1.335  13.710  18.303  0.00  0.00    +0.000 NA
ATOM     12  C   UNL     1       1.873  12.496  18.246  0.00  0.00    +0.000 A 
ATOM     13  C   UNL     1       1.182  11.543  19.025  0.00  0.00    +0.000 A 
ATOM     14  C   UNL     1       0.166  12.261  19.624  0.00  0.00    +0.000 A 
ATOM     15  N   UNL     1      -0.783  11.938  20.557  0.00  0.00    +0.000 NA
ENDROOT
BRANCH   1  21
ATOM     16  C   UNL     1      -6.128  11.288  18.501  0.00  0.00    +0.000 C 
ATOM     17  C   UNL     1      -5.787  12.574  19.192  0.00  0.00    +0.000 A 
ATOM     18  C   UNL     1      -6.482  13.743  18.912  0.00  0.00    +0.000 A 
ATOM     19  C   UNL     1      -6.145  14.901  19.599  0.00  0.00    +0.000 A 
ATOM     20  C   UNL     1      -5.144  14.853  20.559  0.00  0.00    +0.000 A 
ATOM     21  C   UNL     1      -4.522  13.629  20.836  0.00  0.00    +0.000 A 
ATOM     22  N   UNL     1      -4.818  12.506  20.139  0.00  0.00    +0.000 NA
ENDBRANCH   1  21
BRANCH  13  23
ATOM     23  C   UNL     1       1.446  10.129  19.212  0.00  0.00    +0.000 A 
ATOM     24  C   UNL     1       1.980   9.352  18.176  0.00  0.00    +0.000 A 
ATOM     25  C   UNL     1       2.283   8.004  18.382  0.00  0.00    +0.000 A 
ATOM     26  C   UNL     1       2.045   7.407  19.628  0.00  0.00    +0.000 A 
ATOM     27  C   UNL     1       1.513   8.191  20.653  0.00  0.00    +0.000 A 
ATOM     28  F   UNL     1       1.281   7.682  21.873  0.00  0.00    +0.000 F 
ATOM     29  C   UNL     1       1.218   9.537  20.456  0.00  0.00    +0.000 A 
BRANCH  26  30
ATOM     30  C   UNL     1       2.340   6.002  19.841  0.00  0.00    +0.000 A 
ATOM     31  N   UNL     1       1.406   5.109  20.315  0.00  0.00    +0.000 NA
ATOM     32  C   UNL     1       2.047   3.973  20.352  0.00  0.00    +0.000 A 
ATOM     33  N   UNL     1       3.322   4.166  19.938  0.00  0.00    +0.000 N 
ATOM     34  N   UNL     1       3.536   5.441  19.593  0.00  0.00    +0.000 NA
ATOM     35  H   UNL     1       4.079   3.499  19.875  0.00  0.00    +0.000 HD
ENDBRANCH  26  30
ENDBRANCH  13  23
TORSDOF 3
ENDMDL
MODEL 3
REMARK VINA RESULT:      -7.8      3.893      6.450
REMARK  Name = 
REMARK  4 active torsions:
REMARK  status: ('A' for Active; 'I' for Inactive)
REMARK    1  A    between atoms: C_1  and  C_2
REMARK    2  A    between atoms: C_6  and  C_7
REMARK    3  A    between atoms: C_19  and  C_20
REMARK    4  A    between atoms: C_23  and  C_24
REMARK                            x       y       z     vdW  Elec       q    Type
REMARK                         _______ _______ _______ _____ _____    ______ ____
ROOT
ATOM      1  C   UNL     1       2.890  15.506  20.158  0.00  0.00    +0.000 C 
ATOM      2  C   UNL     1       3.927  15.878  19.139  0.00  0.00    +0.000 C 
ATOM      3  O   UNL     1       3.623  15.073  17.995  0.00  0.00    +0.000 OA
ATOM      4  C   UNL     1       2.854  14.007  18.397  0.00  0.00    +0.000 C 
ATOM      5  O   UNL     1       2.552  13.114  17.638  0.00  0.00    +0.000 OA
ATOM      6  N   UNL     1       2.461  14.205  19.716  0.00  0.00    +0.000 N 
ATOM      7  C   UNL     1       1.646  13.350  20.424  0.00  0.00    +0.000 A 
ATOM      8  C   UNL     1       0.815  14.015  21.480  0.00  0.00    +0.000 A 
ATOM      9  C   UNL     1      -0.106  13.244  22.055  0.00  0.00    +0.000 A 
ATOM     10  N   UNL     1      -0.185  11.901  21.738  0.00  0.00    +0.000 N 
ATOM     11  N   UNL     1      -1.080  11.007  22.215  0.00  0.00    +0.000 NA
ATOM     12  C   UNL     1      -0.706   9.854  21.669  0.00  0.00    +0.000 A 
ATOM     13  C   UNL     1       0.419   9.974  20.826  0.00  0.00    +0.000 A 
ATOM     14  C   UNL     1       0.719  11.322  20.845  0.00  0.00    +0.000 A 
ATOM     15  N   UNL     1       1.632  12.086  20.168  0.00  0.00    +0.000 NA
ENDROOT
BRANCH   1  21
ATOM     16  C   UNL     1       6.107  13.713  23.292  0.00  0.00    +0.000 C 
ATOM     17  C   UNL     1       5.043  14.738  23.038  0.00  0.00    +0.000 A 
ATOM     18  C   UNL     1       4.869  15.816  23.896  0.00  0.00    +0.000 A 
ATOM     19  C   UNL     1       3.887  16.752  23.601  0.00  0.00    +0.000 A 
ATOM     20  C   UNL     1       3.126  16.597  22.450  0.00  0.00    +0.000 A 
ATOM     21  C   UNL     1       3.391  15.519  21.597  0.00  0.00    +0.000 A 
ATOM     22  N   UNL     1       4.319  14.580  21.901  0.00  0.00    +0.000 NA
ENDBRANCH   1  21
BRANCH  13  23
ATOM     23  C   UNL     1       1.125   8.958  20.069  0.00  0.00    +0.000 A 
ATOM     24  C   UNL     1       1.483   9.173  18.733  0.00  0.00    +0.000 A 
ATOM     25  C   UNL     1       2.213   8.211  18.029  0.00  0.00    +0.000 A 
ATOM     26  C   UNL     1       2.584   7.010  18.650  0.00  0.00    +0.000 A 
ATOM     27  C   UNL     1       2.222   6.807  19.982  0.00  0.00    +0.000 A 
ATOM     28  F   UNL     1       2.566   5.687  20.636  0.00  0.00    +0.000 F 
ATOM     29  C   UNL     1       1.503   7.766  20.691  0.00  0.00    +0.000 A 
BRANCH  26  30
ATOM     30  C   UNL     1       3.325   6.000  17.916  0.00  0.00    +0.000 A 
ATOM     31  N   UNL     1       4.593   6.215  17.426  0.00  0.00    +0.000 NA
ATOM     32  C   UNL     1       4.905   5.086  16.854  0.00  0.00    +0.000 A 
ATOM     33  N   UNL     1       3.867   4.224  16.969  0.00  0.00    +0.000 N 
ATOM     34  N   UNL     1       2.853   4.769  17.652  0.00  0.00    +0.000 NA
ATOM     35  H   UNL     1       3.778   3.282  16.614  0.00  0.00    +0.000 HD
ENDBRANCH  26  30
ENDBRANCH  13  23
TORSDOF 3
ENDMDL
MODEL 4
REMARK VINA RESULT:      -7.8      3.770      6.147
REMARK  Name = 
REMARK  4 active torsions:
REMARK  status: ('A' for Active; 'I' for Inactive)
REMARK    1  A    between atoms: C_1  and  C_2
REMARK    2  A    between atoms: C_6  and  C_7
REMARK    3  A    between atoms: C_19  and  C_20
REMARK    4  A    between atoms: C_23  and  C_24
REMARK                            x       y       z     vdW  Elec       q    Type
REMARK                         _______ _______ _______ _____ _____    ______ ____
ROOT
ATOM      1  C   UNL     1       2.468  14.814  19.963  0.00  0.00    +0.000 C 
ATOM      2  C   UNL     1       3.446  15.170  18.881  0.00  0.00    +0.000 C 
ATOM      3  O   UNL     1       3.193  14.227  17.834  0.00  0.00    +0.000 OA
ATOM      4  C   UNL     1       2.533  13.144  18.364  0.00  0.00    +0.000 C 
ATOM      5  O   UNL     1       2.298  12.154  17.709  0.00  0.00    +0.000 OA
ATOM      6  N   UNL     1       2.151  13.442  19.668  0.00  0.00    +0.000 N 
ATOM      7  C   UNL     1       1.431  12.596  20.482  0.00  0.00    +0.000 A 
ATOM      8  C   UNL     1       0.565  13.290  21.490  0.00  0.00    +0.000 A 
ATOM      9  C   UNL     1      -0.270  12.504  22.167  0.00  0.00    +0.000 A 
ATOM     10  N   UNL     1      -0.233  11.133  21.990  0.00  0.00    +0.000 N 
ATOM     11  N   UNL     1      -1.032  10.218  22.581  0.00  0.00    +0.000 NA
ATOM     12  C   UNL     1      -0.567   9.052  22.144  0.00  0.00    +0.000 A 
ATOM     13  C   UNL     1       0.525   9.184  21.259  0.00  0.00    +0.000 A 
ATOM     14  C   UNL     1       0.702  10.548  21.133  0.00  0.00    +0.000 A 
ATOM     15  N   UNL     1       1.527  11.316  20.356  0.00  0.00    +0.000 NA
ENDROOT
BRANCH   1  21
ATOM     16  C   UNL     1       5.853  13.586  23.190  0.00  0.00    +0.000 C 
ATOM     17  C   UNL     1       4.721  14.508  22.853  0.00  0.00    +0.000 A 
ATOM     18  C   UNL     1       4.496  15.664  23.589  0.00  0.00    +0.000 A 
ATOM     19  C   UNL     1       3.451  16.499  23.218  0.00  0.00    +0.000 A 
ATOM     20  C   UNL     1       2.679  16.169  22.112  0.00  0.00    +0.000 A 
ATOM     21  C   UNL     1       2.995  15.020  21.378  0.00  0.00    +0.000 A 
ATOM     22  N   UNL     1       3.987  14.180  21.760  0.00  0.00    +0.000 NA
ENDBRANCH   1  21
BRANCH  13  23
ATOM     23  C   UNL     1       1.305   8.162  20.588  0.00  0.00    +0.000 A 
ATOM     24  C   UNL     1       1.452   6.886  21.144  0.00  0.00    +0.000 A 
ATOM     25  C   UNL     1       2.158   5.890  20.464  0.00  0.00    +0.000 A 
ATOM     26  C   UNL     1       2.741   6.162  19.218  0.00  0.00    +0.000 A 
ATOM     27  C   UNL     1       2.588   7.437  18.673  0.00  0.00    +0.000 A 
ATOM     28  F   UNL     1       3.106   7.752  17.475  0.00  0.00    +0.000 F 
ATOM     29  C   UNL     1       1.878   8.430  19.342  0.00  0.00    +0.000 A 
BRANCH  26  30
ATOM     30  C   UNL     1       3.493   5.136  18.517  0.00  0.00    +0.000 A 
ATOM     31  N   UNL     1       2.988   4.454  17.433  0.00  0.00    +0.000 NA
ATOM     32  C   UNL     1       3.955   3.647  17.092  0.00  0.00    +0.000 A 
ATOM     33  N   UNL     1       4.997   3.813  17.941  0.00  0.00    +0.000 N 
ATOM     34  N   UNL     1       4.740   4.762  18.849  0.00  0.00    +0.000 NA
ATOM     35  H   UNL     1       5.882   3.326  17.967  0.00  0.00    +0.000 HD
ENDBRANCH  26  30
ENDBRANCH  13  23
TORSDOF 3
ENDMDL
MODEL 5
REMARK VINA RESULT:      -7.8      3.717      6.163
REMARK  Name = 
REMARK  4 active torsions:
REMARK  status: ('A' for Active; 'I' for Inactive)
REMARK    1  A    between atoms: C_1  and  C_2
REMARK    2  A    between atoms: C_6  and  C_7
REMARK    3  A    between atoms: C_19  and  C_20
REMARK    4  A    between atoms: C_23  and  C_24
REMARK                            x       y       z     vdW  Elec       q    Type
REMARK                         _______ _______ _______ _____ _____    ______ ____
ROOT
ATOM      1  C   UNL     1       2.179  15.628  20.266  0.00  0.00    +0.000 C 
ATOM      2  C   UNL     1       3.101  16.069  19.166  0.00  0.00    +0.000 C 
ATOM      3  O   UNL     1       2.804  15.198  18.068  0.00  0.00    +0.000 OA
ATOM      4  C   UNL     1       2.179  14.075  18.552  0.00  0.00    +0.000 C 
ATOM      5  O   UNL     1       1.920  13.130  17.841  0.00  0.00    +0.000 OA
ATOM      6  N   UNL     1       1.858  14.276  19.890  0.00  0.00    +0.000 N 
ATOM      7  C   UNL     1       1.185  13.368  20.677  0.00  0.00    +0.000 A 
ATOM      8  C   UNL     1       0.364  13.981  21.771  0.00  0.00    +0.000 A 
ATOM      9  C   UNL     1      -0.432  13.141  22.430  0.00  0.00    +0.000 A 
ATOM     10  N   UNL     1      -0.393  11.786  22.156  0.00  0.00    +0.000 N 
ATOM     11  N   UNL     1      -1.157  10.823  22.718  0.00  0.00    +0.000 NA
ATOM     12  C   UNL     1      -0.704   9.696  22.179  0.00  0.00    +0.000 A 
ATOM     13  C   UNL     1       0.343   9.901  21.255  0.00  0.00    +0.000 A 
ATOM     14  C   UNL     1       0.504  11.272  21.217  0.00  0.00    +0.000 A 
ATOM     15  N   UNL     1       1.284  12.101  20.457  0.00  0.00    +0.000 NA
ENDROOT
BRANCH   1  21
ATOM     16  C   UNL     1       5.816  14.350  23.185  0.00  0.00    +0.000 C 
ATOM     17  C   UNL     1       4.610  15.219  22.994  0.00  0.00    +0.000 A 
ATOM     18  C   UNL     1       4.353  16.285  23.847  0.00  0.00    +0.000 A 
ATOM     19  C   UNL     1       3.236  17.075  23.610  0.00  0.00    +0.000 A 
ATOM     20  C   UNL     1       2.425  16.793  22.519  0.00  0.00    +0.000 A 
ATOM     21  C   UNL     1       2.772  15.740  21.664  0.00  0.00    +0.000 A 
ATOM     22  N   UNL     1       3.837  14.941  21.914  0.00  0.00    +0.000 NA
ENDBRANCH   1  21
BRANCH  13  23
ATOM     23  C   UNL     1       1.097   8.937  20.478  0.00  0.00    +0.000 A 
ATOM     24  C   UNL     1       1.452   7.694  21.017  0.00  0.00    +0.000 A 
ATOM     25  C   UNL     1       2.130   6.749  20.243  0.00  0.00    +0.000 A 
ATOM     26  C   UNL     1       2.476   7.039  18.915  0.00  0.00    +0.000 A 
ATOM     27  C   UNL     1       2.117   8.280  18.388  0.00  0.00    +0.000 A 
ATOM     28  F   UNL     1       2.403   8.609  17.118  0.00  0.00    +0.000 F 
ATOM     29  C   UNL     1       1.434   9.222  19.152  0.00  0.00    +0.000 A 
BRANCH  26  30
ATOM     30  C   UNL     1       3.198   6.068  18.113  0.00  0.00    +0.000 A 
ATOM     31  N   UNL     1       4.452   6.312  17.601  0.00  0.00    +0.000 NA
ATOM     32  C   UNL     1       4.751   5.212  16.965  0.00  0.00    +0.000 A 
ATOM     33  N   UNL     1       3.718   4.342  17.067  0.00  0.00    +0.000 N 
ATOM     34  N   UNL     1       2.722   4.851  17.802  0.00  0.00    +0.000 NA
ATOM     35  H   UNL     1       3.621   3.418  16.668  0.00  0.00    +0.000 HD
ENDBRANCH  26  30
ENDBRANCH  13  23
TORSDOF 3
ENDMDL
MODEL 6
REMARK VINA RESULT:      -7.7      3.844      6.234
REMARK  Name = 
REMARK  4 active torsions:
REMARK  status: ('A' for Active; 'I' for Inactive)
REMARK    1  A    between atoms: C_1  and  C_2
REMARK    2  A    between atoms: C_6  and  C_7
REMARK    3  A    between atoms: C_19  and  C_20
REMARK    4  A    between atoms: C_23  and  C_24
REMARK                            x       y       z     vdW  Elec       q    Type
REMARK                         _______ _______ _______ _____ _____    ______ ____
ROOT
ATOM      1  C   UNL     1       2.476  14.835  19.973  0.00  0.00    +0.000 C 
ATOM      2  C   UNL     1       3.443  15.213  18.888  0.00  0.00    +0.000 C 
ATOM      3  O   UNL     1       3.173  14.297  17.821  0.00  0.00    +0.000 OA
ATOM      4  C   UNL     1       2.514  13.205  18.332  0.00  0.00    +0.000 C 
ATOM      5  O   UNL     1       2.267  12.232  17.656  0.00  0.00    +0.000 OA
ATOM      6  N   UNL     1       2.149  13.472  19.648  0.00  0.00    +0.000 N 
ATOM      7  C   UNL     1       1.435  12.610  20.449  0.00  0.00    +0.000 A 
ATOM      8  C   UNL     1       0.584  13.283  21.485  0.00  0.00    +0.000 A 
ATOM      9  C   UNL     1      -0.247  12.484  22.152  0.00  0.00    +0.000 A 
ATOM     10  N   UNL     1      -0.218  11.118  21.941  0.00  0.00    +0.000 N 
ATOM     11  N   UNL     1      -1.015  10.192  22.518  0.00  0.00    +0.000 NA
ATOM     12  C   UNL     1      -0.560   9.036  22.048  0.00  0.00    +0.000 A 
ATOM     13  C   UNL     1       0.522   9.184  21.154  0.00  0.00    +0.000 A 
ATOM     14  C   UNL     1       0.704  10.550  21.059  0.00  0.00    +0.000 A 
ATOM     15  N   UNL     1       1.523  11.333  20.291  0.00  0.00    +0.000 NA
ENDROOT
BRANCH   1  21
ATOM     16  C   UNL     1       5.908  13.533  23.121  0.00  0.00    +0.000 C 
ATOM     17  C   UNL     1       4.768  14.459  22.823  0.00  0.00    +0.000 A 
ATOM     18  C   UNL     1       4.548  15.593  23.594  0.00  0.00    +0.000 A 
ATOM     19  C   UNL     1       3.495  16.434  23.260  0.00  0.00    +0.000 A 
ATOM     20  C   UNL     1       2.710  16.131  22.156  0.00  0.00    +0.000 A 
ATOM     21  C   UNL     1       3.021  15.004  21.386  0.00  0.00    +0.000 A 
ATOM     22  N   UNL     1       4.021  14.158  21.732  0.00  0.00    +0.000 NA
ENDBRANCH   1  21
BRANCH  13  23
ATOM     23  C   UNL     1       1.289   8.175  20.449  0.00  0.00    +0.000 A 
ATOM     24  C   UNL     1       1.879   8.452  19.210  0.00  0.00    +0.000 A 
ATOM     25  C   UNL     1       2.663   7.493  18.564  0.00  0.00    +0.000 A 
ATOM     26  C   UNL     1       2.859   6.232  19.146  0.00  0.00    +0.000 A 
ATOM     27  C   UNL     1       2.266   5.966  20.381  0.00  0.00    +0.000 A 
ATOM     28  F   UNL     1       2.433   4.785  20.996  0.00  0.00    +0.000 F 
ATOM     29  C   UNL     1       1.492   6.922  21.032  0.00  0.00    +0.000 A 
BRANCH  26  30
ATOM     30  C   UNL     1       3.656   5.224  18.469  0.00  0.00    +0.000 A 
ATOM     31  N   UNL     1       3.144   4.405  17.489  0.00  0.00    +0.000 NA
ATOM     32  C   UNL     1       4.159   3.666  17.135  0.00  0.00    +0.000 A 
ATOM     33  N   UNL     1       5.239   4.004  17.878  0.00  0.00    +0.000 N 
ATOM     34  N   UNL     1       4.956   5.001  18.726  0.00  0.00    +0.000 NA
ATOM     35  H   UNL     1       6.169   3.607  17.870  0.00  0.00    +0.000 HD
ENDBRANCH  26  30
ENDBRANCH  13  23
TORSDOF 3
ENDMDL
MODEL 7
REMARK VINA RESULT:      -7.6      1.016      1.226
REMARK  Name = 
REMARK  4 active torsions:
REMARK  status: ('A' for Active; 'I' for Inactive)
REMARK    1  A    between atoms: C_1  and  C_2
REMARK    2  A    between atoms: C_6  and  C_7
REMARK    3  A    between atoms: C_19  and  C_20
REMARK    4  A    between atoms: C_23  and  C_24
REMARK                            x       y       z     vdW  Elec       q    Type
REMARK                         _______ _______ _______ _____ _____    ______ ____
ROOT
ATOM      1  C   UNL     1      -4.361  13.809  22.124  0.00  0.00    +0.000 C 
ATOM      2  C   UNL     1      -5.145  12.950  23.074  0.00  0.00    +0.000 C 
ATOM      3  O   UNL     1      -4.157  12.206  23.795  0.00  0.00    +0.000 OA
ATOM      4  C   UNL     1      -2.988  12.208  23.073  0.00  0.00    +0.000 C 
ATOM      5  O   UNL     1      -2.026  11.556  23.410  0.00  0.00    +0.000 OA
ATOM      6  N   UNL     1      -3.109  13.108  22.019  0.00  0.00    +0.000 N 
ATOM      7  C   UNL     1      -2.107  13.393  21.118  0.00  0.00    +0.000 A 
ATOM      8  C   UNL     1      -2.157  14.780  20.550  0.00  0.00    +0.000 A 
ATOM      9  C   UNL     1      -1.105  15.138  19.816  0.00  0.00    +0.000 A 
ATOM     10  N   UNL     1      -0.107  14.223  19.539  0.00  0.00    +0.000 N 
ATOM     11  N   UNL     1       1.027  14.447  18.838  0.00  0.00    +0.000 NA
ATOM     12  C   UNL     1       1.620  13.258  18.794  0.00  0.00    +0.000 A 
ATOM     13  C   UNL     1       0.899  12.250  19.469  0.00  0.00    +0.000 A 
ATOM     14  C   UNL     1      -0.201  12.903  19.988  0.00  0.00    +0.000 A 
ATOM     15  N   UNL     1      -1.221  12.508  20.812  0.00  0.00    +0.000 NA
ENDROOT
BRANCH   1  21
ATOM     16  C   UNL     1      -6.579  11.737  18.359  0.00  0.00    +0.000 C 
ATOM     17  C   UNL     1      -6.224  13.017  19.054  0.00  0.00    +0.000 A 
ATOM     18  C   UNL     1      -6.828  14.216  18.698  0.00  0.00    +0.000 A 
ATOM     19  C   UNL     1      -6.483  15.369  19.392  0.00  0.00    +0.000 A 
ATOM     20  C   UNL     1      -5.567  15.286  20.432  0.00  0.00    +0.000 A 
ATOM     21  C   UNL     1      -5.039  14.036  20.778  0.00  0.00    +0.000 A 
ATOM     22  N   UNL     1      -5.340  12.916  20.078  0.00  0.00    +0.000 NA
ENDBRANCH   1  21
BRANCH  13  23
ATOM     23  C   UNL     1       1.205  10.842  19.633  0.00  0.00    +0.000 A 
ATOM     24  C   UNL     1       1.086  10.218  20.880  0.00  0.00    +0.000 A 
ATOM     25  C   UNL     1       1.329   8.849  21.018  0.00  0.00    +0.000 A 
ATOM     26  C   UNL     1       1.708   8.082  19.906  0.00  0.00    +0.000 A 
ATOM     27  C   UNL     1       1.822   8.714  18.667  0.00  0.00    +0.000 A 
ATOM     28  F   UNL     1       2.162   8.031  17.563  0.00  0.00    +0.000 F 
ATOM     29  C   UNL     1       1.573  10.076  18.523  0.00  0.00    +0.000 A 
BRANCH  26  30
ATOM     30  C   UNL     1       1.980   6.664  20.048  0.00  0.00    +0.000 A 
ATOM     31  N   UNL     1       3.063   6.051  19.458  0.00  0.00    +0.000 NA
ATOM     32  C   UNL     1       2.960   4.805  19.829  0.00  0.00    +0.000 A 
ATOM     33  N   UNL     1       1.853   4.656  20.594  0.00  0.00    +0.000 N 
ATOM     34  N   UNL     1       1.216   5.821  20.764  0.00  0.00    +0.000 NA
ATOM     35  H   UNL     1       1.476   3.817  21.014  0.00  0.00    +0.000 HD
ENDBRANCH  26  30
ENDBRANCH  13  23
TORSDOF 3
ENDMDL
MODEL 8
REMARK VINA RESULT:      -7.5      1.290      1.928
REMARK  Name = 
REMARK  4 active torsions:
REMARK  status: ('A' for Active; 'I' for Inactive)
REMARK    1  A    between atoms: C_1  and  C_2
REMARK    2  A    between atoms: C_6  and  C_7
REMARK    3  A    between atoms: C_19  and  C_20
REMARK    4  A    between atoms: C_23  and  C_24
REMARK                            x       y       z     vdW  Elec       q    Type
REMARK                         _______ _______ _______ _____ _____    ______ ____
ROOT
ATOM      1  C   UNL     1      -4.239  13.440  22.577  0.00  0.00    +0.000 C 
ATOM      2  C   UNL     1      -4.840  12.586  23.656  0.00  0.00    +0.000 C 
ATOM      3  O   UNL     1      -3.728  11.901  24.243  0.00  0.00    +0.000 OA
ATOM      4  C   UNL     1      -2.678  11.921  23.356  0.00  0.00    +0.000 C 
ATOM      5  O   UNL     1      -1.653  11.314  23.565  0.00  0.00    +0.000 OA
ATOM      6  N   UNL     1      -2.989  12.780  22.307  0.00  0.00    +0.000 N 
ATOM      7  C   UNL     1      -2.142  13.070  21.261  0.00  0.00    +0.000 A 
ATOM      8  C   UNL     1      -2.330  14.435  20.668  0.00  0.00    +0.000 A 
ATOM      9  C   UNL     1      -1.412  14.805  19.777  0.00  0.00    +0.000 A 
ATOM     10  N   UNL     1      -0.429  13.917  19.381  0.00  0.00    +0.000 N 
ATOM     11  N   UNL     1       0.579  14.157  18.514  0.00  0.00    +0.000 NA
ATOM     12  C   UNL     1       1.206  12.989  18.415  0.00  0.00    +0.000 A 
ATOM     13  C   UNL     1       0.632  11.979  19.217  0.00  0.00    +0.000 A 
ATOM     14  C   UNL     1      -0.405  12.610  19.875  0.00  0.00    +0.000 A 
ATOM     15  N   UNL     1      -1.276  12.207  20.851  0.00  0.00    +0.000 NA
ENDROOT
BRANCH   1  21
ATOM     16  C   UNL     1      -6.178  16.545  19.418  0.00  0.00    +0.000 C 
ATOM     17  C   UNL     1      -5.914  15.110  19.762  0.00  0.00    +0.000 A 
ATOM     18  C   UNL     1      -6.095  14.104  18.822  0.00  0.00    +0.000 A 
ATOM     19  C   UNL     1      -5.810  12.794  19.184  0.00  0.00    +0.000 A 
ATOM     20  C   UNL     1      -5.331  12.531  20.461  0.00  0.00    +0.000 A 
ATOM     21  C   UNL     1      -5.115  13.599  21.341  0.00  0.00    +0.000 A 
ATOM     22  N   UNL     1      -5.431  14.873  21.008  0.00  0.00    +0.000 NA
ENDBRANCH   1  21
BRANCH  13  23
ATOM     23  C   UNL     1       1.014  10.588  19.373  0.00  0.00    +0.000 A 
ATOM     24  C   UNL     1       1.472   9.839  18.282  0.00  0.00    +0.000 A 
ATOM     25  C   UNL     1       1.891   8.517  18.452  0.00  0.00    +0.000 A 
ATOM     26  C   UNL     1       1.846   7.919  19.719  0.00  0.00    +0.000 A 
ATOM     27  C   UNL     1       1.389   8.674  20.800  0.00  0.00    +0.000 A 
ATOM     28  F   UNL     1       1.342   8.163  22.039  0.00  0.00    +0.000 F 
ATOM     29  C   UNL     1       0.979   9.995  20.637  0.00  0.00    +0.000 A 
BRANCH  26  30
ATOM     30  C   UNL     1       2.262   6.539  19.897  0.00  0.00    +0.000 A 
ATOM     31  N   UNL     1       1.498   5.613  20.571  0.00  0.00    +0.000 NA
ATOM     32  C   UNL     1       2.200   4.516  20.500  0.00  0.00    +0.000 A 
ATOM     33  N   UNL     1       3.351   4.763  19.831  0.00  0.00    +0.000 N 
ATOM     34  N   UNL     1       3.414   6.036  19.422  0.00  0.00    +0.000 NA
ATOM     35  H   UNL     1       4.118   4.136  19.628  0.00  0.00    +0.000 HD
ENDBRANCH  26  30
ENDBRANCH  13  23
TORSDOF 3
ENDMDL
MODEL 9
REMARK VINA RESULT:      -7.3      1.113      1.698
REMARK  Name = 
REMARK  4 active torsions:
REMARK  status: ('A' for Active; 'I' for Inactive)
REMARK    1  A    between atoms: C_1  and  C_2
REMARK    2  A    between atoms: C_6  and  C_7
REMARK    3  A    between atoms: C_19  and  C_20
REMARK    4  A    between atoms: C_23  and  C_24
REMARK                            x       y       z     vdW  Elec       q    Type
REMARK                         _______ _______ _______ _____ _____    ______ ____
ROOT
ATOM      1  C   UNL     1      -4.363  13.393  22.580  0.00  0.00    +0.000 C 
ATOM      2  C   UNL     1      -4.963  12.527  23.650  0.00  0.00    +0.000 C 
ATOM      3  O   UNL     1      -3.844  11.879  24.266  0.00  0.00    +0.000 OA
ATOM      4  C   UNL     1      -2.776  11.926  23.403  0.00  0.00    +0.000 C 
ATOM      5  O   UNL     1      -1.737  11.352  23.639  0.00  0.00    +0.000 OA
ATOM      6  N   UNL     1      -3.088  12.770  22.342  0.00  0.00    +0.000 N 
ATOM      7  C   UNL     1      -2.227  13.080  21.313  0.00  0.00    +0.000 A 
ATOM      8  C   UNL     1      -2.443  14.435  20.709  0.00  0.00    +0.000 A 
ATOM      9  C   UNL     1      -1.516  14.829  19.837  0.00  0.00    +0.000 A 
ATOM     10  N   UNL     1      -0.498  13.969  19.468  0.00  0.00    +0.000 N 
ATOM     11  N   UNL     1       0.521  14.236  18.623  0.00  0.00    +0.000 NA
ATOM     12  C   UNL     1       1.186  13.087  18.545  0.00  0.00    +0.000 A 
ATOM     13  C   UNL     1       0.625  12.063  19.340  0.00  0.00    +0.000 A 
ATOM     14  C   UNL     1      -0.445  12.666  19.971  0.00  0.00    +0.000 A 
ATOM     15  N   UNL     1      -1.326  12.242  20.929  0.00  0.00    +0.000 NA
ENDROOT
BRANCH   1  21
ATOM     16  C   UNL     1      -6.326  16.420  19.361  0.00  0.00    +0.000 C 
ATOM     17  C   UNL     1      -6.025  14.996  19.719  0.00  0.00    +0.000 A 
ATOM     18  C   UNL     1      -6.153  13.980  18.781  0.00  0.00    +0.000 A 
ATOM     19  C   UNL     1      -5.836  12.682  19.155  0.00  0.00    +0.000 A 
ATOM     20  C   UNL     1      -5.379  12.440  20.444  0.00  0.00    +0.000 A 
ATOM     21  C   UNL     1      -5.216  13.518  21.323  0.00  0.00    +0.000 A 
ATOM     22  N   UNL     1      -5.564  14.780  20.976  0.00  0.00    +0.000 NA
ENDBRANCH   1  21
BRANCH  13  23
ATOM     23  C   UNL     1       1.046  10.686  19.512  0.00  0.00    +0.000 A 
ATOM     24  C   UNL     1       0.946  10.052  20.756  0.00  0.00    +0.000 A 
ATOM     25  C   UNL     1       1.301   8.708  20.900  0.00  0.00    +0.000 A 
ATOM     26  C   UNL     1       1.775   7.980  19.800  0.00  0.00    +0.000 A 
ATOM     27  C   UNL     1       1.870   8.622  18.564  0.00  0.00    +0.000 A 
ATOM     28  F   UNL     1       2.297   7.973  17.471  0.00  0.00    +0.000 F 
ATOM     29  C   UNL     1       1.509   9.958  18.414  0.00  0.00    +0.000 A 
BRANCH  26  30
ATOM     30  C   UNL     1       2.164   6.589  19.949  0.00  0.00    +0.000 A 
ATOM     31  N   UNL     1       3.309   6.072  19.386  0.00  0.00    +0.000 NA
ATOM     32  C   UNL     1       3.304   4.821  19.755  0.00  0.00    +0.000 A 
ATOM     33  N   UNL     1       2.195   4.577  20.494  0.00  0.00    +0.000 N 
ATOM     34  N   UNL     1       1.458   5.684  20.647  0.00  0.00    +0.000 NA
ATOM     35  H   UNL     1       1.881   3.709  20.906  0.00  0.00    +0.000 HD
ENDBRANCH  26  30
ENDBRANCH  13  23
TORSDOF 3
ENDMDL
