MODEL 1
REMARK VINA RESULT:      -7.6      0.000      0.000
REMARK  Name = 
REMARK  6 active torsions:
REMARK  status: ('A' for Active; 'I' for Inactive)
REMARK    1  A    between atoms: C_1  and  C_2
REMARK    2  A    between atoms: C_2  and  C_3
REMARK    3  A    between atoms: C_2  and  N_4
REMARK    4  A    between atoms: C_8  and  C_9
REMARK    5  A    between atoms: C_9  and  N_10
REMARK    6  A    between atoms: N_13  and  C_14
REMARK                            x       y       z     vdW  Elec       q    Type
REMARK                         _______ _______ _______ _____ _____    ______ ____
ROOT
ATOM      1  N   UNL     1       2.237   7.992  18.472  0.00  0.00    +0.000 N 
ATOM      2  C   UNL     1       1.722   9.243  18.270  0.00  0.00    +0.000 C 
ATOM      3  O   UNL     1       2.187  10.042  17.471  0.00  0.00    +0.000 OA
ATOM      4  N   UNL     1       0.637   9.508  19.053  0.00  0.00    +0.000 N 
ATOM      5  H   UNL     1       1.853   7.412  19.202  0.00  0.00    +0.000 HD
ATOM      6  H   UNL     1       0.310   8.829  19.723  0.00  0.00    +0.000 HD
ENDROOT
BRANCH   4   7
ATOM      7  C   UNL     1      -0.013  10.798  18.986  0.00  0.00    +0.000 C 
ATOM      8  C   UNL     1      -0.211  11.426  20.391  0.00  0.00    +0.000 C 
ATOM      9  C   UNL     1      -1.081  12.702  20.318  0.00  0.00    +0.000 C 
ATOM     10  C   UNL     1      -2.495  12.432  19.761  0.00  0.00    +0.000 C 
ATOM     11  C   UNL     1      -2.409  11.440  18.665  0.00  0.00    +0.000 A 
ATOM     12  O   UNL     1      -3.486  11.188  17.887  0.00  0.00    +0.000 OA
ATOM     13  C   UNL     1      -3.086  10.247  16.987  0.00  0.00    +0.000 A 
ATOM     14  C   UNL     1      -1.771   9.894  17.197  0.00  0.00    +0.000 A 
ATOM     15  C   UNL     1      -1.330  10.664  18.300  0.00  0.00    +0.000 A 
ENDBRANCH   4   7
BRANCH   1  16
ATOM     16  C   UNL     1       3.400   7.520  17.740  0.00  0.00    +0.000 C 
BRANCH  16  21
ATOM     17  N   UNL     1       3.078   3.871  19.042  0.00  0.00    +0.000 NA
ATOM     18  C   UNL     1       3.536   3.200  17.810  0.00  0.00    +0.000 C 
ATOM     19  C   UNL     1       4.735   3.920  17.191  0.00  0.00    +0.000 C 
ATOM     20  C   UNL     1       4.400   5.364  16.852  0.00  0.00    +0.000 C 
ATOM     21  C   UNL     1       3.821   6.077  18.076  0.00  0.00    +0.000 C 
ATOM     22  C   UNL     1       2.680   5.262  18.717  0.00  0.00    +0.000 C 
BRANCH  17  24
ATOM     23  C   UNL     1       1.014   4.057  20.463  0.00  0.00    +0.000 C 
ATOM     24  C   UNL     1       1.963   3.123  19.691  0.00  0.00    +0.000 C 
ATOM     25  C   UNL     1       1.097   2.345  18.683  0.00  0.00    +0.000 C 
ENDBRANCH  17  24
ENDBRANCH  16  21
ENDBRANCH   1  16
TORSDOF 4
ENDMDL
MODEL 2
REMARK VINA RESULT:      -7.6      6.382     10.083
REMARK  Name = 
REMARK  6 active torsions:
REMARK  status: ('A' for Active; 'I' for Inactive)
REMARK    1  A    between atoms: C_1  and  C_2
REMARK    2  A    between atoms: C_2  and  C_3
REMARK    3  A    between atoms: C_2  and  N_4
REMARK    4  A    between atoms: C_8  and  C_9
REMARK    5  A    between atoms: C_9  and  N_10
REMARK    6  A    between atoms: N_13  and  C_14
REMARK                            x       y       z     vdW  Elec       q    Type
REMARK                         _______ _______ _______ _____ _____    ______ ____
ROOT
ATOM      1  N   UNL     1       8.053   9.315  17.777  0.00  0.00    +0.000 N 
ATOM      2  C   UNL     1       7.855   7.969  17.919  0.00  0.00    +0.000 C 
ATOM      3  O   UNL     1       8.427   7.290  18.758  0.00  0.00    +0.000 OA
ATOM      4  N   UNL     1       6.956   7.463  17.028  0.00  0.00    +0.000 N 
ATOM      5  H   UNL     1       7.608   9.801  17.013  0.00  0.00    +0.000 HD
ATOM      6  H   UNL     1       6.534   8.058  16.331  0.00  0.00    +0.000 HD
ENDROOT
BRANCH   4   7
ATOM      7  C   UNL     1       6.652   6.050  17.023  0.00  0.00    +0.000 C 
ATOM      8  C   UNL     1       6.965   5.390  15.653  0.00  0.00    +0.000 C 
ATOM      9  C   UNL     1       6.450   3.933  15.601  0.00  0.00    +0.000 C 
ATOM     10  C   UNL     1       4.921   3.831  15.791  0.00  0.00    +0.000 C 
ATOM     11  C   UNL     1       4.487   4.813  16.810  0.00  0.00    +0.000 A 
ATOM     12  O   UNL     1       3.225   4.781  17.295  0.00  0.00    +0.000 OA
ATOM     13  C   UNL     1       3.146   5.794  18.201  0.00  0.00    +0.000 A 
ATOM     14  C   UNL     1       4.342   6.473  18.285  0.00  0.00    +0.000 A 
ATOM     15  C   UNL     1       5.217   5.841  17.368  0.00  0.00    +0.000 A 
ENDBRANCH   4   7
BRANCH   1  16
ATOM     16  C   UNL     1       8.980  10.043  18.626  0.00  0.00    +0.000 C 
BRANCH  16  21
ATOM     17  N   UNL     1       9.451  13.814  17.808  0.00  0.00    +0.000 NA
ATOM     18  C   UNL     1      10.887  13.891  18.141  0.00  0.00    +0.000 C 
ATOM     19  C   UNL     1      11.650  12.672  17.623  0.00  0.00    +0.000 C 
ATOM     20  C   UNL     1      11.094  11.382  18.206  0.00  0.00    +0.000 C 
ATOM     21  C   UNL     1       9.583  11.303  17.978  0.00  0.00    +0.000 C 
ATOM     22  C   UNL     1       8.875  12.596  18.428  0.00  0.00    +0.000 C 
BRANCH  17  24
ATOM     23  C   UNL     1       9.375  16.323  17.691  0.00  0.00    +0.000 C 
ATOM     24  C   UNL     1       8.721  15.041  18.238  0.00  0.00    +0.000 C 
ATOM     25  C   UNL     1       7.254  15.059  17.774  0.00  0.00    +0.000 C 
ENDBRANCH  17  24
ENDBRANCH  16  21
ENDBRANCH   1  16
TORSDOF 4
ENDMDL
MODEL 3
REMARK VINA RESULT:      -7.5      6.419     10.201
REMARK  Name = 
REMARK  6 active torsions:
REMARK  status: ('A' for Active; 'I' for Inactive)
REMARK    1  A    between atoms: C_1  and  C_2
REMARK    2  A    between atoms: C_2  and  C_3
REMARK    3  A    between atoms: C_2  and  N_4
REMARK    4  A    between atoms: C_8  and  C_9
REMARK    5  A    between atoms: C_9  and  N_10
REMARK    6  A    between atoms: N_13  and  C_14
REMARK                            x       y       z     vdW  Elec       q    Type
REMARK                         _______ _______ _______ _____ _____    ______ ____
ROOT
ATOM      1  N   UNL     1       8.498   8.280  18.649  0.00  0.00    +0.000 N 
ATOM      2  C   UNL     1       7.785   7.354  17.938  0.00  0.00    +0.000 C 
ATOM      3  O   UNL     1       7.154   7.621  16.927  0.00  0.00    +0.000 OA
ATOM      4  N   UNL     1       7.852   6.102  18.474  0.00  0.00    +0.000 N 
ATOM      5  H   UNL     1       8.933   8.008  19.518  0.00  0.00    +0.000 HD
ATOM      6  H   UNL     1       8.359   5.936  19.329  0.00  0.00    +0.000 HD
ENDROOT
BRANCH   4   7
ATOM      7  C   UNL     1       7.132   5.008  17.861  0.00  0.00    +0.000 C 
ATOM      8  C   UNL     1       7.297   4.992  16.318  0.00  0.00    +0.000 C 
ATOM      9  C   UNL     1       6.366   3.945  15.664  0.00  0.00    +0.000 C 
ATOM     10  C   UNL     1       4.872   4.220  15.936  0.00  0.00    +0.000 C 
ATOM     11  C   UNL     1       4.707   4.704  17.326  0.00  0.00    +0.000 A 
ATOM     12  O   UNL     1       3.473   4.824  17.865  0.00  0.00    +0.000 OA
ATOM     13  C   UNL     1       3.661   5.280  19.134  0.00  0.00    +0.000 A 
ATOM     14  C   UNL     1       5.002   5.460  19.397  0.00  0.00    +0.000 A 
ATOM     15  C   UNL     1       5.686   5.094  18.214  0.00  0.00    +0.000 A 
ENDBRANCH   4   7
BRANCH   1  16
ATOM     16  C   UNL     1       8.547   9.676  18.247  0.00  0.00    +0.000 C 
BRANCH  16  21
ATOM     17  N   UNL     1      11.126  12.533  18.796  0.00  0.00    +0.000 NA
ATOM     18  C   UNL     1      10.630  12.970  20.115  0.00  0.00    +0.000 C 
ATOM     19  C   UNL     1      10.280  11.779  21.007  0.00  0.00    +0.000 C 
ATOM     20  C   UNL     1       9.218  10.900  20.366  0.00  0.00    +0.000 C 
ATOM     21  C   UNL     1       9.640  10.503  18.950  0.00  0.00    +0.000 C 
ATOM     22  C   UNL     1      10.074  11.731  18.125  0.00  0.00    +0.000 C 
BRANCH  17  24
ATOM     23  C   UNL     1      11.485  13.367  16.453  0.00  0.00    +0.000 C 
ATOM     24  C   UNL     1      11.547  13.691  17.956  0.00  0.00    +0.000 C 
ATOM     25  C   UNL     1      10.673  14.939  18.177  0.00  0.00    +0.000 C 
ENDBRANCH  17  24
ENDBRANCH  16  21
ENDBRANCH   1  16
TORSDOF 4
ENDMDL
MODEL 4
REMARK VINA RESULT:      -7.4      6.549     10.164
REMARK  Name = 
REMARK  6 active torsions:
REMARK  status: ('A' for Active; 'I' for Inactive)
REMARK    1  A    between atoms: C_1  and  C_2
REMARK    2  A    between atoms: C_2  and  C_3
REMARK    3  A    between atoms: C_2  and  N_4
REMARK    4  A    between atoms: C_8  and  C_9
REMARK    5  A    between atoms: C_9  and  N_10
REMARK    6  A    between atoms: N_13  and  C_14
REMARK                            x       y       z     vdW  Elec       q    Type
REMARK                         _______ _______ _______ _____ _____    ______ ____
ROOT
ATOM      1  N   UNL     1       8.062   9.270  17.834  0.00  0.00    +0.000 N 
ATOM      2  C   UNL     1       7.868   7.920  17.939  0.00  0.00    +0.000 C 
ATOM      3  O   UNL     1       8.416   7.225  18.782  0.00  0.00    +0.000 OA
ATOM      4  N   UNL     1       7.000   7.430  17.008  0.00  0.00    +0.000 N 
ATOM      5  H   UNL     1       7.639   9.771  17.067  0.00  0.00    +0.000 HD
ATOM      6  H   UNL     1       6.598   8.038  16.311  0.00  0.00    +0.000 HD
ENDROOT
BRANCH   4   7
ATOM      7  C   UNL     1       6.705   6.015  16.962  0.00  0.00    +0.000 C 
ATOM      8  C   UNL     1       6.986   5.405  15.563  0.00  0.00    +0.000 C 
ATOM      9  C   UNL     1       6.479   3.947  15.473  0.00  0.00    +0.000 C 
ATOM     10  C   UNL     1       4.956   3.828  15.699  0.00  0.00    +0.000 C 
ATOM     11  C   UNL     1       4.543   4.772  16.762  0.00  0.00    +0.000 A 
ATOM     12  O   UNL     1       3.294   4.714  17.278  0.00  0.00    +0.000 OA
ATOM     13  C   UNL     1       3.232   5.695  18.220  0.00  0.00    +0.000 A 
ATOM     14  C   UNL     1       4.426   6.379  18.297  0.00  0.00    +0.000 A 
ATOM     15  C   UNL     1       5.280   5.784  17.337  0.00  0.00    +0.000 A 
ENDBRANCH   4   7
BRANCH   1  16
ATOM     16  C   UNL     1       8.957   9.983  18.729  0.00  0.00    +0.000 C 
BRANCH  16  21
ATOM     17  N   UNL     1       9.510  13.824  18.963  0.00  0.00    +0.000 NA
ATOM     18  C   UNL     1      10.895  13.837  18.453  0.00  0.00    +0.000 C 
ATOM     19  C   UNL     1      11.065  12.891  17.264  0.00  0.00    +0.000 C 
ATOM     20  C   UNL     1      10.707  11.461  17.637  0.00  0.00    +0.000 C 
ATOM     21  C   UNL     1       9.314  11.409  18.269  0.00  0.00    +0.000 C 
ATOM     22  C   UNL     1       9.167  12.448  19.398  0.00  0.00    +0.000 C 
BRANCH  17  24
ATOM     23  C   UNL     1      10.189  14.469  21.294  0.00  0.00    +0.000 C 
ATOM     24  C   UNL     1       9.323  14.808  20.067  0.00  0.00    +0.000 C 
ATOM     25  C   UNL     1       9.682  16.247  19.655  0.00  0.00    +0.000 C 
ENDBRANCH  17  24
ENDBRANCH  16  21
ENDBRANCH   1  16
TORSDOF 4
ENDMDL
MODEL 5
REMARK VINA RESULT:      -7.1      0.937      1.056
REMARK  Name = 
REMARK  6 active torsions:
REMARK  status: ('A' for Active; 'I' for Inactive)
REMARK    1  A    between atoms: C_1  and  C_2
REMARK    2  A    between atoms: C_2  and  C_3
REMARK    3  A    between atoms: C_2  and  N_4
REMARK    4  A    between atoms: C_8  and  C_9
REMARK    5  A    between atoms: C_9  and  N_10
REMARK    6  A    between atoms: N_13  and  C_14
REMARK                            x       y       z     vdW  Elec       q    Type
REMARK                         _______ _______ _______ _____ _____    ______ ____
ROOT
ATOM      1  N   UNL     1       1.888   7.968  17.920  0.00  0.00    +0.000 N 
ATOM      2  C   UNL     1       1.501   9.275  18.036  0.00  0.00    +0.000 C 
ATOM      3  O   UNL     1       2.267  10.217  17.907  0.00  0.00    +0.000 OA
ATOM      4  N   UNL     1       0.173   9.417  18.310  0.00  0.00    +0.000 N 
ATOM      5  H   UNL     1       1.221   7.236  18.115  0.00  0.00    +0.000 HD
ATOM      6  H   UNL     1      -0.414   8.607  18.441  0.00  0.00    +0.000 HD
ENDROOT
BRANCH   4   7
ATOM      7  C   UNL     1      -0.396  10.734  18.492  0.00  0.00    +0.000 C 
ATOM      8  C   UNL     1      -0.521  11.114  19.992  0.00  0.00    +0.000 C 
ATOM      9  C   UNL     1      -1.310  12.431  20.174  0.00  0.00    +0.000 C 
ATOM     10  C   UNL     1      -2.752  12.345  19.628  0.00  0.00    +0.000 C 
ATOM     11  C   UNL     1      -2.755  11.559  18.373  0.00  0.00    +0.000 A 
ATOM     12  O   UNL     1      -3.864  11.511  17.601  0.00  0.00    +0.000 OA
ATOM     13  C   UNL     1      -3.546  10.723  16.538  0.00  0.00    +0.000 A 
ATOM     14  C   UNL     1      -2.251  10.263  16.636  0.00  0.00    +0.000 A 
ATOM     15  C   UNL     1      -1.735  10.800  17.841  0.00  0.00    +0.000 A 
ENDBRANCH   4   7
BRANCH   1  16
ATOM     16  C   UNL     1       3.266   7.603  17.637  0.00  0.00    +0.000 C 
BRANCH  16  21
ATOM     17  N   UNL     1       3.330   4.374  19.802  0.00  0.00    +0.000 NA
ATOM     18  C   UNL     1       4.486   3.738  19.139  0.00  0.00    +0.000 C 
ATOM     19  C   UNL     1       5.595   4.750  18.852  0.00  0.00    +0.000 C 
ATOM     20  C   UNL     1       5.099   5.880  17.964  0.00  0.00    +0.000 C 
ATOM     21  C   UNL     1       3.835   6.507  18.557  0.00  0.00    +0.000 C 
ATOM     22  C   UNL     1       2.788   5.434  18.916  0.00  0.00    +0.000 C 
BRANCH  17  24
ATOM     23  C   UNL     1       2.506   2.778  21.559  0.00  0.00    +0.000 C 
ATOM     24  C   UNL     1       2.283   3.374  20.157  0.00  0.00    +0.000 C 
ATOM     25  C   UNL     1       0.862   3.965  20.148  0.00  0.00    +0.000 C 
ENDBRANCH  17  24
ENDBRANCH  16  21
ENDBRANCH   1  16
TORSDOF 4
ENDMDL
MODEL 6
REMARK VINA RESULT:      -7.1      1.253      2.762
REMARK  Name = 
REMARK  6 active torsions:
REMARK  status: ('A' for Active; 'I' for Inactive)
REMARK    1  A    between atoms: C_1  and  C_2
REMARK    2  A    between atoms: C_2  and  C_3
REMARK    3  A    between atoms: C_2  and  N_4
REMARK    4  A    between atoms: C_8  and  C_9
REMARK    5  A    between atoms: C_9  and  N_10
REMARK    6  A    between atoms: N_13  and  C_14
REMARK                            x       y       z     vdW  Elec       q    Type
REMARK                         _______ _______ _______ _____ _____    ______ ____
ROOT
ATOM      1  N   UNL     1       2.149   8.070  18.440  0.00  0.00    +0.000 N 
ATOM      2  C   UNL     1       1.693   9.345  18.245  0.00  0.00    +0.000 C 
ATOM      3  O   UNL     1       2.299  10.184  17.596  0.00  0.00    +0.000 OA
ATOM      4  N   UNL     1       0.495   9.583  18.851  0.00  0.00    +0.000 N 
ATOM      5  H   UNL     1       1.638   7.451  19.052  0.00  0.00    +0.000 HD
ATOM      6  H   UNL     1       0.049   8.869  19.405  0.00  0.00    +0.000 HD
ENDROOT
BRANCH   4   7
ATOM      7  C   UNL     1      -0.115  10.892  18.767  0.00  0.00    +0.000 C 
ATOM      8  C   UNL     1      -0.060  11.649  20.121  0.00  0.00    +0.000 C 
ATOM      9  C   UNL     1      -0.889  12.954  20.069  0.00  0.00    +0.000 C 
ATOM     10  C   UNL     1      -2.383  12.702  19.774  0.00  0.00    +0.000 C 
ATOM     11  C   UNL     1      -2.510  11.615  18.778  0.00  0.00    +0.000 A 
ATOM     12  O   UNL     1      -3.708  11.346  18.210  0.00  0.00    +0.000 OA
ATOM     13  C   UNL     1      -3.492  10.312  17.351  0.00  0.00    +0.000 A 
ATOM     14  C   UNL     1      -2.172   9.918  17.379  0.00  0.00    +0.000 A 
ATOM     15  C   UNL     1      -1.531  10.760  18.319  0.00  0.00    +0.000 A 
ENDBRANCH   4   7
BRANCH   1  16
ATOM     16  C   UNL     1       3.413   7.619  17.884  0.00  0.00    +0.000 C 
BRANCH  16  21
ATOM     17  N   UNL     1       4.747   4.331  16.293  0.00  0.00    +0.000 NA
ATOM     18  C   UNL     1       4.182   3.406  17.295  0.00  0.00    +0.000 C 
ATOM     19  C   UNL     1       2.757   3.801  17.684  0.00  0.00    +0.000 C 
ATOM     20  C   UNL     1       2.708   5.210  18.255  0.00  0.00    +0.000 C 
ATOM     21  C   UNL     1       3.378   6.196  17.296  0.00  0.00    +0.000 C 
ATOM     22  C   UNL     1       4.772   5.702  16.860  0.00  0.00    +0.000 C 
BRANCH  17  24
ATOM     23  C   UNL     1       6.362   4.232  14.371  0.00  0.00    +0.000 C 
ATOM     24  C   UNL     1       6.104   3.899  15.851  0.00  0.00    +0.000 C 
ATOM     25  C   UNL     1       7.235   4.562  16.659  0.00  0.00    +0.000 C 
ENDBRANCH  17  24
ENDBRANCH  16  21
ENDBRANCH   1  16
TORSDOF 4
ENDMDL
MODEL 7
REMARK VINA RESULT:      -7.1      2.169      8.182
REMARK  Name = 
REMARK  6 active torsions:
REMARK  status: ('A' for Active; 'I' for Inactive)
REMARK    1  A    between atoms: C_1  and  C_2
REMARK    2  A    between atoms: C_2  and  C_3
REMARK    3  A    between atoms: C_2  and  N_4
REMARK    4  A    between atoms: C_8  and  C_9
REMARK    5  A    between atoms: C_9  and  N_10
REMARK    6  A    between atoms: N_13  and  C_14
REMARK                            x       y       z     vdW  Elec       q    Type
REMARK                         _______ _______ _______ _____ _____    ______ ____
ROOT
ATOM      1  N   UNL     1       1.308   9.023  18.591  0.00  0.00    +0.000 N 
ATOM      2  C   UNL     1       2.170   7.997  18.868  0.00  0.00    +0.000 C 
ATOM      3  O   UNL     1       2.319   7.527  19.986  0.00  0.00    +0.000 OA
ATOM      4  N   UNL     1       2.844   7.554  17.769  0.00  0.00    +0.000 N 
ATOM      5  H   UNL     1       1.291   9.416  17.662  0.00  0.00    +0.000 HD
ATOM      6  H   UNL     1       2.712   7.996  16.873  0.00  0.00    +0.000 HD
ENDROOT
BRANCH   4   7
ATOM      7  C   UNL     1       3.817   6.490  17.892  0.00  0.00    +0.000 C 
ATOM      8  C   UNL     1       4.961   6.624  16.852  0.00  0.00    +0.000 C 
ATOM      9  C   UNL     1       5.878   5.378  16.864  0.00  0.00    +0.000 C 
ATOM     10  C   UNL     1       5.125   4.077  16.513  0.00  0.00    +0.000 C 
ATOM     11  C   UNL     1       3.781   4.106  17.134  0.00  0.00    +0.000 A 
ATOM     12  O   UNL     1       3.006   2.998  17.138  0.00  0.00    +0.000 OA
ATOM     13  C   UNL     1       1.855   3.347  17.775  0.00  0.00    +0.000 A 
ATOM     14  C   UNL     1       1.890   4.669  18.163  0.00  0.00    +0.000 A 
ATOM     15  C   UNL     1       3.143   5.170  17.736  0.00  0.00    +0.000 A 
ENDBRANCH   4   7
BRANCH   1  16
ATOM     16  C   UNL     1       0.502   9.642  19.629  0.00  0.00    +0.000 C 
BRANCH  16  21
ATOM     17  N   UNL     1      -2.165  11.505  17.500  0.00  0.00    +0.000 NA
ATOM     18  C   UNL     1      -2.977  12.004  18.627  0.00  0.00    +0.000 C 
ATOM     19  C   UNL     1      -2.099  12.516  19.768  0.00  0.00    +0.000 C 
ATOM     20  C   UNL     1      -1.176  11.427  20.291  0.00  0.00    +0.000 C 
ATOM     21  C   UNL     1      -0.384  10.803  19.140  0.00  0.00    +0.000 C 
ATOM     22  C   UNL     1      -1.308  10.391  17.976  0.00  0.00    +0.000 C 
BRANCH  17  24
ATOM     23  C   UNL     1      -2.739   9.629  15.929  0.00  0.00    +0.000 C 
ATOM     24  C   UNL     1      -3.020  11.082  16.353  0.00  0.00    +0.000 C 
ATOM     25  C   UNL     1      -4.525  11.171  16.664  0.00  0.00    +0.000 C 
ENDBRANCH  17  24
ENDBRANCH  16  21
ENDBRANCH   1  16
TORSDOF 4
ENDMDL
MODEL 8
REMARK VINA RESULT:      -7.0      2.744      4.622
REMARK  Name = 
REMARK  6 active torsions:
REMARK  status: ('A' for Active; 'I' for Inactive)
REMARK    1  A    between atoms: C_1  and  C_2
REMARK    2  A    between atoms: C_2  and  C_3
REMARK    3  A    between atoms: C_2  and  N_4
REMARK    4  A    between atoms: C_8  and  C_9
REMARK    5  A    between atoms: C_9  and  N_10
REMARK    6  A    between atoms: N_13  and  C_14
REMARK                            x       y       z     vdW  Elec       q    Type
REMARK                         _______ _______ _______ _____ _____    ______ ____
ROOT
ATOM      1  N   UNL     1       3.688   5.391  19.985  0.00  0.00    +0.000 N 
ATOM      2  C   UNL     1       2.708   6.145  19.399  0.00  0.00    +0.000 C 
ATOM      3  O   UNL     1       2.189   5.860  18.331  0.00  0.00    +0.000 OA
ATOM      4  N   UNL     1       2.372   7.246  20.130  0.00  0.00    +0.000 N 
ATOM      5  H   UNL     1       4.129   5.724  20.829  0.00  0.00    +0.000 HD
ATOM      6  H   UNL     1       2.853   7.457  20.990  0.00  0.00    +0.000 HD
ENDROOT
BRANCH   4   7
ATOM      7  C   UNL     1       1.370   8.166  19.639  0.00  0.00    +0.000 C 
ATOM      8  C   UNL     1       1.919   9.079  18.510  0.00  0.00    +0.000 C 
ATOM      9  C   UNL     1       0.904  10.185  18.139  0.00  0.00    +0.000 C 
ATOM     10  C   UNL     1       0.573  11.116  19.324  0.00  0.00    +0.000 C 
ATOM     11  C   UNL     1       0.489  10.316  20.568  0.00  0.00    +0.000 A 
ATOM     12  O   UNL     1       0.016  10.871  21.706  0.00  0.00    +0.000 OA
ATOM     13  C   UNL     1       0.063   9.891  22.649  0.00  0.00    +0.000 A 
ATOM     14  C   UNL     1       0.572   8.724  22.120  0.00  0.00    +0.000 A 
ATOM     15  C   UNL     1       0.861   9.003  20.763  0.00  0.00    +0.000 A 
ENDBRANCH   4   7
BRANCH   1  16
ATOM     16  C   UNL     1       4.194   4.180  19.361  0.00  0.00    +0.000 C 
BRANCH  16  21
ATOM     17  N   UNL     1       6.483   4.842  16.288  0.00  0.00    +0.000 NA
ATOM     18  C   UNL     1       7.255   5.954  16.877  0.00  0.00    +0.000 C 
ATOM     19  C   UNL     1       7.624   5.673  18.334  0.00  0.00    +0.000 C 
ATOM     20  C   UNL     1       6.385   5.449  19.186  0.00  0.00    +0.000 C 
ATOM     21  C   UNL     1       5.496   4.373  18.560  0.00  0.00    +0.000 C 
ATOM     22  C   UNL     1       5.234   4.655  17.067  0.00  0.00    +0.000 C 
BRANCH  17  24
ATOM     23  C   UNL     1       7.480   5.115  13.998  0.00  0.00    +0.000 C 
ATOM     24  C   UNL     1       6.195   5.078  14.845  0.00  0.00    +0.000 C 
ATOM     25  C   UNL     1       5.290   3.995  14.230  0.00  0.00    +0.000 C 
ENDBRANCH  17  24
ENDBRANCH  16  21
ENDBRANCH   1  16
TORSDOF 4
ENDMDL
MODEL 9
REMARK VINA RESULT:      -7.0      2.772      7.872
REMARK  Name = 
REMARK  6 active torsions:
REMARK  status: ('A' for Active; 'I' for Inactive)
REMARK    1  A    between atoms: C_1  and  C_2
REMARK    2  A    between atoms: C_2  and  C_3
REMARK    3  A    between atoms: C_2  and  N_4
REMARK    4  A    between atoms: C_8  and  C_9
REMARK    5  A    between atoms: C_9  and  N_10
REMARK    6  A    between atoms: N_13  and  C_14
REMARK                            x       y       z     vdW  Elec       q    Type
REMARK                         _______ _______ _______ _____ _____    ______ ____
ROOT
ATOM      1  N   UNL     1       1.675   8.184  17.860  0.00  0.00    +0.000 N 
ATOM      2  C   UNL     1       2.626   7.231  18.108  0.00  0.00    +0.000 C 
ATOM      3  O   UNL     1       3.815   7.483  18.228  0.00  0.00    +0.000 OA
ATOM      4  N   UNL     1       2.110   5.973  18.205  0.00  0.00    +0.000 N 
ATOM      5  H   UNL     1       0.722   7.899  17.694  0.00  0.00    +0.000 HD
ATOM      6  H   UNL     1       1.124   5.811  18.064  0.00  0.00    +0.000 HD
ENDROOT
BRANCH   4   7
ATOM      7  C   UNL     1       2.982   4.844  18.437  0.00  0.00    +0.000 C 
ATOM      8  C   UNL     1       3.020   3.876  17.224  0.00  0.00    +0.000 C 
ATOM      9  C   UNL     1       3.794   2.581  17.562  0.00  0.00    +0.000 C 
ATOM     10  C   UNL     1       3.159   1.791  18.726  0.00  0.00    +0.000 C 
ATOM     11  C   UNL     1       2.668   2.739  19.752  0.00  0.00    +0.000 A 
ATOM     12  O   UNL     1       2.251   2.287  20.956  0.00  0.00    +0.000 OA
ATOM     13  C   UNL     1       1.872   3.388  21.660  0.00  0.00    +0.000 A 
ATOM     14  C   UNL     1       2.034   4.532  20.908  0.00  0.00    +0.000 A 
ATOM     15  C   UNL     1       2.544   4.109  19.657  0.00  0.00    +0.000 A 
ENDBRANCH   4   7
BRANCH   1  16
ATOM     16  C   UNL     1       2.023   9.587  17.714  0.00  0.00    +0.000 C 
BRANCH  16  21
ATOM     17  N   UNL     1       0.149  10.955  20.833  0.00  0.00    +0.000 NA
ATOM     18  C   UNL     1       0.795  12.282  20.862  0.00  0.00    +0.000 C 
ATOM     19  C   UNL     1       0.928  12.873  19.459  0.00  0.00    +0.000 C 
ATOM     20  C   UNL     1       1.742  11.966  18.549  0.00  0.00    +0.000 C 
ATOM     21  C   UNL     1       1.171  10.547  18.566  0.00  0.00    +0.000 C 
ATOM     22  C   UNL     1       0.968  10.036  20.006  0.00  0.00    +0.000 C 
BRANCH  17  24
ATOM     23  C   UNL     1      -1.206  11.128  22.942  0.00  0.00    +0.000 C 
ATOM     24  C   UNL     1      -0.057  10.415  22.207  0.00  0.00    +0.000 C 
ATOM     25  C   UNL     1      -0.389   8.912  22.216  0.00  0.00    +0.000 C 
ENDBRANCH  17  24
ENDBRANCH  16  21
ENDBRANCH   1  16
TORSDOF 4
ENDMDL
