MODEL 1
REMARK VINA RESULT:      -7.9      0.000      0.000
REMARK  Name = 
REMARK  10 active torsions:
REMARK  status: ('A' for Active; 'I' for Inactive)
REMARK    1  A    between atoms: C_7  and  O_8
REMARK    2  A    between atoms: C_13  and  O_14
REMARK    3  A    between atoms: O_14  and  C_15
REMARK    4  A    between atoms: C_17  and  C_18
REMARK    5  A    between atoms: C_18  and  O_19
REMARK    6  A    between atoms: C_20  and  O_21
REMARK    7  A    between atoms: C_22  and  O_23
REMARK    8  A    between atoms: C_24  and  O_25
REMARK    9  A    between atoms: C_27  and  C_28
REMARK   10  A    between atoms: C_28  and  O_29
REMARK                            x       y       z     vdW  Elec       q    Type
REMARK                         _______ _______ _______ _____ _____    ______ ____
ROOT
ATOM      1  O   UNL     1       1.443  11.480  18.491  0.00  0.00    +0.000 OA
ATOM      2  C   UNL     1       1.191  10.626  19.333  0.00  0.00    +0.000 C 
ATOM      3  C   UNL     1       0.393  10.974  20.523  0.00  0.00    +0.000 A 
ATOM      4  C   UNL     1      -0.010  12.297  20.737  0.00  0.00    +0.000 A 
ATOM      5  C   UNL     1      -0.766  12.623  21.864  0.00  0.00    +0.000 A 
ATOM      6  C   UNL     1      -1.073  11.642  22.806  0.00  0.00    +0.000 A 
ATOM      7  C   UNL     1      -0.646  10.329  22.606  0.00  0.00    +0.000 A 
ATOM      8  C   UNL     1       0.044   9.982  21.437  0.00  0.00    +0.000 A 
ATOM      9  C   UNL     1       0.322   8.574  21.091  0.00  0.00    +0.000 C 
ATOM     10  O   UNL     1      -0.438   7.690  21.464  0.00  0.00    +0.000 OA
ATOM     11  C   UNL     1       1.403   8.262  20.137  0.00  0.00    +0.000 A 
ATOM     12  C   UNL     1       1.975   6.987  20.029  0.00  0.00    +0.000 A 
ATOM     13  C   UNL     1       2.738   6.686  18.885  0.00  0.00    +0.000 A 
ATOM     14  C   UNL     1       2.992   7.645  17.888  0.00  0.00    +0.000 A 
ATOM     15  C   UNL     1       2.504   8.943  18.075  0.00  0.00    +0.000 A 
ATOM     16  C   UNL     1       1.719   9.250  19.195  0.00  0.00    +0.000 A 
ENDROOT
BRANCH   7  17
ATOM     17  O   UNL     1      -0.860   9.399  23.585  0.00  0.00    +0.000 OA
ATOM     18  H   UNL     1      -1.637   9.651  24.111  0.00  0.00    +0.000 HD
ENDBRANCH   7  17
BRANCH  12  19
ATOM     19  O   UNL     1       1.824   5.928  20.889  0.00  0.00    +0.000 OA
BRANCH  19  20
ATOM     20  C   UNL     1       2.525   4.693  20.613  0.00  0.00    +0.000 C 
ATOM     21  O   UNL     1       3.730   4.930  19.877  0.00  0.00    +0.000 OA
ATOM     22  C   UNL     1       4.415   3.736  19.470  0.00  0.00    +0.000 C 
ATOM     23  C   UNL     1       3.528   2.922  18.523  0.00  0.00    +0.000 C 
ATOM     24  C   UNL     1       2.261   2.520  19.291  0.00  0.00    +0.000 C 
ATOM     25  C   UNL     1       1.541   3.762  19.846  0.00  0.00    +0.000 C 
BRANCH  23  26
ATOM     26  O   UNL     1       4.228   1.779  18.030  0.00  0.00    +0.000 OA
ATOM     27  H   UNL     1       5.143   2.030  17.814  0.00  0.00    +0.000 HD
ENDBRANCH  23  26
BRANCH  24  28
ATOM     28  O   UNL     1       1.401   1.739  18.452  0.00  0.00    +0.000 OA
ATOM     29  H   UNL     1       1.161   2.273  17.674  0.00  0.00    +0.000 HD
ENDBRANCH  24  28
BRANCH  25  30
ATOM     30  O   UNL     1       0.449   3.348  20.686  0.00  0.00    +0.000 OA
ATOM     31  H   UNL     1      -0.284   3.042  20.124  0.00  0.00    +0.000 HD
ENDBRANCH  25  30
BRANCH  22  32
ATOM     32  C   UNL     1       5.719   4.181  18.799  0.00  0.00    +0.000 C 
BRANCH  32  33
ATOM     33  O   UNL     1       5.622   4.030  17.383  0.00  0.00    +0.000 OA
ATOM     34  H   UNL     1       5.318   3.112  17.242  0.00  0.00    +0.000 HD
ENDBRANCH  32  33
ENDBRANCH  22  32
ENDBRANCH  19  20
ENDBRANCH  12  19
BRANCH  14  35
ATOM     35  C   UNL     1       3.654   7.285  16.580  0.00  0.00    +0.000 C 
BRANCH  35  36
ATOM     36  O   UNL     1       4.986   6.836  16.763  0.00  0.00    +0.000 OA
ATOM     37  H   UNL     1       5.133   6.122  16.122  0.00  0.00    +0.000 HD
ENDBRANCH  35  36
ENDBRANCH  14  35
TORSDOF 10
ENDMDL
MODEL 2
REMARK VINA RESULT:      -7.9      3.733      9.814
REMARK  Name = 
REMARK  10 active torsions:
REMARK  status: ('A' for Active; 'I' for Inactive)
REMARK    1  A    between atoms: C_7  and  O_8
REMARK    2  A    between atoms: C_13  and  O_14
REMARK    3  A    between atoms: O_14  and  C_15
REMARK    4  A    between atoms: C_17  and  C_18
REMARK    5  A    between atoms: C_18  and  O_19
REMARK    6  A    between atoms: C_20  and  O_21
REMARK    7  A    between atoms: C_22  and  O_23
REMARK    8  A    between atoms: C_24  and  O_25
REMARK    9  A    between atoms: C_27  and  C_28
REMARK   10  A    between atoms: C_28  and  O_29
REMARK                            x       y       z     vdW  Elec       q    Type
REMARK                         _______ _______ _______ _____ _____    ______ ____
ROOT
ATOM      1  O   UNL     1      -0.162   8.838  22.913  0.00  0.00    +0.000 OA
ATOM      2  C   UNL     1      -0.046   9.492  21.883  0.00  0.00    +0.000 C 
ATOM      3  C   UNL     1       0.747   8.963  20.758  0.00  0.00    +0.000 A 
ATOM      4  C   UNL     1       1.435   7.752  20.890  0.00  0.00    +0.000 A 
ATOM      5  C   UNL     1       2.183   7.254  19.823  0.00  0.00    +0.000 A 
ATOM      6  C   UNL     1       2.292   7.990  18.643  0.00  0.00    +0.000 A 
ATOM      7  C   UNL     1       1.628   9.211  18.523  0.00  0.00    +0.000 A 
ATOM      8  C   UNL     1       0.812   9.676  19.562  0.00  0.00    +0.000 A 
ATOM      9  C   UNL     1      -0.070  10.848  19.390  0.00  0.00    +0.000 C 
ATOM     10  O   UNL     1      -0.523  11.116  18.285  0.00  0.00    +0.000 OA
ATOM     11  C   UNL     1      -0.554  11.571  20.581  0.00  0.00    +0.000 A 
ATOM     12  C   UNL     1      -1.072  12.872  20.519  0.00  0.00    +0.000 A 
ATOM     13  C   UNL     1      -1.817  13.352  21.612  0.00  0.00    +0.000 A 
ATOM     14  C   UNL     1      -2.000  12.590  22.780  0.00  0.00    +0.000 A 
ATOM     15  C   UNL     1      -1.378  11.339  22.860  0.00  0.00    +0.000 A 
ATOM     16  C   UNL     1      -0.656  10.836  21.769  0.00  0.00    +0.000 A 
ENDROOT
BRANCH   7  17
ATOM     17  O   UNL     1       1.826   9.973  17.405  0.00  0.00    +0.000 OA
ATOM     18  H   UNL     1       0.973  10.302  17.078  0.00  0.00    +0.000 HD
ENDBRANCH   7  17
BRANCH  12  19
ATOM     19  O   UNL     1      -1.007  13.749  19.464  0.00  0.00    +0.000 OA
BRANCH  19  20
ATOM     20  C   UNL     1      -0.248  14.970  19.612  0.00  0.00    +0.000 C 
ATOM     21  O   UNL     1      -0.994  16.108  19.167  0.00  0.00    +0.000 OA
ATOM     22  C   UNL     1      -0.255  17.338  19.179  0.00  0.00    +0.000 C 
ATOM     23  C   UNL     1       0.932  17.243  18.216  0.00  0.00    +0.000 C 
ATOM     24  C   UNL     1       1.852  16.117  18.709  0.00  0.00    +0.000 C 
ATOM     25  C   UNL     1       1.080  14.790  18.819  0.00  0.00    +0.000 C 
BRANCH  23  26
ATOM     26  O   UNL     1       1.624  18.491  18.140  0.00  0.00    +0.000 OA
ATOM     27  H   UNL     1       2.521  18.384  18.501  0.00  0.00    +0.000 HD
ENDBRANCH  23  26
BRANCH  24  28
ATOM     28  O   UNL     1       2.992  15.997  17.849  0.00  0.00    +0.000 OA
ATOM     29  H   UNL     1       2.728  16.259  16.949  0.00  0.00    +0.000 HD
ENDBRANCH  24  28
BRANCH  25  30
ATOM     30  O   UNL     1       1.922  13.795  19.426  0.00  0.00    +0.000 OA
ATOM     31  H   UNL     1       2.792  14.189  19.615  0.00  0.00    +0.000 HD
ENDBRANCH  25  30
BRANCH  22  32
ATOM     32  C   UNL     1      -1.236  18.446  18.779  0.00  0.00    +0.000 C 
BRANCH  32  33
ATOM     33  O   UNL     1      -1.229  18.622  17.362  0.00  0.00    +0.000 OA
ATOM     34  H   UNL     1      -0.917  17.771  16.998  0.00  0.00    +0.000 HD
ENDBRANCH  32  33
ENDBRANCH  22  32
ENDBRANCH  19  20
ENDBRANCH  12  19
BRANCH  14  35
ATOM     35  C   UNL     1      -2.941  13.019  23.880  0.00  0.00    +0.000 C 
BRANCH  35  36
ATOM     36  O   UNL     1      -4.142  12.266  23.875  0.00  0.00    +0.000 OA
ATOM     37  H   UNL     1      -4.659  12.557  24.645  0.00  0.00    +0.000 HD
ENDBRANCH  35  36
ENDBRANCH  14  35
TORSDOF 10
ENDMDL
MODEL 3
REMARK VINA RESULT:      -7.9      3.752      9.366
REMARK  Name = 
REMARK  10 active torsions:
REMARK  status: ('A' for Active; 'I' for Inactive)
REMARK    1  A    between atoms: C_7  and  O_8
REMARK    2  A    between atoms: C_13  and  O_14
REMARK    3  A    between atoms: O_14  and  C_15
REMARK    4  A    between atoms: C_17  and  C_18
REMARK    5  A    between atoms: C_18  and  O_19
REMARK    6  A    between atoms: C_20  and  O_21
REMARK    7  A    between atoms: C_22  and  O_23
REMARK    8  A    between atoms: C_24  and  O_25
REMARK    9  A    between atoms: C_27  and  C_28
REMARK   10  A    between atoms: C_28  and  O_29
REMARK                            x       y       z     vdW  Elec       q    Type
REMARK                         _______ _______ _______ _____ _____    ______ ____
ROOT
ATOM      1  O   UNL     1      -0.205   8.829  22.881  0.00  0.00    +0.000 OA
ATOM      2  C   UNL     1      -0.081   9.495  21.860  0.00  0.00    +0.000 C 
ATOM      3  C   UNL     1       0.724   8.981  20.736  0.00  0.00    +0.000 A 
ATOM      4  C   UNL     1       1.414   7.770  20.861  0.00  0.00    +0.000 A 
ATOM      5  C   UNL     1       2.174   7.286  19.796  0.00  0.00    +0.000 A 
ATOM      6  C   UNL     1       2.292   8.035  18.625  0.00  0.00    +0.000 A 
ATOM      7  C   UNL     1       1.626   9.256  18.513  0.00  0.00    +0.000 A 
ATOM      8  C   UNL     1       0.799   9.707  19.549  0.00  0.00    +0.000 A 
ATOM      9  C   UNL     1      -0.084  10.879  19.382  0.00  0.00    +0.000 C 
ATOM     10  O   UNL     1      -0.527  11.159  18.276  0.00  0.00    +0.000 OA
ATOM     11  C   UNL     1      -0.581  11.587  20.576  0.00  0.00    +0.000 A 
ATOM     12  C   UNL     1      -1.102  12.888  20.524  0.00  0.00    +0.000 A 
ATOM     13  C   UNL     1      -1.859  13.354  21.615  0.00  0.00    +0.000 A 
ATOM     14  C   UNL     1      -2.051  12.578  22.772  0.00  0.00    +0.000 A 
ATOM     15  C   UNL     1      -1.426  11.328  22.844  0.00  0.00    +0.000 A 
ATOM     16  C   UNL     1      -0.692  10.839  21.755  0.00  0.00    +0.000 A 
ENDROOT
BRANCH   7  17
ATOM     17  O   UNL     1       1.833  10.031  17.406  0.00  0.00    +0.000 OA
ATOM     18  H   UNL     1       1.185  10.754  17.387  0.00  0.00    +0.000 HD
ENDBRANCH   7  17
BRANCH  12  19
ATOM     19  O   UNL     1      -1.030  13.776  19.479  0.00  0.00    +0.000 OA
BRANCH  19  20
ATOM     20  C   UNL     1       0.169  14.569  19.314  0.00  0.00    +0.000 C 
ATOM     21  O   UNL     1       1.208  14.135  20.197  0.00  0.00    +0.000 OA
ATOM     22  C   UNL     1       2.387  14.954  20.166  0.00  0.00    +0.000 C 
ATOM     23  C   UNL     1       2.047  16.376  20.625  0.00  0.00    +0.000 C 
ATOM     24  C   UNL     1       1.022  16.957  19.641  0.00  0.00    +0.000 C 
ATOM     25  C   UNL     1      -0.223  16.057  19.552  0.00  0.00    +0.000 C 
BRANCH  23  26
ATOM     26  O   UNL     1       3.225  17.181  20.693  0.00  0.00    +0.000 OA
ATOM     27  H   UNL     1       3.881  16.846  20.058  0.00  0.00    +0.000 HD
ENDBRANCH  23  26
BRANCH  24  28
ATOM     28  O   UNL     1       0.681  18.298  20.016  0.00  0.00    +0.000 OA
ATOM     29  H   UNL     1       1.325  18.606  20.678  0.00  0.00    +0.000 HD
ENDBRANCH  24  28
BRANCH  25  30
ATOM     30  O   UNL     1      -1.093  16.543  18.515  0.00  0.00    +0.000 OA
ATOM     31  H   UNL     1      -0.565  17.042  17.867  0.00  0.00    +0.000 HD
ENDBRANCH  25  30
BRANCH  22  32
ATOM     32  C   UNL     1       3.416  14.283  21.082  0.00  0.00    +0.000 C 
BRANCH  32  33
ATOM     33  O   UNL     1       3.181  14.651  22.441  0.00  0.00    +0.000 OA
ATOM     34  H   UNL     1       2.624  15.452  22.398  0.00  0.00    +0.000 HD
ENDBRANCH  32  33
ENDBRANCH  22  32
ENDBRANCH  19  20
ENDBRANCH  12  19
BRANCH  14  35
ATOM     35  C   UNL     1      -3.003  12.993  23.867  0.00  0.00    +0.000 C 
BRANCH  35  36
ATOM     36  O   UNL     1      -3.983  12.001  24.123  0.00  0.00    +0.000 OA
ATOM     37  H   UNL     1      -4.350  11.739  23.263  0.00  0.00    +0.000 HD
ENDBRANCH  35  36
ENDBRANCH  14  35
TORSDOF 10
ENDMDL
MODEL 4
REMARK VINA RESULT:      -7.8      3.306      9.196
REMARK  Name = 
REMARK  10 active torsions:
REMARK  status: ('A' for Active; 'I' for Inactive)
REMARK    1  A    between atoms: C_7  and  O_8
REMARK    2  A    between atoms: C_13  and  O_14
REMARK    3  A    between atoms: O_14  and  C_15
REMARK    4  A    between atoms: C_17  and  C_18
REMARK    5  A    between atoms: C_18  and  O_19
REMARK    6  A    between atoms: C_20  and  O_21
REMARK    7  A    between atoms: C_22  and  O_23
REMARK    8  A    between atoms: C_24  and  O_25
REMARK    9  A    between atoms: C_27  and  C_28
REMARK   10  A    between atoms: C_28  and  O_29
REMARK                            x       y       z     vdW  Elec       q    Type
REMARK                         _______ _______ _______ _____ _____    ______ ____
ROOT
ATOM      1  O   UNL     1      -0.249   8.348  22.705  0.00  0.00    +0.000 OA
ATOM      2  C   UNL     1       0.096   9.023  21.742  0.00  0.00    +0.000 C 
ATOM      3  C   UNL     1       0.924   8.424  20.678  0.00  0.00    +0.000 A 
ATOM      4  C   UNL     1       1.386   7.109  20.803  0.00  0.00    +0.000 A 
ATOM      5  C   UNL     1       2.168   6.545  19.795  0.00  0.00    +0.000 A 
ATOM      6  C   UNL     1       2.536   7.309  18.687  0.00  0.00    +0.000 A 
ATOM      7  C   UNL     1       2.098   8.629  18.578  0.00  0.00    +0.000 A 
ATOM      8  C   UNL     1       1.247   9.173  19.549  0.00  0.00    +0.000 A 
ATOM      9  C   UNL     1       0.594  10.484  19.360  0.00  0.00    +0.000 C 
ATOM     10  O   UNL     1       0.328  10.878  18.232  0.00  0.00    +0.000 OA
ATOM     11  C   UNL     1       0.092  11.219  20.536  0.00  0.00    +0.000 A 
ATOM     12  C   UNL     1      -0.198  12.591  20.506  0.00  0.00    +0.000 A 
ATOM     13  C   UNL     1      -0.983  13.135  21.539  0.00  0.00    +0.000 A 
ATOM     14  C   UNL     1      -1.426  12.358  22.625  0.00  0.00    +0.000 A 
ATOM     15  C   UNL     1      -1.028  11.018  22.688  0.00  0.00    +0.000 A 
ATOM     16  C   UNL     1      -0.270  10.455  21.653  0.00  0.00    +0.000 A 
ENDROOT
BRANCH   7  17
ATOM     17  O   UNL     1       2.550   9.401  17.544  0.00  0.00    +0.000 OA
ATOM     18  H   UNL     1       2.175  10.294  17.614  0.00  0.00    +0.000 HD
ENDBRANCH   7  17
BRANCH  12  19
ATOM     19  O   UNL     1       0.135  13.494  19.527  0.00  0.00    +0.000 OA
BRANCH  19  20
ATOM     20  C   UNL     1       1.413  14.166  19.598  0.00  0.00    +0.000 C 
ATOM     21  O   UNL     1       1.282  15.485  20.138  0.00  0.00    +0.000 OA
ATOM     22  C   UNL     1       2.497  16.249  20.129  0.00  0.00    +0.000 C 
ATOM     23  C   UNL     1       2.969  16.459  18.687  0.00  0.00    +0.000 C 
ATOM     24  C   UNL     1       3.256  15.079  18.078  0.00  0.00    +0.000 C 
ATOM     25  C   UNL     1       2.012  14.176  18.161  0.00  0.00    +0.000 C 
BRANCH  23  26
ATOM     26  O   UNL     1       4.124  17.299  18.650  0.00  0.00    +0.000 OA
ATOM     27  H   UNL     1       3.900  18.170  19.020  0.00  0.00    +0.000 HD
ENDBRANCH  23  26
BRANCH  24  28
ATOM     28  O   UNL     1       3.720  15.220  16.729  0.00  0.00    +0.000 OA
ATOM     29  H   UNL     1       3.003  15.606  16.195  0.00  0.00    +0.000 HD
ENDBRANCH  24  28
BRANCH  25  30
ATOM     30  O   UNL     1       2.354  12.848  17.726  0.00  0.00    +0.000 OA
ATOM     31  H   UNL     1       2.149  12.220  18.440  0.00  0.00    +0.000 HD
ENDBRANCH  25  30
BRANCH  22  32
ATOM     32  C   UNL     1       2.190  17.575  20.835  0.00  0.00    +0.000 C 
BRANCH  32  33
ATOM     33  O   UNL     1       2.092  18.631  19.879  0.00  0.00    +0.000 OA
ATOM     34  H   UNL     1       2.025  18.188  19.011  0.00  0.00    +0.000 HD
ENDBRANCH  32  33
ENDBRANCH  22  32
ENDBRANCH  19  20
ENDBRANCH  12  19
BRANCH  14  35
ATOM     35  C   UNL     1      -2.412  12.885  23.639  0.00  0.00    +0.000 C 
BRANCH  35  36
ATOM     36  O   UNL     1      -3.493  11.992  23.844  0.00  0.00    +0.000 OA
ATOM     37  H   UNL     1      -4.268  12.382  23.407  0.00  0.00    +0.000 HD
ENDBRANCH  35  36
ENDBRANCH  14  35
TORSDOF 10
ENDMDL
MODEL 5
REMARK VINA RESULT:      -7.7      3.846      8.998
REMARK  Name = 
REMARK  10 active torsions:
REMARK  status: ('A' for Active; 'I' for Inactive)
REMARK    1  A    between atoms: C_7  and  O_8
REMARK    2  A    between atoms: C_13  and  O_14
REMARK    3  A    between atoms: O_14  and  C_15
REMARK    4  A    between atoms: C_17  and  C_18
REMARK    5  A    between atoms: C_18  and  O_19
REMARK    6  A    between atoms: C_20  and  O_21
REMARK    7  A    between atoms: C_22  and  O_23
REMARK    8  A    between atoms: C_24  and  O_25
REMARK    9  A    between atoms: C_27  and  C_28
REMARK   10  A    between atoms: C_28  and  O_29
REMARK                            x       y       z     vdW  Elec       q    Type
REMARK                         _______ _______ _______ _____ _____    ______ ____
ROOT
ATOM      1  O   UNL     1      -0.149   9.051  23.049  0.00  0.00    +0.000 OA
ATOM      2  C   UNL     1      -0.125   9.648  21.980  0.00  0.00    +0.000 C 
ATOM      3  C   UNL     1       0.650   9.106  20.848  0.00  0.00    +0.000 A 
ATOM      4  C   UNL     1       1.424   7.952  21.014  0.00  0.00    +0.000 A 
ATOM      5  C   UNL     1       2.155   7.441  19.942  0.00  0.00    +0.000 A 
ATOM      6  C   UNL     1       2.159   8.110  18.718  0.00  0.00    +0.000 A 
ATOM      7  C   UNL     1       1.410   9.276  18.562  0.00  0.00    +0.000 A 
ATOM      8  C   UNL     1       0.612   9.748  19.612  0.00  0.00    +0.000 A 
ATOM      9  C   UNL     1      -0.354  10.848  19.418  0.00  0.00    +0.000 C 
ATOM     10  O   UNL     1      -0.873  11.020  18.323  0.00  0.00    +0.000 OA
ATOM     11  C   UNL     1      -0.831  11.608  20.588  0.00  0.00    +0.000 A 
ATOM     12  C   UNL     1      -1.438  12.867  20.479  0.00  0.00    +0.000 A 
ATOM     13  C   UNL     1      -2.164  13.363  21.578  0.00  0.00    +0.000 A 
ATOM     14  C   UNL     1      -2.241  12.661  22.795  0.00  0.00    +0.000 A 
ATOM     15  C   UNL     1      -1.532  11.460  22.914  0.00  0.00    +0.000 A 
ATOM     16  C   UNL     1      -0.828  10.941  21.820  0.00  0.00    +0.000 A 
ENDROOT
BRANCH   7  17
ATOM     17  O   UNL     1       1.505   9.981  17.395  0.00  0.00    +0.000 OA
ATOM     18  H   UNL     1       2.007  10.799  17.545  0.00  0.00    +0.000 HD
ENDBRANCH   7  17
BRANCH  12  19
ATOM     19  O   UNL     1      -1.481  13.681  19.374  0.00  0.00    +0.000 OA
BRANCH  19  20
ATOM     20  C   UNL     1      -0.355  14.545  19.094  0.00  0.00    +0.000 C 
ATOM     21  O   UNL     1       0.836  13.790  18.853  0.00  0.00    +0.000 OA
ATOM     22  C   UNL     1       2.016  14.590  18.682  0.00  0.00    +0.000 C 
ATOM     23  C   UNL     1       2.301  15.377  19.965  0.00  0.00    +0.000 C 
ATOM     24  C   UNL     1       1.110  16.312  20.220  0.00  0.00    +0.000 C 
ATOM     25  C   UNL     1      -0.203  15.514  20.303  0.00  0.00    +0.000 C 
BRANCH  23  26
ATOM     26  O   UNL     1       3.525  16.105  19.850  0.00  0.00    +0.000 OA
ATOM     27  H   UNL     1       3.924  15.928  18.981  0.00  0.00    +0.000 HD
ENDBRANCH  23  26
BRANCH  24  28
ATOM     28  O   UNL     1       1.335  17.088  21.404  0.00  0.00    +0.000 OA
ATOM     29  H   UNL     1       0.472  17.314  21.793  0.00  0.00    +0.000 HD
ENDBRANCH  24  28
BRANCH  25  30
ATOM     30  O   UNL     1      -1.313  16.425  20.388  0.00  0.00    +0.000 OA
ATOM     31  H   UNL     1      -0.974  17.320  20.567  0.00  0.00    +0.000 HD
ENDBRANCH  25  30
BRANCH  22  32
ATOM     32  C   UNL     1       3.155  13.627  18.331  0.00  0.00    +0.000 C 
BRANCH  32  33
ATOM     33  O   UNL     1       2.670  12.570  17.503  0.00  0.00    +0.000 OA
ATOM     34  H   UNL     1       3.468  12.111  17.176  0.00  0.00    +0.000 HD
ENDBRANCH  32  33
ENDBRANCH  22  32
ENDBRANCH  19  20
ENDBRANCH  12  19
BRANCH  14  35
ATOM     35  C   UNL     1      -3.157  13.094  23.913  0.00  0.00    +0.000 C 
BRANCH  35  36
ATOM     36  O   UNL     1      -4.070  12.072  24.278  0.00  0.00    +0.000 OA
ATOM     37  H   UNL     1      -3.541  11.287  24.496  0.00  0.00    +0.000 HD
ENDBRANCH  35  36
ENDBRANCH  14  35
TORSDOF 10
ENDMDL
MODEL 6
REMARK VINA RESULT:      -7.6      2.138      7.990
REMARK  Name = 
REMARK  10 active torsions:
REMARK  status: ('A' for Active; 'I' for Inactive)
REMARK    1  A    between atoms: C_7  and  O_8
REMARK    2  A    between atoms: C_13  and  O_14
REMARK    3  A    between atoms: O_14  and  C_15
REMARK    4  A    between atoms: C_17  and  C_18
REMARK    5  A    between atoms: C_18  and  O_19
REMARK    6  A    between atoms: C_20  and  O_21
REMARK    7  A    between atoms: C_22  and  O_23
REMARK    8  A    between atoms: C_24  and  O_25
REMARK    9  A    between atoms: C_27  and  C_28
REMARK   10  A    between atoms: C_28  and  O_29
REMARK                            x       y       z     vdW  Elec       q    Type
REMARK                         _______ _______ _______ _____ _____    ______ ____
ROOT
ATOM      1  O   UNL     1       3.996   2.036  17.682  0.00  0.00    +0.000 OA
ATOM      2  C   UNL     1       4.012   3.261  17.686  0.00  0.00    +0.000 C 
ATOM      3  C   UNL     1       4.775   3.993  16.659  0.00  0.00    +0.000 A 
ATOM      4  C   UNL     1       5.547   3.294  15.724  0.00  0.00    +0.000 A 
ATOM      5  C   UNL     1       6.267   3.990  14.752  0.00  0.00    +0.000 A 
ATOM      6  C   UNL     1       6.262   5.384  14.745  0.00  0.00    +0.000 A 
ATOM      7  C   UNL     1       5.514   6.080  15.695  0.00  0.00    +0.000 A 
ATOM      8  C   UNL     1       4.728   5.385  16.622  0.00  0.00    +0.000 A 
ATOM      9  C   UNL     1       3.763   6.081  17.497  0.00  0.00    +0.000 C 
ATOM     10  O   UNL     1       3.234   7.119  17.121  0.00  0.00    +0.000 OA
ATOM     11  C   UNL     1       3.299   5.423  18.732  0.00  0.00    +0.000 A 
ATOM     12  C   UNL     1       2.694   6.124  19.785  0.00  0.00    +0.000 A 
ATOM     13  C   UNL     1       1.980   5.397  20.756  0.00  0.00    +0.000 A 
ATOM     14  C   UNL     1       1.912   3.993  20.732  0.00  0.00    +0.000 A 
ATOM     15  C   UNL     1       2.619   3.311  19.734  0.00  0.00    +0.000 A 
ATOM     16  C   UNL     1       3.311   4.022  18.745  0.00  0.00    +0.000 A 
ENDROOT
BRANCH   7  17
ATOM     17  O   UNL     1       5.600   7.444  15.746  0.00  0.00    +0.000 OA
ATOM     18  H   UNL     1       6.326   7.748  15.177  0.00  0.00    +0.000 HD
ENDBRANCH   7  17
BRANCH  12  19
ATOM     19  O   UNL     1       2.643   7.485  19.963  0.00  0.00    +0.000 OA
BRANCH  19  20
ATOM     20  C   UNL     1       1.358   8.121  20.151  0.00  0.00    +0.000 C 
ATOM     21  O   UNL     1       0.931   8.798  18.964  0.00  0.00    +0.000 OA
ATOM     22  C   UNL     1      -0.283   9.547  19.118  0.00  0.00    +0.000 C 
ATOM     23  C   UNL     1      -0.083  10.657  20.155  0.00  0.00    +0.000 C 
ATOM     24  C   UNL     1       0.255   9.993  21.498  0.00  0.00    +0.000 C 
ATOM     25  C   UNL     1       1.492   9.087  21.364  0.00  0.00    +0.000 C 
BRANCH  23  26
ATOM     26  O   UNL     1      -1.250  11.475  20.253  0.00  0.00    +0.000 OA
ATOM     27  H   UNL     1      -1.987  11.040  19.791  0.00  0.00    +0.000 HD
ENDBRANCH  23  26
BRANCH  24  28
ATOM     28  O   UNL     1       0.436  10.991  22.511  0.00  0.00    +0.000 OA
ATOM     29  H   UNL     1       0.702  10.548  23.336  0.00  0.00    +0.000 HD
ENDBRANCH  24  28
BRANCH  25  30
ATOM     30  O   UNL     1       1.692   8.364  22.591  0.00  0.00    +0.000 OA
ATOM     31  H   UNL     1       1.719   7.411  22.395  0.00  0.00    +0.000 HD
ENDBRANCH  25  30
BRANCH  22  32
ATOM     32  C   UNL     1      -0.636  10.106  17.736  0.00  0.00    +0.000 C 
BRANCH  32  33
ATOM     33  O   UNL     1      -2.051  10.248  17.607  0.00  0.00    +0.000 OA
ATOM     34  H   UNL     1      -2.211  10.381  16.653  0.00  0.00    +0.000 HD
ENDBRANCH  32  33
ENDBRANCH  22  32
ENDBRANCH  19  20
ENDBRANCH  12  19
BRANCH  14  35
ATOM     35  C   UNL     1       1.007   3.217  21.658  0.00  0.00    +0.000 C 
BRANCH  35  36
ATOM     36  O   UNL     1       1.684   2.140  22.284  0.00  0.00    +0.000 OA
ATOM     37  H   UNL     1       1.117   1.357  22.186  0.00  0.00    +0.000 HD
ENDBRANCH  35  36
ENDBRANCH  14  35
TORSDOF 10
ENDMDL
MODEL 7
REMARK VINA RESULT:      -7.5      2.287      8.200
REMARK  Name = 
REMARK  10 active torsions:
REMARK  status: ('A' for Active; 'I' for Inactive)
REMARK    1  A    between atoms: C_7  and  O_8
REMARK    2  A    between atoms: C_13  and  O_14
REMARK    3  A    between atoms: O_14  and  C_15
REMARK    4  A    between atoms: C_17  and  C_18
REMARK    5  A    between atoms: C_18  and  O_19
REMARK    6  A    between atoms: C_20  and  O_21
REMARK    7  A    between atoms: C_22  and  O_23
REMARK    8  A    between atoms: C_24  and  O_25
REMARK    9  A    between atoms: C_27  and  C_28
REMARK   10  A    between atoms: C_28  and  O_29
REMARK                            x       y       z     vdW  Elec       q    Type
REMARK                         _______ _______ _______ _____ _____    ______ ____
ROOT
ATOM      1  O   UNL     1       2.123   5.127  21.158  0.00  0.00    +0.000 OA
ATOM      2  C   UNL     1       2.307   5.989  20.307  0.00  0.00    +0.000 C 
ATOM      3  C   UNL     1       3.156   5.701  19.135  0.00  0.00    +0.000 A 
ATOM      4  C   UNL     1       3.817   4.472  19.031  0.00  0.00    +0.000 A 
ATOM      5  C   UNL     1       4.618   4.202  17.921  0.00  0.00    +0.000 A 
ATOM      6  C   UNL     1       4.804   5.177  16.941  0.00  0.00    +0.000 A 
ATOM      7  C   UNL     1       4.167   6.412  17.061  0.00  0.00    +0.000 A 
ATOM      8  C   UNL     1       3.300   6.658  18.133  0.00  0.00    +0.000 A 
ATOM      9  C   UNL     1       2.447   7.862  18.180  0.00  0.00    +0.000 C 
ATOM     10  O   UNL     1       2.062   8.381  17.140  0.00  0.00    +0.000 OA
ATOM     11  C   UNL     1       1.907   8.317  19.474  0.00  0.00    +0.000 A 
ATOM     12  C   UNL     1       1.412   9.614  19.676  0.00  0.00    +0.000 A 
ATOM     13  C   UNL     1       0.613   9.861  20.808  0.00  0.00    +0.000 A 
ATOM     14  C   UNL     1       0.352   8.864  21.766  0.00  0.00    +0.000 A 
ATOM     15  C   UNL     1       0.950   7.610  21.598  0.00  0.00    +0.000 A 
ATOM     16  C   UNL     1       1.726   7.341  20.463  0.00  0.00    +0.000 A 
ENDROOT
BRANCH   7  17
ATOM     17  O   UNL     1       4.440   7.397  16.153  0.00  0.00    +0.000 OA
ATOM     18  H   UNL     1       5.327   7.756  16.316  0.00  0.00    +0.000 HD
ENDBRANCH   7  17
BRANCH  12  19
ATOM     19  O   UNL     1       1.550  10.700  18.847  0.00  0.00    +0.000 OA
BRANCH  19  20
ATOM     20  C   UNL     1       0.383  11.493  18.528  0.00  0.00    +0.000 C 
ATOM     21  O   UNL     1       0.088  12.430  19.569  0.00  0.00    +0.000 OA
ATOM     22  C   UNL     1      -1.125  13.170  19.368  0.00  0.00    +0.000 C 
ATOM     23  C   UNL     1      -2.322  12.213  19.348  0.00  0.00    +0.000 C 
ATOM     24  C   UNL     1      -2.137  11.249  18.168  0.00  0.00    +0.000 C 
ATOM     25  C   UNL     1      -0.794  10.505  18.275  0.00  0.00    +0.000 C 
BRANCH  23  26
ATOM     26  O   UNL     1      -3.548  12.939  19.246  0.00  0.00    +0.000 OA
ATOM     27  H   UNL     1      -3.541  13.469  18.432  0.00  0.00    +0.000 HD
ENDBRANCH  23  26
BRANCH  24  28
ATOM     28  O   UNL     1      -3.242  10.340  18.093  0.00  0.00    +0.000 OA
ATOM     29  H   UNL     1      -3.639  10.264  18.979  0.00  0.00    +0.000 HD
ENDBRANCH  24  28
BRANCH  25  30
ATOM     30  O   UNL     1      -0.579   9.729  17.084  0.00  0.00    +0.000 OA
ATOM     31  H   UNL     1      -0.364   8.814  17.337  0.00  0.00    +0.000 HD
ENDBRANCH  25  30
BRANCH  22  32
ATOM     32  C   UNL     1      -1.218  14.186  20.511  0.00  0.00    +0.000 C 
BRANCH  32  33
ATOM     33  O   UNL     1      -2.042  15.287  20.127  0.00  0.00    +0.000 OA
ATOM     34  H   UNL     1      -1.592  16.080  20.477  0.00  0.00    +0.000 HD
ENDBRANCH  32  33
ENDBRANCH  22  32
ENDBRANCH  19  20
ENDBRANCH  12  19
BRANCH  14  35
ATOM     35  C   UNL     1      -0.644   9.065  22.882  0.00  0.00    +0.000 C 
BRANCH  35  36
ATOM     36  O   UNL     1      -0.019   9.493  24.081  0.00  0.00    +0.000 OA
ATOM     37  H   UNL     1       0.118   8.700  24.625  0.00  0.00    +0.000 HD
ENDBRANCH  35  36
ENDBRANCH  14  35
TORSDOF 10
ENDMDL
MODEL 8
REMARK VINA RESULT:      -7.4      4.487      9.532
REMARK  Name = 
REMARK  10 active torsions:
REMARK  status: ('A' for Active; 'I' for Inactive)
REMARK    1  A    between atoms: C_7  and  O_8
REMARK    2  A    between atoms: C_13  and  O_14
REMARK    3  A    between atoms: O_14  and  C_15
REMARK    4  A    between atoms: C_17  and  C_18
REMARK    5  A    between atoms: C_18  and  O_19
REMARK    6  A    between atoms: C_20  and  O_21
REMARK    7  A    between atoms: C_22  and  O_23
REMARK    8  A    between atoms: C_24  and  O_25
REMARK    9  A    between atoms: C_27  and  C_28
REMARK   10  A    between atoms: C_28  and  O_29
REMARK                            x       y       z     vdW  Elec       q    Type
REMARK                         _______ _______ _______ _____ _____    ______ ____
ROOT
ATOM      1  O   UNL     1       1.328  12.130  18.379  0.00  0.00    +0.000 OA
ATOM      2  C   UNL     1       0.698  11.930  19.411  0.00  0.00    +0.000 C 
ATOM      3  C   UNL     1       0.745  10.607  20.060  0.00  0.00    +0.000 A 
ATOM      4  C   UNL     1       1.442   9.553  19.458  0.00  0.00    +0.000 A 
ATOM      5  C   UNL     1       1.485   8.302  20.075  0.00  0.00    +0.000 A 
ATOM      6  C   UNL     1       0.788   8.086  21.264  0.00  0.00    +0.000 A 
ATOM      7  C   UNL     1       0.070   9.130  21.847  0.00  0.00    +0.000 A 
ATOM      8  C   UNL     1       0.089  10.407  21.273  0.00  0.00    +0.000 A 
ATOM      9  C   UNL     1      -0.476  11.580  21.970  0.00  0.00    +0.000 C 
ATOM     10  O   UNL     1      -0.486  11.618  23.194  0.00  0.00    +0.000 OA
ATOM     11  C   UNL     1      -0.847  12.776  21.193  0.00  0.00    +0.000 A 
ATOM     12  C   UNL     1      -1.707  13.767  21.688  0.00  0.00    +0.000 A 
ATOM     13  C   UNL     1      -1.736  15.017  21.042  0.00  0.00    +0.000 A 
ATOM     14  C   UNL     1      -0.978  15.274  19.886  0.00  0.00    +0.000 A 
ATOM     15  C   UNL     1      -0.214  14.233  19.347  0.00  0.00    +0.000 A 
ATOM     16  C   UNL     1      -0.154  12.992  19.994  0.00  0.00    +0.000 A 
ENDROOT
BRANCH   7  17
ATOM     17  O   UNL     1      -0.695   8.880  22.952  0.00  0.00    +0.000 OA
ATOM     18  H   UNL     1      -0.632   7.940  23.189  0.00  0.00    +0.000 HD
ENDBRANCH   7  17
BRANCH  12  19
ATOM     19  O   UNL     1      -2.502  13.700  22.805  0.00  0.00    +0.000 OA
BRANCH  19  20
ATOM     20  C   UNL     1      -3.728  12.935  22.749  0.00  0.00    +0.000 C 
ATOM     21  O   UNL     1      -4.318  12.987  21.446  0.00  0.00    +0.000 OA
ATOM     22  C   UNL     1      -5.597  12.342  21.353  0.00  0.00    +0.000 C 
ATOM     23  C   UNL     1      -6.603  13.045  22.269  0.00  0.00    +0.000 C 
ATOM     24  C   UNL     1      -6.096  12.917  23.713  0.00  0.00    +0.000 C 
ATOM     25  C   UNL     1      -4.677  13.498  23.847  0.00  0.00    +0.000 C 
BRANCH  23  26
ATOM     26  O   UNL     1      -7.906  12.480  22.119  0.00  0.00    +0.000 OA
ATOM     27  H   UNL     1      -7.908  11.575  22.475  0.00  0.00    +0.000 HD
ENDBRANCH  23  26
BRANCH  24  28
ATOM     28  O   UNL     1      -7.014  13.546  24.617  0.00  0.00    +0.000 OA
ATOM     29  H   UNL     1      -7.052  13.019  25.434  0.00  0.00    +0.000 HD
ENDBRANCH  24  28
BRANCH  25  30
ATOM     30  O   UNL     1      -4.171  13.227  25.166  0.00  0.00    +0.000 OA
ATOM     31  H   UNL     1      -4.877  13.392  25.815  0.00  0.00    +0.000 HD
ENDBRANCH  25  30
BRANCH  22  32
ATOM     32  C   UNL     1      -6.017  12.404  19.880  0.00  0.00    +0.000 C 
BRANCH  32  33
ATOM     33  O   UNL     1      -7.102  11.509  19.638  0.00  0.00    +0.000 OA
ATOM     34  H   UNL     1      -7.857  12.078  19.395  0.00  0.00    +0.000 HD
ENDBRANCH  32  33
ENDBRANCH  22  32
ENDBRANCH  19  20
ENDBRANCH  12  19
BRANCH  14  35
ATOM     35  C   UNL     1      -0.865  16.658  19.292  0.00  0.00    +0.000 C 
BRANCH  35  36
ATOM     36  O   UNL     1      -0.532  16.620  17.915  0.00  0.00    +0.000 OA
ATOM     37  H   UNL     1       0.306  17.101  17.815  0.00  0.00    +0.000 HD
ENDBRANCH  35  36
ENDBRANCH  14  35
TORSDOF 10
ENDMDL
MODEL 9
REMARK VINA RESULT:      -7.4      4.250      7.285
REMARK  Name = 
REMARK  10 active torsions:
REMARK  status: ('A' for Active; 'I' for Inactive)
REMARK    1  A    between atoms: C_7  and  O_8
REMARK    2  A    between atoms: C_13  and  O_14
REMARK    3  A    between atoms: O_14  and  C_15
REMARK    4  A    between atoms: C_17  and  C_18
REMARK    5  A    between atoms: C_18  and  O_19
REMARK    6  A    between atoms: C_20  and  O_21
REMARK    7  A    between atoms: C_22  and  O_23
REMARK    8  A    between atoms: C_24  and  O_25
REMARK    9  A    between atoms: C_27  and  C_28
REMARK   10  A    between atoms: C_28  and  O_29
REMARK                            x       y       z     vdW  Elec       q    Type
REMARK                         _______ _______ _______ _____ _____    ______ ____
ROOT
ATOM      1  O   UNL     1      -6.988  11.938  19.257  0.00  0.00    +0.000 OA
ATOM      2  C   UNL     1      -6.062  12.290  19.979  0.00  0.00    +0.000 C 
ATOM      3  C   UNL     1      -6.338  12.852  21.314  0.00  0.00    +0.000 A 
ATOM      4  C   UNL     1      -7.658  13.059  21.730  0.00  0.00    +0.000 A 
ATOM      5  C   UNL     1      -7.916  13.590  22.995  0.00  0.00    +0.000 A 
ATOM      6  C   UNL     1      -6.859  13.965  23.823  0.00  0.00    +0.000 A 
ATOM      7  C   UNL     1      -5.544  13.785  23.394  0.00  0.00    +0.000 A 
ATOM      8  C   UNL     1      -5.280  13.179  22.159  0.00  0.00    +0.000 A 
ATOM      9  C   UNL     1      -3.914  12.778  21.768  0.00  0.00    +0.000 C 
ATOM     10  O   UNL     1      -3.100  12.462  22.626  0.00  0.00    +0.000 OA
ATOM     11  C   UNL     1      -3.600  12.574  20.342  0.00  0.00    +0.000 A 
ATOM     12  C   UNL     1      -2.287  12.557  19.850  0.00  0.00    +0.000 A 
ATOM     13  C   UNL     1      -2.055  12.023  18.569  0.00  0.00    +0.000 A 
ATOM     14  C   UNL     1      -3.106  11.568  17.752  0.00  0.00    +0.000 A 
ATOM     15  C   UNL     1      -4.417  11.700  18.222  0.00  0.00    +0.000 A 
ATOM     16  C   UNL     1      -4.661  12.204  19.506  0.00  0.00    +0.000 A 
ENDROOT
BRANCH   7  17
ATOM     17  O   UNL     1      -4.518  14.253  24.168  0.00  0.00    +0.000 OA
ATOM     18  H   UNL     1      -4.240  13.565  24.794  0.00  0.00    +0.000 HD
ENDBRANCH   7  17
BRANCH  12  19
ATOM     19  O   UNL     1      -1.143  12.941  20.506  0.00  0.00    +0.000 OA
BRANCH  19  20
ATOM     20  C   UNL     1      -0.051  12.000  20.624  0.00  0.00    +0.000 C 
ATOM     21  O   UNL     1       0.169  11.297  19.397  0.00  0.00    +0.000 OA
ATOM     22  C   UNL     1       1.163  10.266  19.479  0.00  0.00    +0.000 C 
ATOM     23  C   UNL     1       0.717   9.190  20.475  0.00  0.00    +0.000 C 
ATOM     24  C   UNL     1       0.583   9.850  21.855  0.00  0.00    +0.000 C 
ATOM     25  C   UNL     1      -0.394  11.038  21.800  0.00  0.00    +0.000 C 
BRANCH  23  26
ATOM     26  O   UNL     1       1.647   8.106  20.500  0.00  0.00    +0.000 OA
ATOM     27  H   UNL     1       1.301   7.398  21.069  0.00  0.00    +0.000 HD
ENDBRANCH  23  26
BRANCH  24  28
ATOM     28  O   UNL     1       0.183   8.879  22.830  0.00  0.00    +0.000 OA
ATOM     29  H   UNL     1      -0.600   9.218  23.299  0.00  0.00    +0.000 HD
ENDBRANCH  24  28
BRANCH  25  30
ATOM     30  O   UNL     1      -0.382  11.727  23.062  0.00  0.00    +0.000 OA
ATOM     31  H   UNL     1       0.523  12.035  23.245  0.00  0.00    +0.000 HD
ENDBRANCH  25  30
BRANCH  22  32
ATOM     32  C   UNL     1       1.337   9.705  18.064  0.00  0.00    +0.000 C 
BRANCH  32  33
ATOM     33  O   UNL     1       2.515   8.902  17.992  0.00  0.00    +0.000 OA
ATOM     34  H   UNL     1       2.874   8.890  18.900  0.00  0.00    +0.000 HD
ENDBRANCH  32  33
ENDBRANCH  22  32
ENDBRANCH  19  20
ENDBRANCH  12  19
BRANCH  14  35
ATOM     35  C   UNL     1      -2.855  10.833  16.457  0.00  0.00    +0.000 C 
BRANCH  35  36
ATOM     36  O   UNL     1      -3.274  11.583  15.330  0.00  0.00    +0.000 OA
ATOM     37  H   UNL     1      -3.138  11.020  14.551  0.00  0.00    +0.000 HD
ENDBRANCH  35  36
ENDBRANCH  14  35
TORSDOF 10
ENDMDL
