MODEL 1
REMARK VINA RESULT:      -7.9      0.000      0.000
REMARK  Name = 
REMARK  6 active torsions:
REMARK  status: ('A' for Active; 'I' for Inactive)
REMARK    1  A    between atoms: O_1  and  C_2
REMARK    2  A    between atoms: C_2  and  C_3
REMARK    3  A    between atoms: C_2  and  C_17
REMARK    4  A    between atoms: C_3  and  N_4
REMARK    5  A    between atoms: C_7  and  C_8
REMARK    6  A    between atoms: C_8  and  C_9
REMARK                            x       y       z     vdW  Elec       q    Type
REMARK                         _______ _______ _______ _____ _____    ______ ____
ROOT
ATOM      1  N   UNL     1       5.734   4.927  15.737  0.00  0.00    +0.000 NA
ATOM      2  C   UNL     1       5.130   6.277  15.801  0.00  0.00    +0.000 C 
ATOM      3  C   UNL     1       5.134   6.856  17.214  0.00  0.00    +0.000 C 
ATOM      4  C   UNL     1       4.422   5.938  18.215  0.00  0.00    +0.000 C 
ATOM      5  C   UNL     1       5.101   4.565  18.142  0.00  0.00    +0.000 C 
ATOM      6  C   UNL     1       5.126   4.006  16.716  0.00  0.00    +0.000 C 
ENDROOT
BRANCH   1   7
ATOM      7  C   UNL     1       5.592   4.413  14.344  0.00  0.00    +0.000 C 
BRANCH   7   8
ATOM      8  C   UNL     1       6.940   4.178  13.636  0.00  0.00    +0.000 C 
BRANCH   8   9
ATOM      9  C   UNL     1       6.723   3.820  12.156  0.00  0.00    +0.000 C 
ATOM     10  F   UNL     1       7.235   2.613  11.827  0.00  0.00    +0.000 F 
ATOM     11  F   UNL     1       5.394   3.773  11.879  0.00  0.00    +0.000 F 
ATOM     12  F   UNL     1       7.265   4.732  11.316  0.00  0.00    +0.000 F 
ENDBRANCH   8   9
BRANCH   8  13
ATOM     13  O   UNL     1       7.774   5.330  13.856  0.00  0.00    +0.000 OA
ATOM     14  H   UNL     1       7.856   5.761  12.980  0.00  0.00    +0.000 HD
ENDBRANCH   8  13
ENDBRANCH   7   8
ENDBRANCH   1   7
BRANCH   4  15
ATOM     15  C   UNL     1       2.903   5.797  17.972  0.00  0.00    +0.000 C 
BRANCH  15  16
ATOM     16  C   UNL     1       2.191   4.787  18.838  0.00  0.00    +0.000 A 
ATOM     17  C   UNL     1       1.534   3.695  18.242  0.00  0.00    +0.000 A 
ATOM     18  C   UNL     1       0.906   2.733  19.031  0.00  0.00    +0.000 A 
ATOM     19  C   UNL     1       0.927   2.847  20.420  0.00  0.00    +0.000 A 
ATOM     20  C   UNL     1       1.575   3.927  21.018  0.00  0.00    +0.000 A 
ATOM     21  C   UNL     1       2.204   4.890  20.231  0.00  0.00    +0.000 A 
ENDBRANCH  15  16
ENDBRANCH   4  15
TORSDOF 6
ENDMDL
MODEL 2
REMARK VINA RESULT:      -7.8      0.093      1.082
REMARK  Name = 
REMARK  6 active torsions:
REMARK  status: ('A' for Active; 'I' for Inactive)
REMARK    1  A    between atoms: O_1  and  C_2
REMARK    2  A    between atoms: C_2  and  C_3
REMARK    3  A    between atoms: C_2  and  C_17
REMARK    4  A    between atoms: C_3  and  N_4
REMARK    5  A    between atoms: C_7  and  C_8
REMARK    6  A    between atoms: C_8  and  C_9
REMARK                            x       y       z     vdW  Elec       q    Type
REMARK                         _______ _______ _______ _____ _____    ______ ____
ROOT
ATOM      1  N   UNL     1       5.731   4.906  15.746  0.00  0.00    +0.000 NA
ATOM      2  C   UNL     1       5.152   6.267  15.791  0.00  0.00    +0.000 C 
ATOM      3  C   UNL     1       5.160   6.862  17.198  0.00  0.00    +0.000 C 
ATOM      4  C   UNL     1       4.426   5.969  18.205  0.00  0.00    +0.000 C 
ATOM      5  C   UNL     1       5.079   4.582  18.150  0.00  0.00    +0.000 C 
ATOM      6  C   UNL     1       5.101   4.007  16.730  0.00  0.00    +0.000 C 
ENDROOT
BRANCH   1   7
ATOM      7  C   UNL     1       5.586   4.380  14.357  0.00  0.00    +0.000 C 
BRANCH   7   8
ATOM      8  C   UNL     1       6.933   4.162  13.640  0.00  0.00    +0.000 C 
BRANCH   8   9
ATOM      9  C   UNL     1       6.710   3.817  12.157  0.00  0.00    +0.000 C 
ATOM     10  F   UNL     1       7.232   2.619  11.813  0.00  0.00    +0.000 F 
ATOM     11  F   UNL     1       5.380   3.762  11.887  0.00  0.00    +0.000 F 
ATOM     12  F   UNL     1       7.239   4.744  11.324  0.00  0.00    +0.000 F 
ENDBRANCH   8   9
BRANCH   8  13
ATOM     13  O   UNL     1       7.758   5.319  13.867  0.00  0.00    +0.000 OA
ATOM     14  H   UNL     1       7.660   5.869  13.062  0.00  0.00    +0.000 HD
ENDBRANCH   8  13
ENDBRANCH   7   8
ENDBRANCH   1   7
BRANCH   4  15
ATOM     15  C   UNL     1       2.906   5.854  17.956  0.00  0.00    +0.000 C 
BRANCH  15  16
ATOM     16  C   UNL     1       2.188   4.795  18.756  0.00  0.00    +0.000 A 
ATOM     17  C   UNL     1       2.084   4.924  20.153  0.00  0.00    +0.000 A 
ATOM     18  C   UNL     1       1.390   3.974  20.900  0.00  0.00    +0.000 A 
ATOM     19  C   UNL     1       0.791   2.888  20.265  0.00  0.00    +0.000 A 
ATOM     20  C   UNL     1       0.891   2.753  18.881  0.00  0.00    +0.000 A 
ATOM     21  C   UNL     1       1.584   3.701  18.131  0.00  0.00    +0.000 A 
ENDBRANCH  15  16
ENDBRANCH   4  15
TORSDOF 6
ENDMDL
MODEL 3
REMARK VINA RESULT:      -7.2      1.232      1.396
REMARK  Name = 
REMARK  6 active torsions:
REMARK  status: ('A' for Active; 'I' for Inactive)
REMARK    1  A    between atoms: O_1  and  C_2
REMARK    2  A    between atoms: C_2  and  C_3
REMARK    3  A    between atoms: C_2  and  C_17
REMARK    4  A    between atoms: C_3  and  N_4
REMARK    5  A    between atoms: C_7  and  C_8
REMARK    6  A    between atoms: C_8  and  C_9
REMARK                            x       y       z     vdW  Elec       q    Type
REMARK                         _______ _______ _______ _____ _____    ______ ____
ROOT
ATOM      1  N   UNL     1       6.814   5.630  15.588  0.00  0.00    +0.000 NA
ATOM      2  C   UNL     1       5.359   5.898  15.623  0.00  0.00    +0.000 C 
ATOM      3  C   UNL     1       4.904   6.497  16.952  0.00  0.00    +0.000 C 
ATOM      4  C   UNL     1       5.281   5.607  18.143  0.00  0.00    +0.000 C 
ATOM      5  C   UNL     1       6.797   5.384  18.088  0.00  0.00    +0.000 C 
ATOM      6  C   UNL     1       7.251   4.818  16.739  0.00  0.00    +0.000 C 
ENDROOT
BRANCH   1   7
ATOM      7  C   UNL     1       7.138   4.960  14.295  0.00  0.00    +0.000 C 
BRANCH   7   8
ATOM      8  C   UNL     1       6.030   4.009  13.801  0.00  0.00    +0.000 C 
BRANCH   8   9
ATOM      9  C   UNL     1       6.236   3.657  12.317  0.00  0.00    +0.000 C 
ATOM     10  F   UNL     1       6.594   2.367  12.130  0.00  0.00    +0.000 F 
ATOM     11  F   UNL     1       5.083   3.851  11.629  0.00  0.00    +0.000 F 
ATOM     12  F   UNL     1       7.178   4.429  11.727  0.00  0.00    +0.000 F 
ENDBRANCH   8   9
BRANCH   8  13
ATOM     13  O   UNL     1       5.982   2.873  14.684  0.00  0.00    +0.000 OA
ATOM     14  H   UNL     1       5.760   3.240  15.565  0.00  0.00    +0.000 HD
ENDBRANCH   8  13
ENDBRANCH   7   8
ENDBRANCH   1   7
BRANCH   4  15
ATOM     15  C   UNL     1       4.542   4.251  18.176  0.00  0.00    +0.000 C 
BRANCH  15  16
ATOM     16  C   UNL     1       3.244   4.229  18.945  0.00  0.00    +0.000 A 
ATOM     17  C   UNL     1       2.351   3.154  18.781  0.00  0.00    +0.000 A 
ATOM     18  C   UNL     1       1.167   3.103  19.514  0.00  0.00    +0.000 A 
ATOM     19  C   UNL     1       0.859   4.117  20.418  0.00  0.00    +0.000 A 
ATOM     20  C   UNL     1       1.739   5.187  20.585  0.00  0.00    +0.000 A 
ATOM     21  C   UNL     1       2.924   5.241  19.853  0.00  0.00    +0.000 A 
ENDBRANCH  15  16
ENDBRANCH   4  15
TORSDOF 6
ENDMDL
MODEL 4
REMARK VINA RESULT:      -7.2      4.876      7.687
REMARK  Name = 
REMARK  6 active torsions:
REMARK  status: ('A' for Active; 'I' for Inactive)
REMARK    1  A    between atoms: O_1  and  C_2
REMARK    2  A    between atoms: C_2  and  C_3
REMARK    3  A    between atoms: C_2  and  C_17
REMARK    4  A    between atoms: C_3  and  N_4
REMARK    5  A    between atoms: C_7  and  C_8
REMARK    6  A    between atoms: C_8  and  C_9
REMARK                            x       y       z     vdW  Elec       q    Type
REMARK                         _______ _______ _______ _____ _____    ______ ____
ROOT
ATOM      1  N   UNL     1       3.440   5.109  18.938  0.00  0.00    +0.000 NA
ATOM      2  C   UNL     1       4.352   3.951  18.800  0.00  0.00    +0.000 C 
ATOM      3  C   UNL     1       5.723   4.345  18.254  0.00  0.00    +0.000 C 
ATOM      4  C   UNL     1       5.620   5.067  16.906  0.00  0.00    +0.000 C 
ATOM      5  C   UNL     1       4.698   6.276  17.103  0.00  0.00    +0.000 C 
ATOM      6  C   UNL     1       3.337   5.879  17.685  0.00  0.00    +0.000 C 
ENDROOT
BRANCH   1   7
ATOM      7  C   UNL     1       2.107   4.607  19.380  0.00  0.00    +0.000 C 
BRANCH   7   8
ATOM      8  C   UNL     1       2.128   3.141  19.854  0.00  0.00    +0.000 C 
BRANCH   8   9
ATOM      9  C   UNL     1       2.118   3.066  21.391  0.00  0.00    +0.000 C 
ATOM     10  F   UNL     1       3.084   2.258  21.883  0.00  0.00    +0.000 F 
ATOM     11  F   UNL     1       2.327   4.299  21.918  0.00  0.00    +0.000 F 
ATOM     12  F   UNL     1       0.935   2.628  21.881  0.00  0.00    +0.000 F 
ENDBRANCH   8   9
BRANCH   8  13
ATOM     13  O   UNL     1       1.044   2.443  19.215  0.00  0.00    +0.000 OA
ATOM     14  H   UNL     1       1.280   2.413  18.264  0.00  0.00    +0.000 HD
ENDBRANCH   8  13
ENDBRANCH   7   8
ENDBRANCH   1   7
BRANCH   4  15
ATOM     15  C   UNL     1       5.101   4.181  15.752  0.00  0.00    +0.000 C 
BRANCH  15  16
ATOM     16  C   UNL     1       5.875   4.267  14.459  0.00  0.00    +0.000 A 
ATOM     17  C   UNL     1       7.027   5.071  14.386  0.00  0.00    +0.000 A 
ATOM     18  C   UNL     1       7.772   5.130  13.210  0.00  0.00    +0.000 A 
ATOM     19  C   UNL     1       7.382   4.388  12.097  0.00  0.00    +0.000 A 
ATOM     20  C   UNL     1       6.240   3.588  12.163  0.00  0.00    +0.000 A 
ATOM     21  C   UNL     1       5.493   3.529  13.337  0.00  0.00    +0.000 A 
ENDBRANCH  15  16
ENDBRANCH   4  15
TORSDOF 6
ENDMDL
MODEL 5
REMARK VINA RESULT:      -7.2      1.238      1.749
REMARK  Name = 
REMARK  6 active torsions:
REMARK  status: ('A' for Active; 'I' for Inactive)
REMARK    1  A    between atoms: O_1  and  C_2
REMARK    2  A    between atoms: C_2  and  C_3
REMARK    3  A    between atoms: C_2  and  C_17
REMARK    4  A    between atoms: C_3  and  N_4
REMARK    5  A    between atoms: C_7  and  C_8
REMARK    6  A    between atoms: C_8  and  C_9
REMARK                            x       y       z     vdW  Elec       q    Type
REMARK                         _______ _______ _______ _____ _____    ______ ____
ROOT
ATOM      1  N   UNL     1       6.815   5.680  15.594  0.00  0.00    +0.000 NA
ATOM      2  C   UNL     1       5.344   5.841  15.616  0.00  0.00    +0.000 C 
ATOM      3  C   UNL     1       4.841   6.461  16.919  0.00  0.00    +0.000 C 
ATOM      4  C   UNL     1       5.277   5.652  18.146  0.00  0.00    +0.000 C 
ATOM      5  C   UNL     1       6.806   5.540  18.102  0.00  0.00    +0.000 C 
ATOM      6  C   UNL     1       7.306   4.953  16.779  0.00  0.00    +0.000 C 
ENDROOT
BRANCH   1   7
ATOM      7  C   UNL     1       7.192   4.981  14.331  0.00  0.00    +0.000 C 
BRANCH   7   8
ATOM      8  C   UNL     1       6.102   4.026  13.808  0.00  0.00    +0.000 C 
BRANCH   8   9
ATOM      9  C   UNL     1       6.346   3.679  12.329  0.00  0.00    +0.000 C 
ATOM     10  F   UNL     1       6.768   2.407  12.151  0.00  0.00    +0.000 F 
ATOM     11  F   UNL     1       5.194   3.815  11.623  0.00  0.00    +0.000 F 
ATOM     12  F   UNL     1       7.258   4.493  11.749  0.00  0.00    +0.000 F 
ENDBRANCH   8   9
BRANCH   8  13
ATOM     13  O   UNL     1       6.041   2.887  14.686  0.00  0.00    +0.000 OA
ATOM     14  H   UNL     1       6.737   2.276  14.367  0.00  0.00    +0.000 HD
ENDBRANCH   8  13
ENDBRANCH   7   8
ENDBRANCH   1   7
BRANCH   4  15
ATOM     15  C   UNL     1       4.640   4.248  18.237  0.00  0.00    +0.000 C 
BRANCH  15  16
ATOM     16  C   UNL     1       3.331   4.168  18.983  0.00  0.00    +0.000 A 
ATOM     17  C   UNL     1       3.089   5.034  20.065  0.00  0.00    +0.000 A 
ATOM     18  C   UNL     1       1.869   4.997  20.738  0.00  0.00    +0.000 A 
ATOM     19  C   UNL     1       0.879   4.101  20.342  0.00  0.00    +0.000 A 
ATOM     20  C   UNL     1       1.112   3.239  19.271  0.00  0.00    +0.000 A 
ATOM     21  C   UNL     1       2.331   3.273  18.596  0.00  0.00    +0.000 A 
ENDBRANCH  15  16
ENDBRANCH   4  15
TORSDOF 6
ENDMDL
MODEL 6
REMARK VINA RESULT:      -7.2      0.958      1.207
REMARK  Name = 
REMARK  6 active torsions:
REMARK  status: ('A' for Active; 'I' for Inactive)
REMARK    1  A    between atoms: O_1  and  C_2
REMARK    2  A    between atoms: C_2  and  C_3
REMARK    3  A    between atoms: C_2  and  C_17
REMARK    4  A    between atoms: C_3  and  N_4
REMARK    5  A    between atoms: C_7  and  C_8
REMARK    6  A    between atoms: C_8  and  C_9
REMARK                            x       y       z     vdW  Elec       q    Type
REMARK                         _______ _______ _______ _____ _____    ______ ____
ROOT
ATOM      1  N   UNL     1       5.856   5.126  15.881  0.00  0.00    +0.000 NA
ATOM      2  C   UNL     1       4.535   5.333  16.515  0.00  0.00    +0.000 C 
ATOM      3  C   UNL     1       4.642   5.952  17.907  0.00  0.00    +0.000 C 
ATOM      4  C   UNL     1       5.524   5.115  18.842  0.00  0.00    +0.000 C 
ATOM      5  C   UNL     1       6.890   4.957  18.164  0.00  0.00    +0.000 C 
ATOM      6  C   UNL     1       6.773   4.370  16.753  0.00  0.00    +0.000 C 
ENDROOT
BRANCH   1   7
ATOM      7  C   UNL     1       5.649   4.432  14.577  0.00  0.00    +0.000 C 
BRANCH   7   8
ATOM      8  C   UNL     1       6.945   4.253  13.763  0.00  0.00    +0.000 C 
BRANCH   8   9
ATOM      9  C   UNL     1       6.628   3.809  12.324  0.00  0.00    +0.000 C 
ATOM     10  F   UNL     1       7.096   2.573  12.042  0.00  0.00    +0.000 F 
ATOM     11  F   UNL     1       5.285   3.777  12.133  0.00  0.00    +0.000 F 
ATOM     12  F   UNL     1       7.134   4.655  11.397  0.00  0.00    +0.000 F 
ENDBRANCH   8   9
BRANCH   8  13
ATOM     13  O   UNL     1       7.710   5.468  13.859  0.00  0.00    +0.000 OA
ATOM     14  H   UNL     1       8.647   5.193  13.774  0.00  0.00    +0.000 HD
ENDBRANCH   8  13
ENDBRANCH   7   8
ENDBRANCH   1   7
BRANCH   4  15
ATOM     15  C   UNL     1       4.937   3.730  19.193  0.00  0.00    +0.000 C 
BRANCH  15  16
ATOM     16  C   UNL     1       3.450   3.692  19.444  0.00  0.00    +0.000 A 
ATOM     17  C   UNL     1       2.625   2.889  18.635  0.00  0.00    +0.000 A 
ATOM     18  C   UNL     1       1.255   2.815  18.880  0.00  0.00    +0.000 A 
ATOM     19  C   UNL     1       0.692   3.536  19.931  0.00  0.00    +0.000 A 
ATOM     20  C   UNL     1       1.504   4.335  20.736  0.00  0.00    +0.000 A 
ATOM     21  C   UNL     1       2.874   4.411  20.494  0.00  0.00    +0.000 A 
ENDBRANCH  15  16
ENDBRANCH   4  15
TORSDOF 6
ENDMDL
MODEL 7
REMARK VINA RESULT:      -7.2      4.516      7.495
REMARK  Name = 
REMARK  6 active torsions:
REMARK  status: ('A' for Active; 'I' for Inactive)
REMARK    1  A    between atoms: O_1  and  C_2
REMARK    2  A    between atoms: C_2  and  C_3
REMARK    3  A    between atoms: C_2  and  C_17
REMARK    4  A    between atoms: C_3  and  N_4
REMARK    5  A    between atoms: C_7  and  C_8
REMARK    6  A    between atoms: C_8  and  C_9
REMARK                            x       y       z     vdW  Elec       q    Type
REMARK                         _______ _______ _______ _____ _____    ______ ____
ROOT
ATOM      1  N   UNL     1       4.373   5.180  18.765  0.00  0.00    +0.000 NA
ATOM      2  C   UNL     1       5.824   5.120  19.049  0.00  0.00    +0.000 C 
ATOM      3  C   UNL     1       6.623   6.139  18.239  0.00  0.00    +0.000 C 
ATOM      4  C   UNL     1       6.399   5.979  16.731  0.00  0.00    +0.000 C 
ATOM      5  C   UNL     1       4.890   6.082  16.478  0.00  0.00    +0.000 C 
ATOM      6  C   UNL     1       4.091   5.083  17.321  0.00  0.00    +0.000 C 
ENDROOT
BRANCH   1   7
ATOM      7  C   UNL     1       3.700   4.087  19.526  0.00  0.00    +0.000 C 
BRANCH   7   8
ATOM      8  C   UNL     1       2.300   4.472  20.044  0.00  0.00    +0.000 C 
BRANCH   8   9
ATOM      9  C   UNL     1       1.537   3.227  20.528  0.00  0.00    +0.000 C 
ATOM     10  F   UNL     1       1.507   3.121  21.876  0.00  0.00    +0.000 F 
ATOM     11  F   UNL     1       0.248   3.279  20.107  0.00  0.00    +0.000 F 
ATOM     12  F   UNL     1       2.060   2.077  20.043  0.00  0.00    +0.000 F 
ENDBRANCH   8   9
BRANCH   8  13
ATOM     13  O   UNL     1       2.454   5.503  21.038  0.00  0.00    +0.000 OA
ATOM     14  H   UNL     1       3.283   5.283  21.512  0.00  0.00    +0.000 HD
ENDBRANCH   8  13
ENDBRANCH   7   8
ENDBRANCH   1   7
BRANCH   4  15
ATOM     15  C   UNL     1       6.950   4.660  16.147  0.00  0.00    +0.000 C 
BRANCH  15  16
ATOM     16  C   UNL     1       6.897   4.534  14.644  0.00  0.00    +0.000 A 
ATOM     17  C   UNL     1       7.767   5.300  13.848  0.00  0.00    +0.000 A 
ATOM     18  C   UNL     1       7.755   5.166  12.460  0.00  0.00    +0.000 A 
ATOM     19  C   UNL     1       6.881   4.268  11.853  0.00  0.00    +0.000 A 
ATOM     20  C   UNL     1       6.015   3.505  12.636  0.00  0.00    +0.000 A 
ATOM     21  C   UNL     1       6.024   3.638  14.023  0.00  0.00    +0.000 A 
ENDBRANCH  15  16
ENDBRANCH   4  15
TORSDOF 6
ENDMDL
MODEL 8
REMARK VINA RESULT:      -7.2      4.391      7.309
REMARK  Name = 
REMARK  6 active torsions:
REMARK  status: ('A' for Active; 'I' for Inactive)
REMARK    1  A    between atoms: O_1  and  C_2
REMARK    2  A    between atoms: C_2  and  C_3
REMARK    3  A    between atoms: C_2  and  C_17
REMARK    4  A    between atoms: C_3  and  N_4
REMARK    5  A    between atoms: C_7  and  C_8
REMARK    6  A    between atoms: C_8  and  C_9
REMARK                            x       y       z     vdW  Elec       q    Type
REMARK                         _______ _______ _______ _____ _____    ______ ____
ROOT
ATOM      1  N   UNL     1       4.175   5.454  19.081  0.00  0.00    +0.000 NA
ATOM      2  C   UNL     1       4.900   4.199  18.780  0.00  0.00    +0.000 C 
ATOM      3  C   UNL     1       6.246   4.448  18.101  0.00  0.00    +0.000 C 
ATOM      4  C   UNL     1       6.098   5.265  16.812  0.00  0.00    +0.000 C 
ATOM      5  C   UNL     1       5.375   6.568  17.176  0.00  0.00    +0.000 C 
ATOM      6  C   UNL     1       4.044   6.313  17.890  0.00  0.00    +0.000 C 
ENDROOT
BRANCH   1   7
ATOM      7  C   UNL     1       2.841   5.101  19.648  0.00  0.00    +0.000 C 
BRANCH   7   8
ATOM      8  C   UNL     1       2.186   3.884  18.966  0.00  0.00    +0.000 C 
BRANCH   8   9
ATOM      9  C   UNL     1       1.210   3.182  19.927  0.00  0.00    +0.000 C 
ATOM     10  F   UNL     1       0.644   4.031  20.813  0.00  0.00    +0.000 F 
ATOM     11  F   UNL     1       0.198   2.610  19.226  0.00  0.00    +0.000 F 
ATOM     12  F   UNL     1       1.802   2.192  20.635  0.00  0.00    +0.000 F 
ENDBRANCH   8   9
BRANCH   8  13
ATOM     13  O   UNL     1       1.594   4.324  17.730  0.00  0.00    +0.000 OA
ATOM     14  H   UNL     1       1.455   3.508  17.205  0.00  0.00    +0.000 HD
ENDBRANCH   8  13
ENDBRANCH   7   8
ENDBRANCH   1   7
BRANCH   4  15
ATOM     15  C   UNL     1       5.342   4.532  15.682  0.00  0.00    +0.000 C 
BRANCH  15  16
ATOM     16  C   UNL     1       6.072   4.426  14.366  0.00  0.00    +0.000 A 
ATOM     17  C   UNL     1       5.574   3.583  13.356  0.00  0.00    +0.000 A 
ATOM     18  C   UNL     1       6.217   3.504  12.122  0.00  0.00    +0.000 A 
ATOM     19  C   UNL     1       7.359   4.264  11.879  0.00  0.00    +0.000 A 
ATOM     20  C   UNL     1       7.859   5.101  12.876  0.00  0.00    +0.000 A 
ATOM     21  C   UNL     1       7.219   5.182  14.111  0.00  0.00    +0.000 A 
ENDBRANCH  15  16
ENDBRANCH   4  15
TORSDOF 6
ENDMDL
MODEL 9
REMARK VINA RESULT:      -7.2      0.967      1.837
REMARK  Name = 
REMARK  6 active torsions:
REMARK  status: ('A' for Active; 'I' for Inactive)
REMARK    1  A    between atoms: O_1  and  C_2
REMARK    2  A    between atoms: C_2  and  C_3
REMARK    3  A    between atoms: C_2  and  C_17
REMARK    4  A    between atoms: C_3  and  N_4
REMARK    5  A    between atoms: C_7  and  C_8
REMARK    6  A    between atoms: C_8  and  C_9
REMARK                            x       y       z     vdW  Elec       q    Type
REMARK                         _______ _______ _______ _____ _____    ______ ____
ROOT
ATOM      1  N   UNL     1       5.807   5.140  15.903  0.00  0.00    +0.000 NA
ATOM      2  C   UNL     1       4.491   5.328  16.553  0.00  0.00    +0.000 C 
ATOM      3  C   UNL     1       4.608   5.915  17.958  0.00  0.00    +0.000 C 
ATOM      4  C   UNL     1       5.500   5.060  18.866  0.00  0.00    +0.000 C 
ATOM      5  C   UNL     1       6.861   4.921  18.173  0.00  0.00    +0.000 C 
ATOM      6  C   UNL     1       6.733   4.367  16.751  0.00  0.00    +0.000 C 
ENDROOT
BRANCH   1   7
ATOM      7  C   UNL     1       5.591   4.475  14.585  0.00  0.00    +0.000 C 
BRANCH   7   8
ATOM      8  C   UNL     1       6.891   4.258  13.786  0.00  0.00    +0.000 C 
BRANCH   8   9
ATOM      9  C   UNL     1       6.577   3.796  12.352  0.00  0.00    +0.000 C 
ATOM     10  F   UNL     1       5.256   3.835  12.066  0.00  0.00    +0.000 F 
ATOM     11  F   UNL     1       7.200   4.605  11.457  0.00  0.00    +0.000 F 
ATOM     12  F   UNL     1       7.008   2.537  12.107  0.00  0.00    +0.000 F 
ENDBRANCH   8   9
BRANCH   8  13
ATOM     13  O   UNL     1       7.678   5.460  13.868  0.00  0.00    +0.000 OA
ATOM     14  H   UNL     1       7.100   6.119  14.305  0.00  0.00    +0.000 HD
ENDBRANCH   8  13
ENDBRANCH   7   8
ENDBRANCH   1   7
BRANCH   4  15
ATOM     15  C   UNL     1       4.920   3.666  19.190  0.00  0.00    +0.000 C 
BRANCH  15  16
ATOM     16  C   UNL     1       3.441   3.623  19.488  0.00  0.00    +0.000 A 
ATOM     17  C   UNL     1       2.913   4.418  20.521  0.00  0.00    +0.000 A 
ATOM     18  C   UNL     1       1.544   4.417  20.781  0.00  0.00    +0.000 A 
ATOM     19  C   UNL     1       0.687   3.629  20.015  0.00  0.00    +0.000 A 
ATOM     20  C   UNL     1       1.204   2.838  18.990  0.00  0.00    +0.000 A 
ATOM     21  C   UNL     1       2.572   2.836  18.728  0.00  0.00    +0.000 A 
ENDBRANCH  15  16
ENDBRANCH   4  15
TORSDOF 6
ENDMDL
