MODEL 1
REMARK VINA RESULT:      -9.3      0.000      0.000
REMARK  Name = 
REMARK  6 active torsions:
REMARK  status: ('A' for Active; 'I' for Inactive)
REMARK    1  A    between atoms: C_1  and  C_2
REMARK    2  A    between atoms: C_5  and  C_6
REMARK    3  A    between atoms: C_13  and  C_14
REMARK    4  A    between atoms: C_14  and  N_16
REMARK    5  A    between atoms: N_19  and  C_20
REMARK    6  A    between atoms: C_20  and  C_21
REMARK                            x       y       z     vdW  Elec       q    Type
REMARK                         _______ _______ _______ _____ _____    ______ ____
ROOT
ATOM      1  N   UNL     1       1.921   5.702  19.972  0.00  0.00    +0.000 NA
ATOM      2  C   UNL     1       2.102   6.933  19.602  0.00  0.00    +0.000 C 
ATOM      3  N   UNL     1       2.682   7.339  18.442  0.00  0.00    +0.000 N 
ATOM      4  N   UNL     1       1.756   7.944  20.442  0.00  0.00    +0.000 N 
ATOM      5  H   UNL     1       2.779   6.596  17.746  0.00  0.00    +0.000 HD
ATOM      6  H   UNL     1       2.351   8.189  18.015  0.00  0.00    +0.000 HD
ATOM      7  H   UNL     1       1.496   7.660  21.381  0.00  0.00    +0.000 HD
ENDROOT
BRANCH   1   8
ATOM      8  C   UNL     1       2.194   4.685  19.087  0.00  0.00    +0.000 C 
ATOM      9  O   UNL     1       1.681   4.557  17.977  0.00  0.00    +0.000 OA
BRANCH   8  15
ATOM     10  C   UNL     1       1.801   2.657  21.638  0.00  0.00    +0.000 C 
ATOM     11  C   UNL     1       2.912   2.867  20.690  0.00  0.00    +0.000 A 
ATOM     12  O   UNL     1       4.032   2.138  20.920  0.00  0.00    +0.000 OA
ATOM     13  N   UNL     1       4.994   2.461  19.993  0.00  0.00    +0.000 NA
ATOM     14  C   UNL     1       4.455   3.389  19.181  0.00  0.00    +0.000 A 
ATOM     15  C   UNL     1       3.118   3.697  19.605  0.00  0.00    +0.000 A 
BRANCH  14  16
ATOM     16  C   UNL     1       5.235   3.901  18.046  0.00  0.00    +0.000 A 
ATOM     17  C   UNL     1       6.416   4.633  18.234  0.00  0.00    +0.000 A 
ATOM     18  C   UNL     1       7.142   5.120  17.142  0.00  0.00    +0.000 A 
ATOM     19  C   UNL     1       6.676   4.901  15.853  0.00  0.00    +0.000 A 
ATOM     20  F   UNL     1       7.368   5.378  14.810  0.00  0.00    +0.000 F 
ATOM     21  C   UNL     1       5.496   4.201  15.634  0.00  0.00    +0.000 A 
ATOM     22  C   UNL     1       4.779   3.701  16.726  0.00  0.00    +0.000 A 
ENDBRANCH  14  16
ENDBRANCH   8  15
ENDBRANCH   1   8
BRANCH   4  23
ATOM     23  C   UNL     1       1.454   9.320  20.100  0.00  0.00    +0.000 C 
BRANCH  23  24
ATOM     24  C   UNL     1       0.551   9.987  21.128  0.00  0.00    +0.000 A 
ATOM     25  C   UNL     1       0.477   9.390  22.404  0.00  0.00    +0.000 A 
ATOM     26  C   UNL     1      -0.405   9.861  23.374  0.00  0.00    +0.000 A 
ATOM     27  C   UNL     1      -1.242  10.930  23.080  0.00  0.00    +0.000 A 
ATOM     28  C   UNL     1      -1.204  11.552  21.824  0.00  0.00    +0.000 A 
ATOM     29  C   UNL     1      -2.080  12.617  21.559  0.00  0.00    +0.000 A 
ATOM     30  C   UNL     1      -2.076  13.261  20.325  0.00  0.00    +0.000 A 
ATOM     31  C   UNL     1      -1.184  12.852  19.344  0.00  0.00    +0.000 A 
ATOM     32  C   UNL     1      -0.308  11.790  19.591  0.00  0.00    +0.000 A 
ATOM     33  C   UNL     1      -0.294  11.097  20.826  0.00  0.00    +0.000 A 
ENDBRANCH  23  24
ENDBRANCH   4  23
TORSDOF 5
ENDMDL
MODEL 2
REMARK VINA RESULT:      -9.3      1.279      1.594
REMARK  Name = 
REMARK  6 active torsions:
REMARK  status: ('A' for Active; 'I' for Inactive)
REMARK    1  A    between atoms: C_1  and  C_2
REMARK    2  A    between atoms: C_5  and  C_6
REMARK    3  A    between atoms: C_13  and  C_14
REMARK    4  A    between atoms: C_14  and  N_16
REMARK    5  A    between atoms: N_19  and  C_20
REMARK    6  A    between atoms: C_20  and  C_21
REMARK                            x       y       z     vdW  Elec       q    Type
REMARK                         _______ _______ _______ _____ _____    ______ ____
ROOT
ATOM      1  N   UNL     1       2.126   6.109  19.613  0.00  0.00    +0.000 NA
ATOM      2  C   UNL     1       2.040   7.338  19.205  0.00  0.00    +0.000 C 
ATOM      3  N   UNL     1       2.281   7.777  17.941  0.00  0.00    +0.000 N 
ATOM      4  N   UNL     1       1.751   8.323  20.096  0.00  0.00    +0.000 N 
ATOM      5  H   UNL     1       2.324   7.028  17.245  0.00  0.00    +0.000 HD
ATOM      6  H   UNL     1       1.744   8.556  17.597  0.00  0.00    +0.000 HD
ATOM      7  H   UNL     1       1.752   8.041  21.071  0.00  0.00    +0.000 HD
ENDROOT
BRANCH   1   8
ATOM      8  C   UNL     1       2.335   5.107  18.694  0.00  0.00    +0.000 C 
ATOM      9  O   UNL     1       1.742   4.994  17.623  0.00  0.00    +0.000 OA
BRANCH   8  15
ATOM     10  C   UNL     1       1.774   2.164  20.035  0.00  0.00    +0.000 C 
ATOM     11  C   UNL     1       3.014   2.887  19.695  0.00  0.00    +0.000 A 
ATOM     12  O   UNL     1       4.172   2.273  20.043  0.00  0.00    +0.000 OA
ATOM     13  N   UNL     1       5.239   3.071  19.706  0.00  0.00    +0.000 NA
ATOM     14  C   UNL     1       4.732   4.179  19.138  0.00  0.00    +0.000 A 
ATOM     15  C   UNL     1       3.297   4.114  19.127  0.00  0.00    +0.000 A 
BRANCH  14  16
ATOM     16  C   UNL     1       5.641   5.213  18.623  0.00  0.00    +0.000 A 
ATOM     17  C   UNL     1       5.319   5.979  17.494  0.00  0.00    +0.000 A 
ATOM     18  C   UNL     1       6.199   6.955  17.012  0.00  0.00    +0.000 A 
ATOM     19  C   UNL     1       7.420   7.150  17.643  0.00  0.00    +0.000 A 
ATOM     20  F   UNL     1       8.265   8.078  17.173  0.00  0.00    +0.000 F 
ATOM     21  C   UNL     1       7.778   6.390  18.749  0.00  0.00    +0.000 A 
ATOM     22  C   UNL     1       6.891   5.427  19.239  0.00  0.00    +0.000 A 
ENDBRANCH  14  16
ENDBRANCH   8  15
ENDBRANCH   1   8
BRANCH   4  23
ATOM     23  C   UNL     1       1.186   9.630  19.825  0.00  0.00    +0.000 C 
BRANCH  23  24
ATOM     24  C   UNL     1       0.375  10.164  20.996  0.00  0.00    +0.000 A 
ATOM     25  C   UNL     1       0.374   9.398  22.182  0.00  0.00    +0.000 A 
ATOM     26  C   UNL     1      -0.426   9.747  23.268  0.00  0.00    +0.000 A 
ATOM     27  C   UNL     1      -1.254  10.859  23.183  0.00  0.00    +0.000 A 
ATOM     28  C   UNL     1      -1.287  11.646  22.023  0.00  0.00    +0.000 A 
ATOM     29  C   UNL     1      -2.152  12.752  21.969  0.00  0.00    +0.000 A 
ATOM     30  C   UNL     1      -2.217  13.559  20.837  0.00  0.00    +0.000 A 
ATOM     31  C   UNL     1      -1.407  13.274  19.748  0.00  0.00    +0.000 A 
ATOM     32  C   UNL     1      -0.543  12.174  19.785  0.00  0.00    +0.000 A 
ATOM     33  C   UNL     1      -0.461  11.319  20.909  0.00  0.00    +0.000 A 
ENDBRANCH  23  24
ENDBRANCH   4  23
TORSDOF 5
ENDMDL
MODEL 3
REMARK VINA RESULT:      -9.2      1.410      1.814
REMARK  Name = 
REMARK  6 active torsions:
REMARK  status: ('A' for Active; 'I' for Inactive)
REMARK    1  A    between atoms: C_1  and  C_2
REMARK    2  A    between atoms: C_5  and  C_6
REMARK    3  A    between atoms: C_13  and  C_14
REMARK    4  A    between atoms: C_14  and  N_16
REMARK    5  A    between atoms: N_19  and  C_20
REMARK    6  A    between atoms: C_20  and  C_21
REMARK                            x       y       z     vdW  Elec       q    Type
REMARK                         _______ _______ _______ _____ _____    ______ ____
ROOT
ATOM      1  N   UNL     1       1.773   5.809  19.177  0.00  0.00    +0.000 NA
ATOM      2  C   UNL     1       2.219   6.908  18.651  0.00  0.00    +0.000 C 
ATOM      3  N   UNL     1       3.046   6.998  17.576  0.00  0.00    +0.000 N 
ATOM      4  N   UNL     1       1.916   8.101  19.228  0.00  0.00    +0.000 N 
ATOM      5  H   UNL     1       3.130   6.128  17.044  0.00  0.00    +0.000 HD
ATOM      6  H   UNL     1       2.940   7.787  16.958  0.00  0.00    +0.000 HD
ATOM      7  H   UNL     1       1.457   8.043  20.132  0.00  0.00    +0.000 HD
ENDROOT
BRANCH   1   8
ATOM      8  C   UNL     1       2.012   4.612  18.543  0.00  0.00    +0.000 C 
ATOM      9  O   UNL     1       1.465   4.238  17.507  0.00  0.00    +0.000 OA
BRANCH   8  15
ATOM     10  C   UNL     1       1.510   2.840  21.259  0.00  0.00    +0.000 C 
ATOM     11  C   UNL     1       2.691   3.033  20.397  0.00  0.00    +0.000 A 
ATOM     12  O   UNL     1       3.830   2.422  20.806  0.00  0.00    +0.000 OA
ATOM     13  N   UNL     1       4.853   2.718  19.938  0.00  0.00    +0.000 NA
ATOM     14  C   UNL     1       4.335   3.511  18.983  0.00  0.00    +0.000 A 
ATOM     15  C   UNL     1       2.945   3.758  19.249  0.00  0.00    +0.000 A 
BRANCH  14  16
ATOM     16  C   UNL     1       5.185   3.960  17.871  0.00  0.00    +0.000 A 
ATOM     17  C   UNL     1       6.384   4.652  18.095  0.00  0.00    +0.000 A 
ATOM     18  C   UNL     1       7.178   5.078  17.024  0.00  0.00    +0.000 A 
ATOM     19  C   UNL     1       6.763   4.839  15.722  0.00  0.00    +0.000 A 
ATOM     20  F   UNL     1       7.520   5.258  14.699  0.00  0.00    +0.000 F 
ATOM     21  C   UNL     1       5.567   4.178  15.467  0.00  0.00    +0.000 A 
ATOM     22  C   UNL     1       4.782   3.738  16.538  0.00  0.00    +0.000 A 
ENDBRANCH  14  16
ENDBRANCH   8  15
ENDBRANCH   1   8
BRANCH   4  23
ATOM     23  C   UNL     1       1.913   9.413  18.611  0.00  0.00    +0.000 C 
BRANCH  23  24
ATOM     24  C   UNL     1       0.821  10.313  19.169  0.00  0.00    +0.000 A 
ATOM     25  C   UNL     1       1.092  10.976  20.385  0.00  0.00    +0.000 A 
ATOM     26  C   UNL     1       0.116  11.732  21.031  0.00  0.00    +0.000 A 
ATOM     27  C   UNL     1      -1.156  11.826  20.479  0.00  0.00    +0.000 A 
ATOM     28  C   UNL     1      -1.469  11.183  19.274  0.00  0.00    +0.000 A 
ATOM     29  C   UNL     1      -2.772  11.287  18.759  0.00  0.00    +0.000 A 
ATOM     30  C   UNL     1      -3.126  10.662  17.567  0.00  0.00    +0.000 A 
ATOM     31  C   UNL     1      -2.174   9.934  16.869  0.00  0.00    +0.000 A 
ATOM     32  C   UNL     1      -0.873   9.817  17.371  0.00  0.00    +0.000 A 
ATOM     33  C   UNL     1      -0.478  10.422  18.588  0.00  0.00    +0.000 A 
ENDBRANCH  23  24
ENDBRANCH   4  23
TORSDOF 5
ENDMDL
MODEL 4
REMARK VINA RESULT:      -9.1      0.660      1.101
REMARK  Name = 
REMARK  6 active torsions:
REMARK  status: ('A' for Active; 'I' for Inactive)
REMARK    1  A    between atoms: C_1  and  C_2
REMARK    2  A    between atoms: C_5  and  C_6
REMARK    3  A    between atoms: C_13  and  C_14
REMARK    4  A    between atoms: C_14  and  N_16
REMARK    5  A    between atoms: N_19  and  C_20
REMARK    6  A    between atoms: C_20  and  C_21
REMARK                            x       y       z     vdW  Elec       q    Type
REMARK                         _______ _______ _______ _____ _____    ______ ____
ROOT
ATOM      1  N   UNL     1       2.016   5.796  19.968  0.00  0.00    +0.000 NA
ATOM      2  C   UNL     1       2.109   7.021  19.551  0.00  0.00    +0.000 C 
ATOM      3  N   UNL     1       2.540   7.414  18.323  0.00  0.00    +0.000 N 
ATOM      4  N   UNL     1       1.823   8.044  20.400  0.00  0.00    +0.000 N 
ATOM      5  H   UNL     1       2.585   6.655  17.638  0.00  0.00    +0.000 HD
ATOM      6  H   UNL     1       2.132   8.240  17.916  0.00  0.00    +0.000 HD
ATOM      7  H   UNL     1       1.680   7.777  21.369  0.00  0.00    +0.000 HD
ENDROOT
BRANCH   1   8
ATOM      8  C   UNL     1       2.225   4.764  19.082  0.00  0.00    +0.000 C 
ATOM      9  O   UNL     1       1.668   4.644  17.993  0.00  0.00    +0.000 OA
BRANCH   8  15
ATOM     10  C   UNL     1       1.841   2.733  21.632  0.00  0.00    +0.000 C 
ATOM     11  C   UNL     1       2.935   2.921  20.660  0.00  0.00    +0.000 A 
ATOM     12  O   UNL     1       4.042   2.165  20.862  0.00  0.00    +0.000 OA
ATOM     13  N   UNL     1       4.990   2.470  19.915  0.00  0.00    +0.000 NA
ATOM     14  C   UNL     1       4.456   3.414  19.120  0.00  0.00    +0.000 A 
ATOM     15  C   UNL     1       3.136   3.751  19.575  0.00  0.00    +0.000 A 
BRANCH  14  16
ATOM     16  C   UNL     1       5.221   3.914  17.969  0.00  0.00    +0.000 A 
ATOM     17  C   UNL     1       4.790   3.707  16.651  0.00  0.00    +0.000 A 
ATOM     18  C   UNL     1       5.534   4.183  15.567  0.00  0.00    +0.000 A 
ATOM     19  C   UNL     1       6.732   4.848  15.795  0.00  0.00    +0.000 A 
ATOM     20  F   UNL     1       7.448   5.294  14.754  0.00  0.00    +0.000 F 
ATOM     21  C   UNL     1       7.199   5.047  17.088  0.00  0.00    +0.000 A 
ATOM     22  C   UNL     1       6.446   4.584  18.171  0.00  0.00    +0.000 A 
ENDBRANCH  14  16
ENDBRANCH   8  15
ENDBRANCH   1   8
BRANCH   4  23
ATOM     23  C   UNL     1       1.434   9.399  20.061  0.00  0.00    +0.000 C 
BRANCH  23  24
ATOM     24  C   UNL     1       0.619  10.059  21.163  0.00  0.00    +0.000 A 
ATOM     25  C   UNL     1       0.104   9.220  22.175  0.00  0.00    +0.000 A 
ATOM     26  C   UNL     1      -0.746   9.715  23.162  0.00  0.00    +0.000 A 
ATOM     27  C   UNL     1      -1.110  11.055  23.147  0.00  0.00    +0.000 A 
ATOM     28  C   UNL     1      -0.624  11.924  22.160  0.00  0.00    +0.000 A 
ATOM     29  C   UNL     1      -1.030  13.268  22.168  0.00  0.00    +0.000 A 
ATOM     30  C   UNL     1      -0.573  14.164  21.205  0.00  0.00    +0.000 A 
ATOM     31  C   UNL     1       0.308  13.724  20.228  0.00  0.00    +0.000 A 
ATOM     32  C   UNL     1       0.719  12.387  20.204  0.00  0.00    +0.000 A 
ATOM     33  C   UNL     1       0.263  11.442  21.153  0.00  0.00    +0.000 A 
ENDBRANCH  23  24
ENDBRANCH   4  23
TORSDOF 5
ENDMDL
MODEL 5
REMARK VINA RESULT:      -9.1      2.094      2.466
REMARK  Name = 
REMARK  6 active torsions:
REMARK  status: ('A' for Active; 'I' for Inactive)
REMARK    1  A    between atoms: C_1  and  C_2
REMARK    2  A    between atoms: C_5  and  C_6
REMARK    3  A    between atoms: C_13  and  C_14
REMARK    4  A    between atoms: C_14  and  N_16
REMARK    5  A    between atoms: N_19  and  C_20
REMARK    6  A    between atoms: C_20  and  C_21
REMARK                            x       y       z     vdW  Elec       q    Type
REMARK                         _______ _______ _______ _____ _____    ______ ____
ROOT
ATOM      1  N   UNL     1       1.841   5.926  18.963  0.00  0.00    +0.000 NA
ATOM      2  C   UNL     1       2.382   6.958  18.393  0.00  0.00    +0.000 C 
ATOM      3  N   UNL     1       3.239   6.928  17.339  0.00  0.00    +0.000 N 
ATOM      4  N   UNL     1       2.154   8.200  18.897  0.00  0.00    +0.000 N 
ATOM      5  H   UNL     1       3.271   6.026  16.857  0.00  0.00    +0.000 HD
ATOM      6  H   UNL     1       3.209   7.687  16.677  0.00  0.00    +0.000 HD
ATOM      7  H   UNL     1       1.671   8.226  19.789  0.00  0.00    +0.000 HD
ENDROOT
BRANCH   1   8
ATOM      8  C   UNL     1       2.006   4.681  18.400  0.00  0.00    +0.000 C 
ATOM      9  O   UNL     1       1.407   4.268  17.410  0.00  0.00    +0.000 OA
BRANCH   8  15
ATOM     10  C   UNL     1       1.467   2.968  21.148  0.00  0.00    +0.000 C 
ATOM     11  C   UNL     1       2.656   3.132  20.290  0.00  0.00    +0.000 A 
ATOM     12  O   UNL     1       3.786   2.518  20.719  0.00  0.00    +0.000 OA
ATOM     13  N   UNL     1       4.818   2.787  19.853  0.00  0.00    +0.000 NA
ATOM     14  C   UNL     1       4.314   3.566  18.879  0.00  0.00    +0.000 A 
ATOM     15  C   UNL     1       2.925   3.832  19.130  0.00  0.00    +0.000 A 
BRANCH  14  16
ATOM     16  C   UNL     1       5.176   3.984  17.765  0.00  0.00    +0.000 A 
ATOM     17  C   UNL     1       4.823   3.741  16.429  0.00  0.00    +0.000 A 
ATOM     18  C   UNL     1       5.659   4.140  15.381  0.00  0.00    +0.000 A 
ATOM     19  C   UNL     1       6.868   4.761  15.663  0.00  0.00    +0.000 A 
ATOM     20  F   UNL     1       7.671   5.132  14.657  0.00  0.00    +0.000 F 
ATOM     21  C   UNL     1       7.258   4.994  16.976  0.00  0.00    +0.000 A 
ATOM     22  C   UNL     1       6.414   4.609  18.023  0.00  0.00    +0.000 A 
ENDBRANCH  14  16
ENDBRANCH   8  15
ENDBRANCH   1   8
BRANCH   4  23
ATOM     23  C   UNL     1       2.266   9.472  18.211  0.00  0.00    +0.000 C 
BRANCH  23  24
ATOM     24  C   UNL     1       1.006  10.314  18.344  0.00  0.00    +0.000 A 
ATOM     25  C   UNL     1      -0.228   9.665  18.123  0.00  0.00    +0.000 A 
ATOM     26  C   UNL     1      -1.428  10.375  18.112  0.00  0.00    +0.000 A 
ATOM     27  C   UNL     1      -1.413  11.751  18.306  0.00  0.00    +0.000 A 
ATOM     28  C   UNL     1      -0.211  12.436  18.527  0.00  0.00    +0.000 A 
ATOM     29  C   UNL     1      -0.237  13.829  18.700  0.00  0.00    +0.000 A 
ATOM     30  C   UNL     1       0.935  14.549  18.920  0.00  0.00    +0.000 A 
ATOM     31  C   UNL     1       2.147  13.877  18.981  0.00  0.00    +0.000 A 
ATOM     32  C   UNL     1       2.190  12.490  18.806  0.00  0.00    +0.000 A 
ATOM     33  C   UNL     1       1.024  11.725  18.562  0.00  0.00    +0.000 A 
ENDBRANCH  23  24
ENDBRANCH   4  23
TORSDOF 5
ENDMDL
MODEL 6
REMARK VINA RESULT:      -9.1      1.664      2.249
REMARK  Name = 
REMARK  6 active torsions:
REMARK  status: ('A' for Active; 'I' for Inactive)
REMARK    1  A    between atoms: C_1  and  C_2
REMARK    2  A    between atoms: C_5  and  C_6
REMARK    3  A    between atoms: C_13  and  C_14
REMARK    4  A    between atoms: C_14  and  N_16
REMARK    5  A    between atoms: N_19  and  C_20
REMARK    6  A    between atoms: C_20  and  C_21
REMARK                            x       y       z     vdW  Elec       q    Type
REMARK                         _______ _______ _______ _____ _____    ______ ____
ROOT
ATOM      1  N   UNL     1       1.880   5.913  18.939  0.00  0.00    +0.000 NA
ATOM      2  C   UNL     1       2.395   6.945  18.343  0.00  0.00    +0.000 C 
ATOM      3  N   UNL     1       3.228   6.912  17.270  0.00  0.00    +0.000 N 
ATOM      4  N   UNL     1       2.163   8.190  18.837  0.00  0.00    +0.000 N 
ATOM      5  H   UNL     1       3.261   6.004  16.799  0.00  0.00    +0.000 HD
ATOM      6  H   UNL     1       3.173   7.662  16.600  0.00  0.00    +0.000 HD
ATOM      7  H   UNL     1       1.699   8.221  19.739  0.00  0.00    +0.000 HD
ENDROOT
BRANCH   1   8
ATOM      8  C   UNL     1       2.049   4.663  18.388  0.00  0.00    +0.000 C 
ATOM      9  O   UNL     1       1.456   4.242  17.397  0.00  0.00    +0.000 OA
BRANCH   8  15
ATOM     10  C   UNL     1       1.485   2.963  21.139  0.00  0.00    +0.000 C 
ATOM     11  C   UNL     1       2.682   3.126  20.293  0.00  0.00    +0.000 A 
ATOM     12  O   UNL     1       3.809   2.516  20.737  0.00  0.00    +0.000 OA
ATOM     13  N   UNL     1       4.849   2.783  19.880  0.00  0.00    +0.000 NA
ATOM     14  C   UNL     1       4.354   3.556  18.897  0.00  0.00    +0.000 A 
ATOM     15  C   UNL     1       2.962   3.820  19.132  0.00  0.00    +0.000 A 
BRANCH  14  16
ATOM     16  C   UNL     1       5.227   3.970  17.789  0.00  0.00    +0.000 A 
ATOM     17  C   UNL     1       6.426   4.660  18.016  0.00  0.00    +0.000 A 
ATOM     18  C   UNL     1       7.242   5.054  16.950  0.00  0.00    +0.000 A 
ATOM     19  C   UNL     1       6.849   4.782  15.646  0.00  0.00    +0.000 A 
ATOM     20  F   UNL     1       7.627   5.170  14.627  0.00  0.00    +0.000 F 
ATOM     21  C   UNL     1       5.654   4.123  15.388  0.00  0.00    +0.000 A 
ATOM     22  C   UNL     1       4.847   3.716  16.455  0.00  0.00    +0.000 A 
ENDBRANCH  14  16
ENDBRANCH   8  15
ENDBRANCH   1   8
BRANCH   4  23
ATOM     23  C   UNL     1       2.242   9.455  18.132  0.00  0.00    +0.000 C 
BRANCH  23  24
ATOM     24  C   UNL     1       1.206  10.456  18.622  0.00  0.00    +0.000 A 
ATOM     25  C   UNL     1      -0.058   9.947  18.990  0.00  0.00    +0.000 A 
ATOM     26  C   UNL     1      -1.105  10.795  19.343  0.00  0.00    +0.000 A 
ATOM     27  C   UNL     1      -0.913  12.171  19.318  0.00  0.00    +0.000 A 
ATOM     28  C   UNL     1       0.325  12.720  18.957  0.00  0.00    +0.000 A 
ATOM     29  C   UNL     1       0.474  14.116  18.926  0.00  0.00    +0.000 A 
ATOM     30  C   UNL     1       1.685  14.703  18.571  0.00  0.00    +0.000 A 
ATOM     31  C   UNL     1       2.767  13.895  18.253  0.00  0.00    +0.000 A 
ATOM     32  C   UNL     1       2.634  12.503  18.275  0.00  0.00    +0.000 A 
ATOM     33  C   UNL     1       1.415  11.868  18.612  0.00  0.00    +0.000 A 
ENDBRANCH  23  24
ENDBRANCH   4  23
TORSDOF 5
ENDMDL
MODEL 7
REMARK VINA RESULT:      -9.0      2.073      2.636
REMARK  Name = 
REMARK  6 active torsions:
REMARK  status: ('A' for Active; 'I' for Inactive)
REMARK    1  A    between atoms: C_1  and  C_2
REMARK    2  A    between atoms: C_5  and  C_6
REMARK    3  A    between atoms: C_13  and  C_14
REMARK    4  A    between atoms: C_14  and  N_16
REMARK    5  A    between atoms: N_19  and  C_20
REMARK    6  A    between atoms: C_20  and  C_21
REMARK                            x       y       z     vdW  Elec       q    Type
REMARK                         _______ _______ _______ _____ _____    ______ ____
ROOT
ATOM      1  N   UNL     1       2.558   6.520  19.570  0.00  0.00    +0.000 NA
ATOM      2  C   UNL     1       2.540   7.538  18.765  0.00  0.00    +0.000 C 
ATOM      3  N   UNL     1       3.472   7.823  17.818  0.00  0.00    +0.000 N 
ATOM      4  N   UNL     1       1.556   8.469  18.883  0.00  0.00    +0.000 N 
ATOM      5  H   UNL     1       4.104   7.045  17.614  0.00  0.00    +0.000 HD
ATOM      6  H   UNL     1       3.168   8.271  16.969  0.00  0.00    +0.000 HD
ATOM      7  H   UNL     1       0.960   8.372  19.700  0.00  0.00    +0.000 HD
ENDROOT
BRANCH   1   8
ATOM      8  C   UNL     1       3.506   5.538  19.393  0.00  0.00    +0.000 C 
ATOM      9  O   UNL     1       4.681   5.619  19.744  0.00  0.00    +0.000 OA
BRANCH   8  15
ATOM     10  C   UNL     1       0.894   3.667  20.060  0.00  0.00    +0.000 C 
ATOM     11  C   UNL     1       1.913   3.617  18.993  0.00  0.00    +0.000 A 
ATOM     12  O   UNL     1       1.820   2.573  18.134  0.00  0.00    +0.000 OA
ATOM     13  N   UNL     1       2.848   2.629  17.224  0.00  0.00    +0.000 NA
ATOM     14  C   UNL     1       3.572   3.722  17.522  0.00  0.00    +0.000 A 
ATOM     15  C   UNL     1       3.017   4.382  18.671  0.00  0.00    +0.000 A 
BRANCH  14  16
ATOM     16  C   UNL     1       4.725   4.081  16.685  0.00  0.00    +0.000 A 
ATOM     17  C   UNL     1       6.020   4.176  17.216  0.00  0.00    +0.000 A 
ATOM     18  C   UNL     1       7.105   4.525  16.406  0.00  0.00    +0.000 A 
ATOM     19  C   UNL     1       6.898   4.809  15.063  0.00  0.00    +0.000 A 
ATOM     20  F   UNL     1       7.938   5.154  14.292  0.00  0.00    +0.000 F 
ATOM     21  C   UNL     1       5.624   4.749  14.512  0.00  0.00    +0.000 A 
ATOM     22  C   UNL     1       4.542   4.384  15.319  0.00  0.00    +0.000 A 
ENDBRANCH  14  16
ENDBRANCH   8  15
ENDBRANCH   1   8
BRANCH   4  23
ATOM     23  C   UNL     1       1.084   9.397  17.874  0.00  0.00    +0.000 C 
BRANCH  23  24
ATOM     24  C   UNL     1       0.113  10.423  18.440  0.00  0.00    +0.000 A 
ATOM     25  C   UNL     1       0.569  11.218  19.513  0.00  0.00    +0.000 A 
ATOM     26  C   UNL     1      -0.283  12.105  20.170  0.00  0.00    +0.000 A 
ATOM     27  C   UNL     1      -1.611  12.201  19.775  0.00  0.00    +0.000 A 
ATOM     28  C   UNL     1      -2.107  11.428  18.715  0.00  0.00    +0.000 A 
ATOM     29  C   UNL     1      -3.461  11.540  18.359  0.00  0.00    +0.000 A 
ATOM     30  C   UNL     1      -3.994  10.790  17.315  0.00  0.00    +0.000 A 
ATOM     31  C   UNL     1      -3.172   9.926  16.606  0.00  0.00    +0.000 A 
ATOM     32  C   UNL     1      -1.823   9.800  16.952  0.00  0.00    +0.000 A 
ATOM     33  C   UNL     1      -1.247  10.530  18.018  0.00  0.00    +0.000 A 
ENDBRANCH  23  24
ENDBRANCH   4  23
TORSDOF 5
ENDMDL
MODEL 8
REMARK VINA RESULT:      -9.0      0.753      2.077
REMARK  Name = 
REMARK  6 active torsions:
REMARK  status: ('A' for Active; 'I' for Inactive)
REMARK    1  A    between atoms: C_1  and  C_2
REMARK    2  A    between atoms: C_5  and  C_6
REMARK    3  A    between atoms: C_13  and  C_14
REMARK    4  A    between atoms: C_14  and  N_16
REMARK    5  A    between atoms: N_19  and  C_20
REMARK    6  A    between atoms: C_20  and  C_21
REMARK                            x       y       z     vdW  Elec       q    Type
REMARK                         _______ _______ _______ _____ _____    ______ ____
ROOT
ATOM      1  N   UNL     1       1.777   5.624  19.235  0.00  0.00    +0.000 NA
ATOM      2  C   UNL     1       2.269   6.747  18.808  0.00  0.00    +0.000 C 
ATOM      3  N   UNL     1       3.182   6.887  17.811  0.00  0.00    +0.000 N 
ATOM      4  N   UNL     1       1.922   7.909  19.421  0.00  0.00    +0.000 N 
ATOM      5  H   UNL     1       3.307   6.046  17.242  0.00  0.00    +0.000 HD
ATOM      6  H   UNL     1       3.131   7.709  17.230  0.00  0.00    +0.000 HD
ATOM      7  H   UNL     1       1.390   7.806  20.279  0.00  0.00    +0.000 HD
ENDROOT
BRANCH   1   8
ATOM      8  C   UNL     1       2.065   4.461  18.559  0.00  0.00    +0.000 C 
ATOM      9  O   UNL     1       1.539   4.106  17.506  0.00  0.00    +0.000 OA
BRANCH   8  15
ATOM     10  C   UNL     1       1.626   2.622  21.242  0.00  0.00    +0.000 C 
ATOM     11  C   UNL     1       2.796   2.862  20.376  0.00  0.00    +0.000 A 
ATOM     12  O   UNL     1       3.952   2.271  20.765  0.00  0.00    +0.000 OA
ATOM     13  N   UNL     1       4.961   2.610  19.896  0.00  0.00    +0.000 NA
ATOM     14  C   UNL     1       4.417   3.409  18.961  0.00  0.00    +0.000 A 
ATOM     15  C   UNL     1       3.023   3.616  19.241  0.00  0.00    +0.000 A 
BRANCH  14  16
ATOM     16  C   UNL     1       5.247   3.901  17.853  0.00  0.00    +0.000 A 
ATOM     17  C   UNL     1       6.430   4.620  18.082  0.00  0.00    +0.000 A 
ATOM     18  C   UNL     1       7.205   5.088  17.016  0.00  0.00    +0.000 A 
ATOM     19  C   UNL     1       6.787   4.862  15.712  0.00  0.00    +0.000 A 
ATOM     20  F   UNL     1       7.527   5.320  14.693  0.00  0.00    +0.000 F 
ATOM     21  C   UNL     1       5.608   4.175  15.452  0.00  0.00    +0.000 A 
ATOM     22  C   UNL     1       4.842   3.694  16.518  0.00  0.00    +0.000 A 
ENDBRANCH  14  16
ENDBRANCH   8  15
ENDBRANCH   1   8
BRANCH   4  23
ATOM     23  C   UNL     1       1.975   9.252  18.877  0.00  0.00    +0.000 C 
BRANCH  23  24
ATOM     24  C   UNL     1       0.775  10.092  19.289  0.00  0.00    +0.000 A 
ATOM     25  C   UNL     1       0.217  10.941  18.310  0.00  0.00    +0.000 A 
ATOM     26  C   UNL     1      -0.811  11.829  18.623  0.00  0.00    +0.000 A 
ATOM     27  C   UNL     1      -1.288  11.895  19.926  0.00  0.00    +0.000 A 
ATOM     28  C   UNL     1      -0.761  11.072  20.930  0.00  0.00    +0.000 A 
ATOM     29  C   UNL     1      -1.257  11.183  22.239  0.00  0.00    +0.000 A 
ATOM     30  C   UNL     1      -0.761  10.386  23.267  0.00  0.00    +0.000 A 
ATOM     31  C   UNL     1       0.233   9.458  22.992  0.00  0.00    +0.000 A 
ATOM     32  C   UNL     1       0.741   9.339  21.693  0.00  0.00    +0.000 A 
ATOM     33  C   UNL     1       0.276  10.143  20.626  0.00  0.00    +0.000 A 
ENDBRANCH  23  24
ENDBRANCH   4  23
TORSDOF 5
ENDMDL
MODEL 9
REMARK VINA RESULT:      -8.9      1.063      2.107
REMARK  Name = 
REMARK  6 active torsions:
REMARK  status: ('A' for Active; 'I' for Inactive)
REMARK    1  A    between atoms: C_1  and  C_2
REMARK    2  A    between atoms: C_5  and  C_6
REMARK    3  A    between atoms: C_13  and  C_14
REMARK    4  A    between atoms: C_14  and  N_16
REMARK    5  A    between atoms: N_19  and  C_20
REMARK    6  A    between atoms: C_20  and  C_21
REMARK                            x       y       z     vdW  Elec       q    Type
REMARK                         _______ _______ _______ _____ _____    ______ ____
ROOT
ATOM      1  N   UNL     1       1.780   5.842  19.551  0.00  0.00    +0.000 NA
ATOM      2  C   UNL     1       2.180   6.980  19.070  0.00  0.00    +0.000 C 
ATOM      3  N   UNL     1       2.949   7.150  17.963  0.00  0.00    +0.000 N 
ATOM      4  N   UNL     1       1.885   8.130  19.732  0.00  0.00    +0.000 N 
ATOM      5  H   UNL     1       3.022   6.315  17.377  0.00  0.00    +0.000 HD
ATOM      6  H   UNL     1       2.799   7.971  17.399  0.00  0.00    +0.000 HD
ATOM      7  H   UNL     1       1.473   8.009  20.652  0.00  0.00    +0.000 HD
ENDROOT
BRANCH   1   8
ATOM      8  C   UNL     1       2.008   4.690  18.834  0.00  0.00    +0.000 C 
ATOM      9  O   UNL     1       1.453   4.391  17.779  0.00  0.00    +0.000 OA
BRANCH   8  15
ATOM     10  C   UNL     1       1.570   2.882  21.539  0.00  0.00    +0.000 C 
ATOM     11  C   UNL     1       2.714   3.046  20.620  0.00  0.00    +0.000 A 
ATOM     12  O   UNL     1       3.845   2.380  20.959  0.00  0.00    +0.000 OA
ATOM     13  N   UNL     1       4.835   2.653  20.045  0.00  0.00    +0.000 NA
ATOM     14  C   UNL     1       4.302   3.486  19.134  0.00  0.00    +0.000 A 
ATOM     15  C   UNL     1       2.939   3.784  19.475  0.00  0.00    +0.000 A 
BRANCH  14  16
ATOM     16  C   UNL     1       5.113   3.924  17.989  0.00  0.00    +0.000 A 
ATOM     17  C   UNL     1       4.741   3.633  16.669  0.00  0.00    +0.000 A 
ATOM     18  C   UNL     1       5.528   4.051  15.590  0.00  0.00    +0.000 A 
ATOM     19  C   UNL     1       6.708   4.741  15.828  0.00  0.00    +0.000 A 
ATOM     20  F   UNL     1       7.465   5.131  14.794  0.00  0.00    +0.000 F 
ATOM     21  C   UNL     1       7.118   5.024  17.125  0.00  0.00    +0.000 A 
ATOM     22  C   UNL     1       6.322   4.619  18.202  0.00  0.00    +0.000 A 
ENDBRANCH  14  16
ENDBRANCH   8  15
ENDBRANCH   1   8
BRANCH   4  23
ATOM     23  C   UNL     1       1.828   9.475  19.195  0.00  0.00    +0.000 C 
BRANCH  23  24
ATOM     24  C   UNL     1       0.400   9.958  18.993  0.00  0.00    +0.000 A 
ATOM     25  C   UNL     1      -0.242   9.585  17.792  0.00  0.00    +0.000 A 
ATOM     26  C   UNL     1      -1.507  10.070  17.466  0.00  0.00    +0.000 A 
ATOM     27  C   UNL     1      -2.148  10.951  18.328  0.00  0.00    +0.000 A 
ATOM     28  C   UNL     1      -1.546  11.351  19.530  0.00  0.00    +0.000 A 
ATOM     29  C   UNL     1      -2.218  12.258  20.365  0.00  0.00    +0.000 A 
ATOM     30  C   UNL     1      -1.656  12.682  21.566  0.00  0.00    +0.000 A 
ATOM     31  C   UNL     1      -0.417  12.191  21.950  0.00  0.00    +0.000 A 
ATOM     32  C   UNL     1       0.267  11.290  21.127  0.00  0.00    +0.000 A 
ATOM     33  C   UNL     1      -0.262  10.849  19.890  0.00  0.00    +0.000 A 
ENDBRANCH  23  24
ENDBRANCH   4  23
TORSDOF 5
ENDMDL
