MODEL 1
REMARK VINA RESULT:      -6.0      0.000      0.000
REMARK  Name = 
REMARK  9 active torsions:
REMARK  status: ('A' for Active; 'I' for Inactive)
REMARK    1  A    between atoms: C_1  and  C_2
REMARK    2  A    between atoms: C_4  and  N_5
REMARK    3  A    between atoms: N_8  and  CA_9
REMARK    4  A    between atoms: CA_9  and  CB_10
REMARK    5  A    between atoms: CA_9  and  C_11
REMARK    6  A    between atoms: C_11  and  O_12
REMARK    7  A    between atoms: C_15  and  N_16
REMARK    8  A    between atoms: N_16  and  C_17
REMARK    9  A    between atoms: N_16  and  C_18
REMARK                            x       y       z     vdW  Elec       q    Type
REMARK                         _______ _______ _______ _____ _____    ______ ____
ROOT
ATOM      1  N   UNK A   0       5.663   3.506  16.180  0.00  0.00    +0.000 N 
ATOM      2  C   UNK A   0       5.691   4.152  14.957  0.00  0.00    +0.000 C 
ATOM      3  O   UNK A   0       4.961   5.074  14.622  0.00  0.00    +0.000 OA
ATOM      4  N   ALA A   1       6.660   3.674  14.107  0.00  0.00    +0.000 N 
ATOM      5  H   UNK A   0       6.151   2.622  16.247  0.00  0.00    +0.000 HD
ATOM      6  H   ALA A   1       7.153   2.825  14.338  0.00  0.00    +0.000 HD
ENDROOT
BRANCH   1  10
ATOM      7  C   UNK A   0       1.249   3.158  18.303  0.00  0.00    +0.000 C 
ATOM      8  C   UNK A   0       2.634   3.742  18.410  0.00  0.00    +0.000 A 
ATOM      9  C   UNK A   0       3.469   3.485  17.296  0.00  0.00    +0.000 A 
ATOM     10  C   UNK A   0       4.811   3.850  17.253  0.00  0.00    +0.000 A 
ATOM     11  C   UNK A   0       5.314   4.571  18.323  0.00  0.00    +0.000 A 
ATOM     12  C   UNK A   0       4.490   4.857  19.429  0.00  0.00    +0.000 A 
ATOM     13  C   UNK A   0       3.140   4.441  19.528  0.00  0.00    +0.000 A 
BRANCH  13  14
ATOM     14  N   UNK A   0       2.419   4.683  20.691  0.00  0.00    +0.000 N 
ATOM     15  C   UNK A   0       1.629   5.900  20.863  0.00  0.00    +0.000 C 
ATOM     16  C   UNK A   0       2.165   3.668  21.707  0.00  0.00    +0.000 C 
ENDBRANCH  13  14
ENDBRANCH   1  10
BRANCH   4  17
ATOM     17  CA  ALA A   1       6.821   4.218  12.750  0.00  0.00    +0.000 C 
ATOM     18  CB  ALA A   1       7.938   5.260  12.674  0.00  0.00    +0.000 C 
BRANCH  17  19
ATOM     19  C   ALA A   1       7.020   3.113  11.692  0.00  0.00    +0.000 C 
BRANCH  19  20
ATOM     20  O   ALA A   1       5.988   2.133  11.817  0.00  0.00    +0.000 OA
ATOM     21  H   ALA A   1       5.187   2.631  12.062  0.00  0.00    +0.000 HD
ENDBRANCH  19  20
ENDBRANCH  17  19
ENDBRANCH   4  17
TORSDOF 5
ENDMDL
MODEL 2
REMARK VINA RESULT:      -5.9      4.681      6.810
REMARK  Name = 
REMARK  9 active torsions:
REMARK  status: ('A' for Active; 'I' for Inactive)
REMARK    1  A    between atoms: C_1  and  C_2
REMARK    2  A    between atoms: C_4  and  N_5
REMARK    3  A    between atoms: N_8  and  CA_9
REMARK    4  A    between atoms: CA_9  and  CB_10
REMARK    5  A    between atoms: CA_9  and  C_11
REMARK    6  A    between atoms: C_11  and  O_12
REMARK    7  A    between atoms: C_15  and  N_16
REMARK    8  A    between atoms: N_16  and  C_17
REMARK    9  A    between atoms: N_16  and  C_18
REMARK                            x       y       z     vdW  Elec       q    Type
REMARK                         _______ _______ _______ _____ _____    ______ ____
ROOT
ATOM      1  N   UNK A   0       3.115   6.358  19.568  0.00  0.00    +0.000 N 
ATOM      2  C   UNK A   0       2.670   5.048  19.600  0.00  0.00    +0.000 C 
ATOM      3  O   UNK A   0       1.499   4.694  19.587  0.00  0.00    +0.000 OA
ATOM      4  N   ALA A   1       3.687   4.124  19.628  0.00  0.00    +0.000 N 
ATOM      5  H   UNK A   0       4.082   6.524  19.814  0.00  0.00    +0.000 HD
ATOM      6  H   ALA A   1       4.635   4.430  19.784  0.00  0.00    +0.000 HD
ENDROOT
BRANCH   1  10
ATOM      7  C   UNK A   0       0.211   9.636  21.790  0.00  0.00    +0.000 C 
ATOM      8  C   UNK A   0       0.802   9.191  20.477  0.00  0.00    +0.000 A 
ATOM      9  C   UNK A   0       1.566   8.002  20.548  0.00  0.00    +0.000 A 
ATOM     10  C   UNK A   0       2.277   7.491  19.466  0.00  0.00    +0.000 A 
ATOM     11  C   UNK A   0       2.151   8.143  18.250  0.00  0.00    +0.000 A 
ATOM     12  C   UNK A   0       1.374   9.314  18.157  0.00  0.00    +0.000 A 
ATOM     13  C   UNK A   0       0.694   9.893  19.256  0.00  0.00    +0.000 A 
BRANCH  13  14
ATOM     14  N   UNK A   0       0.024  11.100  19.104  0.00  0.00    +0.000 N 
ATOM     15  C   UNK A   0      -1.419  11.151  18.872  0.00  0.00    +0.000 C 
ATOM     16  C   UNK A   0       0.614  12.396  19.419  0.00  0.00    +0.000 C 
ENDBRANCH  13  14
ENDBRANCH   1  10
BRANCH   4  17
ATOM     17  CA  ALA A   1       3.407   2.682  19.695  0.00  0.00    +0.000 C 
ATOM     18  CB  ALA A   1       3.535   2.005  18.330  0.00  0.00    +0.000 C 
BRANCH  17  19
ATOM     19  C   ALA A   1       4.267   1.963  20.754  0.00  0.00    +0.000 C 
BRANCH  19  20
ATOM     20  O   ALA A   1       5.333   1.259  20.115  0.00  0.00    +0.000 OA
ATOM     21  H   ALA A   1       5.507   1.748  19.290  0.00  0.00    +0.000 HD
ENDBRANCH  19  20
ENDBRANCH  17  19
ENDBRANCH   4  17
TORSDOF 5
ENDMDL
MODEL 3
REMARK VINA RESULT:      -5.9      5.253      7.646
REMARK  Name = 
REMARK  9 active torsions:
REMARK  status: ('A' for Active; 'I' for Inactive)
REMARK    1  A    between atoms: C_1  and  C_2
REMARK    2  A    between atoms: C_4  and  N_5
REMARK    3  A    between atoms: N_8  and  CA_9
REMARK    4  A    between atoms: CA_9  and  CB_10
REMARK    5  A    between atoms: CA_9  and  C_11
REMARK    6  A    between atoms: C_11  and  O_12
REMARK    7  A    between atoms: C_15  and  N_16
REMARK    8  A    between atoms: N_16  and  C_17
REMARK    9  A    between atoms: N_16  and  C_18
REMARK                            x       y       z     vdW  Elec       q    Type
REMARK                         _______ _______ _______ _____ _____    ______ ____
ROOT
ATOM      1  N   UNK A   0       2.576   6.664  20.141  0.00  0.00    +0.000 N 
ATOM      2  C   UNK A   0       2.088   5.372  20.235  0.00  0.00    +0.000 C 
ATOM      3  O   UNK A   0       0.929   5.065  20.476  0.00  0.00    +0.000 OA
ATOM      4  N   ALA A   1       3.041   4.408  20.008  0.00  0.00    +0.000 N 
ATOM      5  H   UNK A   0       3.581   6.781  20.168  0.00  0.00    +0.000 HD
ATOM      6  H   ALA A   1       4.014   4.670  19.956  0.00  0.00    +0.000 HD
ENDROOT
BRANCH   1  10
ATOM      7  C   UNK A   0      -0.084   9.649  22.991  0.00  0.00    +0.000 C 
ATOM      8  C   UNK A   0       0.438   9.402  21.598  0.00  0.00    +0.000 A 
ATOM      9  C   UNK A   0       1.145   8.186  21.441  0.00  0.00    +0.000 A 
ATOM     10  C   UNK A   0       1.792   7.832  20.261  0.00  0.00    +0.000 A 
ATOM     11  C   UNK A   0       1.654   8.680  19.174  0.00  0.00    +0.000 A 
ATOM     12  C   UNK A   0       0.933   9.882  19.307  0.00  0.00    +0.000 A 
ATOM     13  C   UNK A   0       0.321  10.300  20.514  0.00  0.00    +0.000 A 
BRANCH  13  14
ATOM     14  N   UNK A   0      -0.295  11.542  20.590  0.00  0.00    +0.000 N 
ATOM     15  C   UNK A   0       0.445  12.742  20.978  0.00  0.00    +0.000 C 
ATOM     16  C   UNK A   0      -1.622  11.819  20.051  0.00  0.00    +0.000 C 
ENDBRANCH  13  14
ENDBRANCH   1  10
BRANCH   4  17
ATOM     17  CA  ALA A   1       2.715   2.976  20.096  0.00  0.00    +0.000 C 
ATOM     18  CB  ALA A   1       3.565   2.131  19.147  0.00  0.00    +0.000 C 
BRANCH  17  19
ATOM     19  C   ALA A   1       2.797   2.442  21.540  0.00  0.00    +0.000 C 
BRANCH  19  20
ATOM     20  O   ALA A   1       1.524   2.568  22.176  0.00  0.00    +0.000 OA
ATOM     21  H   ALA A   1       1.315   1.679  22.515  0.00  0.00    +0.000 HD
ENDBRANCH  19  20
ENDBRANCH  17  19
ENDBRANCH   4  17
TORSDOF 5
ENDMDL
MODEL 4
REMARK VINA RESULT:      -5.8      4.694      7.339
REMARK  Name = 
REMARK  9 active torsions:
REMARK  status: ('A' for Active; 'I' for Inactive)
REMARK    1  A    between atoms: C_1  and  C_2
REMARK    2  A    between atoms: C_4  and  N_5
REMARK    3  A    between atoms: N_8  and  CA_9
REMARK    4  A    between atoms: CA_9  and  CB_10
REMARK    5  A    between atoms: CA_9  and  C_11
REMARK    6  A    between atoms: C_11  and  O_12
REMARK    7  A    between atoms: C_15  and  N_16
REMARK    8  A    between atoms: N_16  and  C_17
REMARK    9  A    between atoms: N_16  and  C_18
REMARK                            x       y       z     vdW  Elec       q    Type
REMARK                         _______ _______ _______ _____ _____    ______ ____
ROOT
ATOM      1  N   UNK A   0       1.736   8.146  20.202  0.00  0.00    +0.000 N 
ATOM      2  C   UNK A   0       1.411   9.082  19.236  0.00  0.00    +0.000 C 
ATOM      3  O   UNK A   0       1.491   8.913  18.027  0.00  0.00    +0.000 OA
ATOM      4  N   ALA A   1       0.951  10.268  19.754  0.00  0.00    +0.000 N 
ATOM      5  H   UNK A   0       1.846   8.480  21.151  0.00  0.00    +0.000 HD
ATOM      6  H   ALA A   1       1.028  10.444  20.745  0.00  0.00    +0.000 HD
ENDROOT
BRANCH   1  10
ATOM      7  C   UNK A   0       1.229   3.328  21.007  0.00  0.00    +0.000 C 
ATOM      8  C   UNK A   0       1.998   4.387  20.260  0.00  0.00    +0.000 A 
ATOM      9  C   UNK A   0       1.644   5.717  20.591  0.00  0.00    +0.000 A 
ATOM     10  C   UNK A   0       2.165   6.827  19.934  0.00  0.00    +0.000 A 
ATOM     11  C   UNK A   0       3.138   6.605  18.973  0.00  0.00    +0.000 A 
ATOM     12  C   UNK A   0       3.521   5.289  18.649  0.00  0.00    +0.000 A 
ATOM     13  C   UNK A   0       2.959   4.139  19.254  0.00  0.00    +0.000 A 
BRANCH  13  14
ATOM     14  N   UNK A   0       3.323   2.872  18.816  0.00  0.00    +0.000 N 
ATOM     15  C   UNK A   0       4.287   2.055  19.550  0.00  0.00    +0.000 C 
ATOM     16  C   UNK A   0       2.609   2.143  17.773  0.00  0.00    +0.000 C 
ENDBRANCH  13  14
ENDBRANCH   1  10
BRANCH   4  17
ATOM     17  CA  ALA A   1       0.586  11.393  18.880  0.00  0.00    +0.000 C 
ATOM     18  CB  ALA A   1      -0.631  12.159  19.401  0.00  0.00    +0.000 C 
BRANCH  17  19
ATOM     19  C   ALA A   1       1.771  12.345  18.619  0.00  0.00    +0.000 C 
BRANCH  19  20
ATOM     20  O   ALA A   1       2.486  11.921  17.457  0.00  0.00    +0.000 OA
ATOM     21  H   ALA A   1       2.823  11.032  17.671  0.00  0.00    +0.000 HD
ENDBRANCH  19  20
ENDBRANCH  17  19
ENDBRANCH   4  17
TORSDOF 5
ENDMDL
MODEL 5
REMARK VINA RESULT:      -5.8      4.064      6.514
REMARK  Name = 
REMARK  9 active torsions:
REMARK  status: ('A' for Active; 'I' for Inactive)
REMARK    1  A    between atoms: C_1  and  C_2
REMARK    2  A    between atoms: C_4  and  N_5
REMARK    3  A    between atoms: N_8  and  CA_9
REMARK    4  A    between atoms: CA_9  and  CB_10
REMARK    5  A    between atoms: CA_9  and  C_11
REMARK    6  A    between atoms: C_11  and  O_12
REMARK    7  A    between atoms: C_15  and  N_16
REMARK    8  A    between atoms: N_16  and  C_17
REMARK    9  A    between atoms: N_16  and  C_18
REMARK                            x       y       z     vdW  Elec       q    Type
REMARK                         _______ _______ _______ _____ _____    ______ ____
ROOT
ATOM      1  N   UNK A   0       2.771   6.444  19.940  0.00  0.00    +0.000 N 
ATOM      2  C   UNK A   0       2.643   5.434  19.003  0.00  0.00    +0.000 C 
ATOM      3  O   UNK A   0       1.792   5.379  18.127  0.00  0.00    +0.000 OA
ATOM      4  N   ALA A   1       3.602   4.455  19.119  0.00  0.00    +0.000 N 
ATOM      5  H   UNK A   0       3.360   6.260  20.742  0.00  0.00    +0.000 HD
ATOM      6  H   ALA A   1       4.203   4.438  19.929  0.00  0.00    +0.000 HD
ENDROOT
BRANCH   1  10
ATOM      7  C   UNK A   0      -0.255   9.321  22.526  0.00  0.00    +0.000 C 
ATOM      8  C   UNK A   0       0.432   9.117  21.199  0.00  0.00    +0.000 A 
ATOM      9  C   UNK A   0       1.171   7.915  21.098  0.00  0.00    +0.000 A 
ATOM     10  C   UNK A   0       1.958   7.599  19.995  0.00  0.00    +0.000 A 
ATOM     11  C   UNK A   0       1.937   8.473  18.920  0.00  0.00    +0.000 A 
ATOM     12  C   UNK A   0       1.186   9.662  18.995  0.00  0.00    +0.000 A 
ATOM     13  C   UNK A   0       0.429  10.040  20.130  0.00  0.00    +0.000 A 
BRANCH  13  14
ATOM     14  N   UNK A   0      -0.211  11.272  20.163  0.00  0.00    +0.000 N 
ATOM     15  C   UNK A   0       0.483  12.486  20.588  0.00  0.00    +0.000 C 
ATOM     16  C   UNK A   0      -1.508  11.524  19.544  0.00  0.00    +0.000 C 
ENDBRANCH  13  14
ENDBRANCH   1  10
BRANCH   4  17
ATOM     17  CA  ALA A   1       3.608   3.285  18.228  0.00  0.00    +0.000 C 
ATOM     18  CB  ALA A   1       4.582   3.453  17.062  0.00  0.00    +0.000 C 
BRANCH  17  19
ATOM     19  C   ALA A   1       3.873   1.969  18.988  0.00  0.00    +0.000 C 
BRANCH  19  20
ATOM     20  O   ALA A   1       5.058   2.096  19.777  0.00  0.00    +0.000 OA
ATOM     21  H   ALA A   1       5.324   1.183  19.990  0.00  0.00    +0.000 HD
ENDBRANCH  19  20
ENDBRANCH  17  19
ENDBRANCH   4  17
TORSDOF 5
ENDMDL
MODEL 6
REMARK VINA RESULT:      -5.8      4.989      7.250
REMARK  Name = 
REMARK  9 active torsions:
REMARK  status: ('A' for Active; 'I' for Inactive)
REMARK    1  A    between atoms: C_1  and  C_2
REMARK    2  A    between atoms: C_4  and  N_5
REMARK    3  A    between atoms: N_8  and  CA_9
REMARK    4  A    between atoms: CA_9  and  CB_10
REMARK    5  A    between atoms: CA_9  and  C_11
REMARK    6  A    between atoms: C_11  and  O_12
REMARK    7  A    between atoms: C_15  and  N_16
REMARK    8  A    between atoms: N_16  and  C_17
REMARK    9  A    between atoms: N_16  and  C_18
REMARK                            x       y       z     vdW  Elec       q    Type
REMARK                         _______ _______ _______ _____ _____    ______ ____
ROOT
ATOM      1  N   UNK A   0       2.666   6.690  19.944  0.00  0.00    +0.000 N 
ATOM      2  C   UNK A   0       2.244   5.392  20.171  0.00  0.00    +0.000 C 
ATOM      3  O   UNK A   0       1.141   5.064  20.588  0.00  0.00    +0.000 OA
ATOM      4  N   ALA A   1       3.191   4.445  19.860  0.00  0.00    +0.000 N 
ATOM      5  H   UNK A   0       3.659   6.839  19.823  0.00  0.00    +0.000 HD
ATOM      6  H   ALA A   1       4.136   4.733  19.658  0.00  0.00    +0.000 HD
ENDROOT
BRANCH   1  10
ATOM      7  C   UNK A   0       0.044   9.560  22.945  0.00  0.00    +0.000 C 
ATOM      8  C   UNK A   0       0.524   9.354  21.531  0.00  0.00    +0.000 A 
ATOM      9  C   UNK A   0       1.249   8.156  21.324  0.00  0.00    +0.000 A 
ATOM     10  C   UNK A   0       1.862   7.839  20.116  0.00  0.00    +0.000 A 
ATOM     11  C   UNK A   0       1.672   8.708  19.053  0.00  0.00    +0.000 A 
ATOM     12  C   UNK A   0       0.932   9.892  19.236  0.00  0.00    +0.000 A 
ATOM     13  C   UNK A   0       0.353  10.271  20.471  0.00  0.00    +0.000 A 
BRANCH  13  14
ATOM     14  N   UNK A   0      -0.285  11.499  20.594  0.00  0.00    +0.000 N 
ATOM     15  C   UNK A   0       0.429  12.691  21.049  0.00  0.00    +0.000 C 
ATOM     16  C   UNK A   0      -1.608  11.780  20.048  0.00  0.00    +0.000 C 
ENDBRANCH  13  14
ENDBRANCH   1  10
BRANCH   4  17
ATOM     17  CA  ALA A   1       2.933   3.012  20.065  0.00  0.00    +0.000 C 
ATOM     18  CB  ALA A   1       2.265   2.367  18.850  0.00  0.00    +0.000 C 
BRANCH  17  19
ATOM     19  C   ALA A   1       4.203   2.239  20.477  0.00  0.00    +0.000 C 
BRANCH  19  20
ATOM     20  O   ALA A   1       5.255   2.506  19.547  0.00  0.00    +0.000 OA
ATOM     21  H   ALA A   1       6.062   2.583  20.087  0.00  0.00    +0.000 HD
ENDBRANCH  19  20
ENDBRANCH  17  19
ENDBRANCH   4  17
TORSDOF 5
ENDMDL
MODEL 7
REMARK VINA RESULT:      -5.8      4.257      7.403
REMARK  Name = 
REMARK  9 active torsions:
REMARK  status: ('A' for Active; 'I' for Inactive)
REMARK    1  A    between atoms: C_1  and  C_2
REMARK    2  A    between atoms: C_4  and  N_5
REMARK    3  A    between atoms: N_8  and  CA_9
REMARK    4  A    between atoms: CA_9  and  CB_10
REMARK    5  A    between atoms: CA_9  and  C_11
REMARK    6  A    between atoms: C_11  and  O_12
REMARK    7  A    between atoms: C_15  and  N_16
REMARK    8  A    between atoms: N_16  and  C_17
REMARK    9  A    between atoms: N_16  and  C_18
REMARK                            x       y       z     vdW  Elec       q    Type
REMARK                         _______ _______ _______ _____ _____    ______ ____
ROOT
ATOM      1  N   UNK A   0       1.810   8.206  20.043  0.00  0.00    +0.000 N 
ATOM      2  C   UNK A   0       1.423   9.171  19.130  0.00  0.00    +0.000 C 
ATOM      3  O   UNK A   0       1.400   9.033  17.915  0.00  0.00    +0.000 OA
ATOM      4  N   ALA A   1       1.025  10.351  19.714  0.00  0.00    +0.000 N 
ATOM      5  H   UNK A   0       2.003   8.514  20.987  0.00  0.00    +0.000 HD
ATOM      6  H   ALA A   1       1.186  10.499  20.698  0.00  0.00    +0.000 HD
ENDROOT
BRANCH   1  10
ATOM      7  C   UNK A   0       4.464   5.212  17.196  0.00  0.00    +0.000 C 
ATOM      8  C   UNK A   0       3.486   5.292  18.340  0.00  0.00    +0.000 A 
ATOM      9  C   UNK A   0       3.018   6.597  18.624  0.00  0.00    +0.000 A 
ATOM     10  C   UNK A   0       2.195   6.889  19.708  0.00  0.00    +0.000 A 
ATOM     11  C   UNK A   0       1.755   5.828  20.483  0.00  0.00    +0.000 A 
ATOM     12  C   UNK A   0       2.191   4.520  20.198  0.00  0.00    +0.000 A 
ATOM     13  C   UNK A   0       3.081   4.203  19.143  0.00  0.00    +0.000 A 
BRANCH  13  14
ATOM     14  N   UNK A   0       3.537   2.901  18.983  0.00  0.00    +0.000 N 
ATOM     15  C   UNK A   0       4.408   2.267  19.971  0.00  0.00    +0.000 C 
ATOM     16  C   UNK A   0       3.000   1.974  17.993  0.00  0.00    +0.000 C 
ENDBRANCH  13  14
ENDBRANCH   1  10
BRANCH   4  17
ATOM     17  CA  ALA A   1       0.608  11.503  18.900  0.00  0.00    +0.000 C 
ATOM     18  CB  ALA A   1      -0.581  12.242  19.514  0.00  0.00    +0.000 C 
BRANCH  17  19
ATOM     19  C   ALA A   1       1.773  12.470  18.609  0.00  0.00    +0.000 C 
BRANCH  19  20
ATOM     20  O   ALA A   1       2.481  12.038  17.445  0.00  0.00    +0.000 OA
ATOM     21  H   ALA A   1       1.836  12.092  16.717  0.00  0.00    +0.000 HD
ENDBRANCH  19  20
ENDBRANCH  17  19
ENDBRANCH   4  17
TORSDOF 5
ENDMDL
MODEL 8
REMARK VINA RESULT:      -5.8      3.695      5.133
REMARK  Name = 
REMARK  9 active torsions:
REMARK  status: ('A' for Active; 'I' for Inactive)
REMARK    1  A    between atoms: C_1  and  C_2
REMARK    2  A    between atoms: C_4  and  N_5
REMARK    3  A    between atoms: N_8  and  CA_9
REMARK    4  A    between atoms: CA_9  and  CB_10
REMARK    5  A    between atoms: CA_9  and  C_11
REMARK    6  A    between atoms: C_11  and  O_12
REMARK    7  A    between atoms: C_15  and  N_16
REMARK    8  A    between atoms: N_16  and  C_17
REMARK    9  A    between atoms: N_16  and  C_18
REMARK                            x       y       z     vdW  Elec       q    Type
REMARK                         _______ _______ _______ _____ _____    ______ ____
ROOT
ATOM      1  N   UNK A   0       3.383   6.255  18.018  0.00  0.00    +0.000 N 
ATOM      2  C   UNK A   0       4.676   6.392  17.544  0.00  0.00    +0.000 C 
ATOM      3  O   UNK A   0       5.277   7.449  17.409  0.00  0.00    +0.000 OA
ATOM      4  N   ALA A   1       5.278   5.194  17.239  0.00  0.00    +0.000 N 
ATOM      5  H   UNK A   0       2.927   5.365  17.866  0.00  0.00    +0.000 HD
ATOM      6  H   ALA A   1       4.727   4.350  17.218  0.00  0.00    +0.000 HD
ENDROOT
BRANCH   1  10
ATOM      7  C   UNK A   0       1.158   8.547  21.747  0.00  0.00    +0.000 C 
ATOM      8  C   UNK A   0       1.416   8.556  20.262  0.00  0.00    +0.000 A 
ATOM      9  C   UNK A   0       2.146   7.441  19.785  0.00  0.00    +0.000 A 
ATOM     10  C   UNK A   0       2.573   7.322  18.466  0.00  0.00    +0.000 A 
ATOM     11  C   UNK A   0       2.185   8.309  17.574  0.00  0.00    +0.000 A 
ATOM     12  C   UNK A   0       1.437   9.413  18.028  0.00  0.00    +0.000 A 
ATOM     13  C   UNK A   0       1.045   9.593  19.377  0.00  0.00    +0.000 A 
BRANCH  13  14
ATOM     14  N   UNK A   0       0.388  10.754  19.764  0.00  0.00    +0.000 N 
ATOM     15  C   UNK A   0       1.122  11.965  20.127  0.00  0.00    +0.000 C 
ATOM     16  C   UNK A   0      -1.045  10.964  19.594  0.00  0.00    +0.000 C 
ENDBRANCH  13  14
ENDBRANCH   1  10
BRANCH   4  17
ATOM     17  CA  ALA A   1       6.643   5.143  16.693  0.00  0.00    +0.000 C 
ATOM     18  CB  ALA A   1       7.648   4.588  17.703  0.00  0.00    +0.000 C 
BRANCH  17  19
ATOM     19  C   ALA A   1       6.714   4.372  15.359  0.00  0.00    +0.000 C 
BRANCH  19  20
ATOM     20  O   ALA A   1       6.119   3.082  15.513  0.00  0.00    +0.000 OA
ATOM     21  H   ALA A   1       5.404   3.204  16.164  0.00  0.00    +0.000 HD
ENDBRANCH  19  20
ENDBRANCH  17  19
ENDBRANCH   4  17
TORSDOF 5
ENDMDL
MODEL 9
REMARK VINA RESULT:      -5.7      4.864      7.065
REMARK  Name = 
REMARK  9 active torsions:
REMARK  status: ('A' for Active; 'I' for Inactive)
REMARK    1  A    between atoms: C_1  and  C_2
REMARK    2  A    between atoms: C_4  and  N_5
REMARK    3  A    between atoms: N_8  and  CA_9
REMARK    4  A    between atoms: CA_9  and  CB_10
REMARK    5  A    between atoms: CA_9  and  C_11
REMARK    6  A    between atoms: C_11  and  O_12
REMARK    7  A    between atoms: C_15  and  N_16
REMARK    8  A    between atoms: N_16  and  C_17
REMARK    9  A    between atoms: N_16  and  C_18
REMARK                            x       y       z     vdW  Elec       q    Type
REMARK                         _______ _______ _______ _____ _____    ______ ____
ROOT
ATOM      1  N   UNK A   0       3.038   6.329  19.282  0.00  0.00    +0.000 N 
ATOM      2  C   UNK A   0       2.523   5.060  19.478  0.00  0.00    +0.000 C 
ATOM      3  O   UNK A   0       1.344   4.791  19.664  0.00  0.00    +0.000 OA
ATOM      4  N   ALA A   1       3.473   4.068  19.426  0.00  0.00    +0.000 N 
ATOM      5  H   UNK A   0       4.040   6.440  19.370  0.00  0.00    +0.000 HD
ATOM      6  H   ALA A   1       4.451   4.315  19.417  0.00  0.00    +0.000 HD
ENDROOT
BRANCH   1  10
ATOM      7  C   UNK A   0       0.466   9.784  21.640  0.00  0.00    +0.000 C 
ATOM      8  C   UNK A   0       0.955   9.300  20.299  0.00  0.00    +0.000 A 
ATOM      9  C   UNK A   0       1.648   8.067  20.335  0.00  0.00    +0.000 A 
ATOM     10  C   UNK A   0       2.266   7.511  19.219  0.00  0.00    +0.000 A 
ATOM     11  C   UNK A   0       2.112   8.165  18.008  0.00  0.00    +0.000 A 
ATOM     12  C   UNK A   0       1.404   9.381  17.950  0.00  0.00    +0.000 A 
ATOM     13  C   UNK A   0       0.822  10.003  19.081  0.00  0.00    +0.000 A 
BRANCH  13  14
ATOM     14  N   UNK A   0       0.218  11.248  18.959  0.00  0.00    +0.000 N 
ATOM     15  C   UNK A   0       1.000  12.483  18.966  0.00  0.00    +0.000 C 
ATOM     16  C   UNK A   0      -1.171  11.435  18.554  0.00  0.00    +0.000 C 
ENDBRANCH  13  14
ENDBRANCH   1  10
BRANCH   4  17
ATOM     17  CA  ALA A   1       3.118   2.658  19.642  0.00  0.00    +0.000 C 
ATOM     18  CB  ALA A   1       3.601   1.760  18.503  0.00  0.00    +0.000 C 
BRANCH  17  19
ATOM     19  C   ALA A   1       3.603   2.131  21.008  0.00  0.00    +0.000 C 
BRANCH  19  20
ATOM     20  O   ALA A   1       2.685   2.524  22.031  0.00  0.00    +0.000 OA
ATOM     21  H   ALA A   1       3.007   2.095  22.845  0.00  0.00    +0.000 HD
ENDBRANCH  19  20
ENDBRANCH  17  19
ENDBRANCH   4  17
TORSDOF 5
ENDMDL
