MODEL 1
REMARK VINA RESULT:      -7.1      0.000      0.000
REMARK  Name = 
REMARK  10 active torsions:
REMARK  status: ('A' for Active; 'I' for Inactive)
REMARK    1  A    between atoms: C_1  and  C_2
REMARK    2  A    between atoms: C_2  and  N_3
REMARK    3  A    between atoms: C_2  and  C_20
REMARK    4  A    between atoms: N_3  and  P_4
REMARK    5  A    between atoms: P_4  and  O_6
REMARK    6  A    between atoms: P_4  and  O_13
REMARK    7  A    between atoms: O_6  and  C_7
REMARK    8  A    between atoms: O_13  and  C_14
REMARK    9  A    between atoms: C_26  and  C_27
REMARK   10  A    between atoms: C_27  and  O_29
REMARK                            x       y       z     vdW  Elec       q    Type
REMARK                         _______ _______ _______ _____ _____    ______ ____
ROOT
ATOM      1  P   UNL     1       5.051   5.143  18.748  0.00  0.00    +0.000 P 
ATOM      2  O   UNL     1       6.030   5.786  19.745  0.00  0.00    +0.000 OA
ENDROOT
BRANCH   1   3
ATOM      3  N   UNL     1       3.763   5.979  19.649  0.00  0.00    +0.000 NA
ATOM      4  H   UNL     1       4.316   6.562  20.277  0.00  0.00    +0.000 HD
BRANCH   3   6
ATOM      5  C   UNL     1       2.236   5.905  17.785  0.00  0.00    +0.000 C 
ATOM      6  C   UNL     1       2.932   6.844  18.757  0.00  0.00    +0.000 C 
BRANCH   6   7
ATOM      7  C   UNL     1       2.056   7.846  19.590  0.00  0.00    +0.000 C 
ATOM      8  O   UNL     1       1.766   7.580  20.761  0.00  0.00    +0.000 OA
ATOM      9  N   UNL     1       1.702   9.093  19.122  0.00  0.00    +0.000 N 
ATOM     10  C   UNL     1       1.912   9.683  17.814  0.00  0.00    +0.000 C 
ATOM     11  C   UNL     1       2.183  11.143  18.110  0.00  0.00    +0.000 C 
ATOM     12  C   UNL     1       1.285  11.450  19.298  0.00  0.00    +0.000 C 
ATOM     13  C   UNL     1       1.100  10.102  20.019  0.00  0.00    +0.000 C 
BRANCH  13  14
ATOM     14  C   UNL     1      -0.386   9.829  20.330  0.00  0.00    +0.000 C 
ATOM     15  O   UNL     1      -1.322  10.186  19.625  0.00  0.00    +0.000 OA
BRANCH  14  16
ATOM     16  O   UNL     1      -0.591   9.208  21.515  0.00  0.00    +0.000 OA
ATOM     17  H   UNL     1       0.190   9.255  22.119  0.00  0.00    +0.000 HD
ENDBRANCH  14  16
ENDBRANCH  13  14
ENDBRANCH   6   7
ENDBRANCH   3   6
ENDBRANCH   1   3
BRANCH   1  18
ATOM     18  O   UNL     1       4.457   3.741  19.377  0.00  0.00    +0.000 OA
BRANCH  18  19
ATOM     19  C   UNL     1       3.233   3.157  19.484  0.00  0.00    +0.000 A 
ATOM     20  C   UNL     1       2.569   3.359  20.708  0.00  0.00    +0.000 A 
ATOM     21  C   UNL     1       1.263   2.932  20.916  0.00  0.00    +0.000 A 
ATOM     22  C   UNL     1       0.578   2.319  19.872  0.00  0.00    +0.000 A 
ATOM     23  C   UNL     1       1.219   2.139  18.647  0.00  0.00    +0.000 A 
ATOM     24  C   UNL     1       2.546   2.547  18.452  0.00  0.00    +0.000 A 
ENDBRANCH  18  19
ENDBRANCH   1  18
BRANCH   1  25
ATOM     25  O   UNL     1       6.302   4.330  17.873  0.00  0.00    +0.000 OA
BRANCH  25  26
ATOM     26  C   UNL     1       6.328   4.445  16.460  0.00  0.00    +0.000 A 
ATOM     27  C   UNL     1       7.382   4.981  15.694  0.00  0.00    +0.000 A 
ATOM     28  C   UNL     1       7.493   4.842  14.303  0.00  0.00    +0.000 A 
ATOM     29  C   UNL     1       6.430   4.318  13.613  0.00  0.00    +0.000 A 
ATOM     30  C   UNL     1       5.275   3.951  14.304  0.00  0.00    +0.000 A 
ATOM     31  C   UNL     1       5.239   3.974  15.726  0.00  0.00    +0.000 A 
ENDBRANCH  25  26
ENDBRANCH   1  25
TORSDOF 9
ENDMDL
MODEL 2
REMARK VINA RESULT:      -7.0      2.927      8.657
REMARK  Name = 
REMARK  10 active torsions:
REMARK  status: ('A' for Active; 'I' for Inactive)
REMARK    1  A    between atoms: C_1  and  C_2
REMARK    2  A    between atoms: C_2  and  N_3
REMARK    3  A    between atoms: C_2  and  C_20
REMARK    4  A    between atoms: N_3  and  P_4
REMARK    5  A    between atoms: P_4  and  O_6
REMARK    6  A    between atoms: P_4  and  O_13
REMARK    7  A    between atoms: O_6  and  C_7
REMARK    8  A    between atoms: O_13  and  C_14
REMARK    9  A    between atoms: C_26  and  C_27
REMARK   10  A    between atoms: C_27  and  O_29
REMARK                            x       y       z     vdW  Elec       q    Type
REMARK                         _______ _______ _______ _____ _____    ______ ____
ROOT
ATOM      1  P   UNL     1       1.244   9.859  19.018  0.00  0.00    +0.000 P 
ATOM      2  O   UNL     1       1.847  10.537  17.776  0.00  0.00    +0.000 OA
ENDROOT
BRANCH   1   3
ATOM      3  N   UNL     1       1.496   8.320  18.161  0.00  0.00    +0.000 NA
ATOM      4  H   UNL     1       1.950   8.647  17.308  0.00  0.00    +0.000 HD
BRANCH   3   6
ATOM      5  C   UNL     1       1.980   7.467  20.362  0.00  0.00    +0.000 C 
ATOM      6  C   UNL     1       2.418   7.411  18.908  0.00  0.00    +0.000 C 
BRANCH   6   7
ATOM      7  C   UNL     1       2.525   6.009  18.210  0.00  0.00    +0.000 C 
ATOM      8  O   UNL     1       1.509   5.467  17.762  0.00  0.00    +0.000 OA
ATOM      9  N   UNL     1       3.732   5.401  17.942  0.00  0.00    +0.000 N 
ATOM     10  C   UNL     1       5.073   5.801  18.324  0.00  0.00    +0.000 C 
ATOM     11  C   UNL     1       5.925   5.407  17.135  0.00  0.00    +0.000 C 
ATOM     12  C   UNL     1       5.287   4.122  16.634  0.00  0.00    +0.000 C 
ATOM     13  C   UNL     1       3.811   4.213  17.064  0.00  0.00    +0.000 C 
BRANCH  13  14
ATOM     14  C   UNL     1       3.345   2.916  17.755  0.00  0.00    +0.000 C 
ATOM     15  O   UNL     1       4.000   2.291  18.579  0.00  0.00    +0.000 OA
BRANCH  14  16
ATOM     16  O   UNL     1       2.146   2.464  17.317  0.00  0.00    +0.000 OA
ATOM     17  H   UNL     1       1.395   3.057  17.559  0.00  0.00    +0.000 HD
ENDBRANCH  14  16
ENDBRANCH  13  14
ENDBRANCH   6   7
ENDBRANCH   3   6
ENDBRANCH   1   3
BRANCH   1  18
ATOM     18  O   UNL     1      -0.370   9.618  18.791  0.00  0.00    +0.000 OA
BRANCH  18  19
ATOM     19  C   UNL     1      -1.356  10.209  18.062  0.00  0.00    +0.000 A 
ATOM     20  C   UNL     1      -1.578   9.661  16.786  0.00  0.00    +0.000 A 
ATOM     21  C   UNL     1      -2.632  10.076  15.980  0.00  0.00    +0.000 A 
ATOM     22  C   UNL     1      -3.515  11.036  16.463  0.00  0.00    +0.000 A 
ATOM     23  C   UNL     1      -3.317  11.566  17.738  0.00  0.00    +0.000 A 
ATOM     24  C   UNL     1      -2.236  11.162  18.536  0.00  0.00    +0.000 A 
ENDBRANCH  18  19
ENDBRANCH   1  18
BRANCH   1  25
ATOM     25  O   UNL     1       0.998  11.355  19.851  0.00  0.00    +0.000 OA
BRANCH  25  26
ATOM     26  C   UNL     1       0.245  11.348  21.053  0.00  0.00    +0.000 A 
ATOM     27  C   UNL     1      -0.572  12.396  21.521  0.00  0.00    +0.000 A 
ATOM     28  C   UNL     1      -1.501  12.261  22.564  0.00  0.00    +0.000 A 
ATOM     29  C   UNL     1      -1.493  11.104  23.300  0.00  0.00    +0.000 A 
ATOM     30  C   UNL     1      -0.564  10.108  23.004  0.00  0.00    +0.000 A 
ATOM     31  C   UNL     1       0.274  10.209  21.858  0.00  0.00    +0.000 A 
ENDBRANCH  25  26
ENDBRANCH   1  25
TORSDOF 9
ENDMDL
MODEL 3
REMARK VINA RESULT:      -7.0      2.397      5.143
REMARK  Name = 
REMARK  10 active torsions:
REMARK  status: ('A' for Active; 'I' for Inactive)
REMARK    1  A    between atoms: C_1  and  C_2
REMARK    2  A    between atoms: C_2  and  N_3
REMARK    3  A    between atoms: C_2  and  C_20
REMARK    4  A    between atoms: N_3  and  P_4
REMARK    5  A    between atoms: P_4  and  O_6
REMARK    6  A    between atoms: P_4  and  O_13
REMARK    7  A    between atoms: O_6  and  C_7
REMARK    8  A    between atoms: O_13  and  C_14
REMARK    9  A    between atoms: C_26  and  C_27
REMARK   10  A    between atoms: C_27  and  O_29
REMARK                            x       y       z     vdW  Elec       q    Type
REMARK                         _______ _______ _______ _____ _____    ______ ____
ROOT
ATOM      1  P   UNL     1       3.130   6.922  18.652  0.00  0.00    +0.000 P 
ATOM      2  O   UNL     1       2.017   6.228  17.849  0.00  0.00    +0.000 OA
ENDROOT
BRANCH   1   3
ATOM      3  N   UNL     1       2.598   8.429  17.867  0.00  0.00    +0.000 NA
ATOM      4  H   UNL     1       2.217   8.066  16.994  0.00  0.00    +0.000 HD
BRANCH   3   6
ATOM      5  C   UNL     1       1.556   8.506  20.039  0.00  0.00    +0.000 C 
ATOM      6  C   UNL     1       1.520   9.112  18.646  0.00  0.00    +0.000 C 
BRANCH   6   7
ATOM      7  C   UNL     1       1.615  10.672  18.503  0.00  0.00    +0.000 C 
ATOM      8  O   UNL     1       2.509  11.172  17.812  0.00  0.00    +0.000 OA
ATOM      9  N   UNL     1       0.655  11.526  19.003  0.00  0.00    +0.000 N 
ATOM     10  C   UNL     1      -0.502  11.234  19.827  0.00  0.00    +0.000 C 
ATOM     11  C   UNL     1      -1.559  12.197  19.328  0.00  0.00    +0.000 C 
ATOM     12  C   UNL     1      -0.778  13.452  18.975  0.00  0.00    +0.000 C 
ATOM     13  C   UNL     1       0.641  12.958  18.635  0.00  0.00    +0.000 C 
BRANCH  13  14
ATOM     14  C   UNL     1       1.716  13.784  19.370  0.00  0.00    +0.000 C 
ATOM     15  O   UNL     1       1.600  14.226  20.506  0.00  0.00    +0.000 OA
BRANCH  14  16
ATOM     16  O   UNL     1       2.806  14.057  18.615  0.00  0.00    +0.000 OA
ATOM     17  H   UNL     1       2.612  14.661  17.857  0.00  0.00    +0.000 HD
ENDBRANCH  14  16
ENDBRANCH  13  14
ENDBRANCH   6   7
ENDBRANCH   3   6
ENDBRANCH   1   3
BRANCH   1  18
ATOM     18  O   UNL     1       4.493   7.031  17.734  0.00  0.00    +0.000 OA
BRANCH  18  19
ATOM     19  C   UNL     1       5.329   6.153  17.114  0.00  0.00    +0.000 A 
ATOM     20  C   UNL     1       5.081   5.943  15.745  0.00  0.00    +0.000 A 
ATOM     21  C   UNL     1       5.926   5.175  14.954  0.00  0.00    +0.000 A 
ATOM     22  C   UNL     1       7.071   4.627  15.522  0.00  0.00    +0.000 A 
ATOM     23  C   UNL     1       7.339   4.852  16.872  0.00  0.00    +0.000 A 
ATOM     24  C   UNL     1       6.467   5.606  17.672  0.00  0.00    +0.000 A 
ENDBRANCH  18  19
ENDBRANCH   1  18
BRANCH   1  25
ATOM     25  O   UNL     1       3.646   5.458  19.415  0.00  0.00    +0.000 OA
BRANCH  25  26
ATOM     26  C   UNL     1       2.820   4.311  19.313  0.00  0.00    +0.000 A 
ATOM     27  C   UNL     1       1.658   4.060  20.069  0.00  0.00    +0.000 A 
ATOM     28  C   UNL     1       0.725   3.056  19.767  0.00  0.00    +0.000 A 
ATOM     29  C   UNL     1       1.042   2.143  18.794  0.00  0.00    +0.000 A 
ATOM     30  C   UNL     1       2.274   2.227  18.146  0.00  0.00    +0.000 A 
ATOM     31  C   UNL     1       3.143   3.331  18.373  0.00  0.00    +0.000 A 
ENDBRANCH  25  26
ENDBRANCH   1  25
TORSDOF 9
ENDMDL
MODEL 4
REMARK VINA RESULT:      -6.9      1.979      3.247
REMARK  Name = 
REMARK  10 active torsions:
REMARK  status: ('A' for Active; 'I' for Inactive)
REMARK    1  A    between atoms: C_1  and  C_2
REMARK    2  A    between atoms: C_2  and  N_3
REMARK    3  A    between atoms: C_2  and  C_20
REMARK    4  A    between atoms: N_3  and  P_4
REMARK    5  A    between atoms: P_4  and  O_6
REMARK    6  A    between atoms: P_4  and  O_13
REMARK    7  A    between atoms: O_6  and  C_7
REMARK    8  A    between atoms: O_13  and  C_14
REMARK    9  A    between atoms: C_26  and  C_27
REMARK   10  A    between atoms: C_27  and  O_29
REMARK                            x       y       z     vdW  Elec       q    Type
REMARK                         _______ _______ _______ _____ _____    ______ ____
ROOT
ATOM      1  P   UNL     1       2.843   7.067  18.431  0.00  0.00    +0.000 P 
ATOM      2  O   UNL     1       2.538   7.476  19.882  0.00  0.00    +0.000 OA
ENDROOT
BRANCH   1   3
ATOM      3  N   UNL     1       1.486   8.121  17.968  0.00  0.00    +0.000 NA
ATOM      4  H   UNL     1       0.711   7.655  18.441  0.00  0.00    +0.000 HD
BRANCH   3   6
ATOM      5  C   UNL     1       2.653  10.198  17.601  0.00  0.00    +0.000 C 
ATOM      6  C   UNL     1       1.648   9.507  18.507  0.00  0.00    +0.000 C 
BRANCH   6   7
ATOM      7  C   UNL     1       0.256  10.192  18.746  0.00  0.00    +0.000 C 
ATOM      8  O   UNL     1      -0.648  10.050  17.915  0.00  0.00    +0.000 OA
ATOM      9  N   UNL     1      -0.064  10.840  19.919  0.00  0.00    +0.000 N 
ATOM     10  C   UNL     1       0.773  11.142  21.065  0.00  0.00    +0.000 C 
ATOM     11  C   UNL     1      -0.159  10.987  22.249  0.00  0.00    +0.000 C 
ATOM     12  C   UNL     1      -1.498  11.486  21.732  0.00  0.00    +0.000 C 
ATOM     13  C   UNL     1      -1.455  11.249  20.211  0.00  0.00    +0.000 C 
BRANCH  13  14
ATOM     14  C   UNL     1      -1.894  12.505  19.432  0.00  0.00    +0.000 C 
ATOM     15  O   UNL     1      -1.605  13.654  19.742  0.00  0.00    +0.000 OA
BRANCH  14  16
ATOM     16  O   UNL     1      -2.710  12.241  18.385  0.00  0.00    +0.000 OA
ATOM     17  H   UNL     1      -2.551  11.352  17.983  0.00  0.00    +0.000 HD
ENDBRANCH  14  16
ENDBRANCH  13  14
ENDBRANCH   6   7
ENDBRANCH   3   6
ENDBRANCH   1   3
BRANCH   1  18
ATOM     18  O   UNL     1       1.887   5.797  17.997  0.00  0.00    +0.000 OA
BRANCH  18  19
ATOM     19  C   UNL     1       1.675   4.532  18.452  0.00  0.00    +0.000 A 
ATOM     20  C   UNL     1       2.151   3.501  17.621  0.00  0.00    +0.000 A 
ATOM     21  C   UNL     1       2.120   2.168  18.011  0.00  0.00    +0.000 A 
ATOM     22  C   UNL     1       1.637   1.845  19.275  0.00  0.00    +0.000 A 
ATOM     23  C   UNL     1       1.187   2.863  20.115  0.00  0.00    +0.000 A 
ATOM     24  C   UNL     1       1.196   4.204  19.705  0.00  0.00    +0.000 A 
ENDBRANCH  18  19
ENDBRANCH   1  18
BRANCH   1  25
ATOM     25  O   UNL     1       4.162   6.042  18.880  0.00  0.00    +0.000 OA
BRANCH  25  26
ATOM     26  C   UNL     1       5.057   5.605  17.871  0.00  0.00    +0.000 A 
ATOM     27  C   UNL     1       4.871   5.748  16.482  0.00  0.00    +0.000 A 
ATOM     28  C   UNL     1       5.880   5.548  15.529  0.00  0.00    +0.000 A 
ATOM     29  C   UNL     1       7.068   5.003  15.941  0.00  0.00    +0.000 A 
ATOM     30  C   UNL     1       7.237   4.654  17.281  0.00  0.00    +0.000 A 
ATOM     31  C   UNL     1       6.252   4.993  18.251  0.00  0.00    +0.000 A 
ENDBRANCH  25  26
ENDBRANCH   1  25
TORSDOF 9
ENDMDL
MODEL 5
REMARK VINA RESULT:      -6.9      2.588      5.107
REMARK  Name = 
REMARK  10 active torsions:
REMARK  status: ('A' for Active; 'I' for Inactive)
REMARK    1  A    between atoms: C_1  and  C_2
REMARK    2  A    between atoms: C_2  and  N_3
REMARK    3  A    between atoms: C_2  and  C_20
REMARK    4  A    between atoms: N_3  and  P_4
REMARK    5  A    between atoms: P_4  and  O_6
REMARK    6  A    between atoms: P_4  and  O_13
REMARK    7  A    between atoms: O_6  and  C_7
REMARK    8  A    between atoms: O_13  and  C_14
REMARK    9  A    between atoms: C_26  and  C_27
REMARK   10  A    between atoms: C_27  and  O_29
REMARK                            x       y       z     vdW  Elec       q    Type
REMARK                         _______ _______ _______ _____ _____    ______ ____
ROOT
ATOM      1  P   UNL     1       2.884   7.136  18.511  0.00  0.00    +0.000 P 
ATOM      2  O   UNL     1       1.871   6.417  17.604  0.00  0.00    +0.000 OA
ENDROOT
BRANCH   1   3
ATOM      3  N   UNL     1       2.345   8.641  17.728  0.00  0.00    +0.000 NA
ATOM      4  H   UNL     1       1.848   8.268  16.919  0.00  0.00    +0.000 HD
BRANCH   3   6
ATOM      5  C   UNL     1       1.453   8.757  19.964  0.00  0.00    +0.000 C 
ATOM      6  C   UNL     1       1.399   9.410  18.593  0.00  0.00    +0.000 C 
BRANCH   6   7
ATOM      7  C   UNL     1       1.658  10.955  18.486  0.00  0.00    +0.000 C 
ATOM      8  O   UNL     1       2.635  11.371  17.854  0.00  0.00    +0.000 OA
ATOM      9  N   UNL     1       0.763  11.894  18.951  0.00  0.00    +0.000 N 
ATOM     10  C   UNL     1      -0.462  11.709  19.706  0.00  0.00    +0.000 C 
ATOM     11  C   UNL     1      -1.388  12.781  19.170  0.00  0.00    +0.000 C 
ATOM     12  C   UNL     1      -0.466  13.955  18.885  0.00  0.00    +0.000 C 
ATOM     13  C   UNL     1       0.912  13.326  18.611  0.00  0.00    +0.000 C 
BRANCH  13  14
ATOM     14  C   UNL     1       2.023  14.028  19.418  0.00  0.00    +0.000 C 
ATOM     15  O   UNL     1       1.879  14.494  20.542  0.00  0.00    +0.000 OA
BRANCH  14  16
ATOM     16  O   UNL     1       3.189  14.161  18.743  0.00  0.00    +0.000 OA
ATOM     17  H   UNL     1       3.093  14.665  17.899  0.00  0.00    +0.000 HD
ENDBRANCH  14  16
ENDBRANCH  13  14
ENDBRANCH   6   7
ENDBRANCH   3   6
ENDBRANCH   1   3
BRANCH   1  18
ATOM     18  O   UNL     1       4.308   7.333  17.707  0.00  0.00    +0.000 OA
BRANCH  18  19
ATOM     19  C   UNL     1       5.216   6.515  17.107  0.00  0.00    +0.000 A 
ATOM     20  C   UNL     1       6.349   6.197  17.879  0.00  0.00    +0.000 A 
ATOM     21  C   UNL     1       7.296   5.275  17.450  0.00  0.00    +0.000 A 
ATOM     22  C   UNL     1       7.101   4.619  16.240  0.00  0.00    +0.000 A 
ATOM     23  C   UNL     1       5.967   4.908  15.481  0.00  0.00    +0.000 A 
ATOM     24  C   UNL     1       5.028   5.860  15.906  0.00  0.00    +0.000 A 
ENDBRANCH  18  19
ENDBRANCH   1  18
BRANCH   1  25
ATOM     25  O   UNL     1       3.409   5.674  19.272  0.00  0.00    +0.000 OA
BRANCH  25  26
ATOM     26  C   UNL     1       2.660   4.489  19.057  0.00  0.00    +0.000 A 
ATOM     27  C   UNL     1       2.934   3.504  18.088  0.00  0.00    +0.000 A 
ATOM     28  C   UNL     1       2.343   2.231  18.072  0.00  0.00    +0.000 A 
ATOM     29  C   UNL     1       1.303   1.985  18.931  0.00  0.00    +0.000 A 
ATOM     30  C   UNL     1       0.857   2.996  19.780  0.00  0.00    +0.000 A 
ATOM     31  C   UNL     1       1.560   4.231  19.874  0.00  0.00    +0.000 A 
ENDBRANCH  25  26
ENDBRANCH   1  25
TORSDOF 9
ENDMDL
MODEL 6
REMARK VINA RESULT:      -6.9      2.482      5.089
REMARK  Name = 
REMARK  10 active torsions:
REMARK  status: ('A' for Active; 'I' for Inactive)
REMARK    1  A    between atoms: C_1  and  C_2
REMARK    2  A    between atoms: C_2  and  N_3
REMARK    3  A    between atoms: C_2  and  C_20
REMARK    4  A    between atoms: N_3  and  P_4
REMARK    5  A    between atoms: P_4  and  O_6
REMARK    6  A    between atoms: P_4  and  O_13
REMARK    7  A    between atoms: O_6  and  C_7
REMARK    8  A    between atoms: O_13  and  C_14
REMARK    9  A    between atoms: C_26  and  C_27
REMARK   10  A    between atoms: C_27  and  O_29
REMARK                            x       y       z     vdW  Elec       q    Type
REMARK                         _______ _______ _______ _____ _____    ______ ____
ROOT
ATOM      1  P   UNL     1       2.845   6.921  18.681  0.00  0.00    +0.000 P 
ATOM      2  O   UNL     1       1.847   6.005  17.951  0.00  0.00    +0.000 OA
ENDROOT
BRANCH   1   3
ATOM      3  N   UNL     1       2.053   8.270  17.832  0.00  0.00    +0.000 NA
ATOM      4  H   UNL     1       1.426   7.762  17.208  0.00  0.00    +0.000 HD
BRANCH   3   6
ATOM      5  C   UNL     1       1.455   8.534  20.152  0.00  0.00    +0.000 C 
ATOM      6  C   UNL     1       1.256   9.124  18.766  0.00  0.00    +0.000 C 
BRANCH   6   7
ATOM      7  C   UNL     1       1.563  10.648  18.547  0.00  0.00    +0.000 C 
ATOM      8  O   UNL     1       2.509  10.986  17.827  0.00  0.00    +0.000 OA
ATOM      9  N   UNL     1       0.737  11.648  19.011  0.00  0.00    +0.000 N 
ATOM     10  C   UNL     1      -0.438  11.558  19.856  0.00  0.00    +0.000 C 
ATOM     11  C   UNL     1      -1.360  12.633  19.318  0.00  0.00    +0.000 C 
ATOM     12  C   UNL     1      -0.417  13.750  18.899  0.00  0.00    +0.000 C 
ATOM     13  C   UNL     1       0.915  13.050  18.574  0.00  0.00    +0.000 C 
BRANCH  13  14
ATOM     14  C   UNL     1       2.103  13.753  19.261  0.00  0.00    +0.000 C 
ATOM     15  O   UNL     1       3.035  14.285  18.669  0.00  0.00    +0.000 OA
BRANCH  14  16
ATOM     16  O   UNL     1       2.079  13.673  20.612  0.00  0.00    +0.000 OA
ATOM     17  H   UNL     1       2.248  14.540  21.055  0.00  0.00    +0.000 HD
ENDBRANCH  14  16
ENDBRANCH  13  14
ENDBRANCH   6   7
ENDBRANCH   3   6
ENDBRANCH   1   3
BRANCH   1  18
ATOM     18  O   UNL     1       4.151   7.199  17.717  0.00  0.00    +0.000 OA
BRANCH  18  19
ATOM     19  C   UNL     1       5.131   6.442  17.152  0.00  0.00    +0.000 A 
ATOM     20  C   UNL     1       6.392   6.521  17.770  0.00  0.00    +0.000 A 
ATOM     21  C   UNL     1       7.453   5.711  17.385  0.00  0.00    +0.000 A 
ATOM     22  C   UNL     1       7.253   4.767  16.383  0.00  0.00    +0.000 A 
ATOM     23  C   UNL     1       5.999   4.663  15.783  0.00  0.00    +0.000 A 
ATOM     24  C   UNL     1       4.940   5.502  16.158  0.00  0.00    +0.000 A 
ENDBRANCH  18  19
ENDBRANCH   1  18
BRANCH   1  25
ATOM     25  O   UNL     1       3.615   5.610  19.506  0.00  0.00    +0.000 OA
BRANCH  25  26
ATOM     26  C   UNL     1       2.957   4.355  19.552  0.00  0.00    +0.000 A 
ATOM     27  C   UNL     1       1.861   4.027  20.374  0.00  0.00    +0.000 A 
ATOM     28  C   UNL     1       1.072   2.879  20.211  0.00  0.00    +0.000 A 
ATOM     29  C   UNL     1       1.489   1.921  19.323  0.00  0.00    +0.000 A 
ATOM     30  C   UNL     1       2.680   2.105  18.622  0.00  0.00    +0.000 A 
ATOM     31  C   UNL     1       3.391   3.336  18.703  0.00  0.00    +0.000 A 
ENDBRANCH  25  26
ENDBRANCH   1  25
TORSDOF 9
ENDMDL
MODEL 7
REMARK VINA RESULT:      -6.9      3.300      9.108
REMARK  Name = 
REMARK  10 active torsions:
REMARK  status: ('A' for Active; 'I' for Inactive)
REMARK    1  A    between atoms: C_1  and  C_2
REMARK    2  A    between atoms: C_2  and  N_3
REMARK    3  A    between atoms: C_2  and  C_20
REMARK    4  A    between atoms: N_3  and  P_4
REMARK    5  A    between atoms: P_4  and  O_6
REMARK    6  A    between atoms: P_4  and  O_13
REMARK    7  A    between atoms: O_6  and  C_7
REMARK    8  A    between atoms: O_13  and  C_14
REMARK    9  A    between atoms: C_26  and  C_27
REMARK   10  A    between atoms: C_27  and  O_29
REMARK                            x       y       z     vdW  Elec       q    Type
REMARK                         _______ _______ _______ _____ _____    ______ ____
ROOT
ATOM      1  P   UNL     1       0.326  10.450  19.462  0.00  0.00    +0.000 P 
ATOM      2  O   UNL     1       1.104  10.991  18.250  0.00  0.00    +0.000 OA
ENDROOT
BRANCH   1   3
ATOM      3  N   UNL     1       0.814   8.830  18.908  0.00  0.00    +0.000 NA
ATOM      4  H   UNL     1       1.197   9.049  17.989  0.00  0.00    +0.000 HD
BRANCH   3   6
ATOM      5  C   UNL     1       1.279   8.122  21.165  0.00  0.00    +0.000 C 
ATOM      6  C   UNL     1       1.882   8.244  19.775  0.00  0.00    +0.000 C 
BRANCH   6   7
ATOM      7  C   UNL     1       2.514   6.967  19.116  0.00  0.00    +0.000 C 
ATOM      8  O   UNL     1       3.368   7.092  18.232  0.00  0.00    +0.000 OA
ATOM      9  N   UNL     1       2.265   5.691  19.575  0.00  0.00    +0.000 N 
ATOM     10  C   UNL     1       1.338   5.241  20.595  0.00  0.00    +0.000 C 
ATOM     11  C   UNL     1       2.067   4.099  21.273  0.00  0.00    +0.000 C 
ATOM     12  C   UNL     1       2.833   3.430  20.143  0.00  0.00    +0.000 C 
ATOM     13  C   UNL     1       3.065   4.541  19.103  0.00  0.00    +0.000 C 
BRANCH  13  14
ATOM     14  C   UNL     1       2.680   4.075  17.685  0.00  0.00    +0.000 C 
ATOM     15  O   UNL     1       3.480   3.817  16.794  0.00  0.00    +0.000 OA
BRANCH  14  16
ATOM     16  O   UNL     1       1.344   4.039  17.465  0.00  0.00    +0.000 OA
ATOM     17  H   UNL     1       1.106   3.679  16.576  0.00  0.00    +0.000 HD
ENDBRANCH  14  16
ENDBRANCH  13  14
ENDBRANCH   6   7
ENDBRANCH   3   6
ENDBRANCH   1   3
BRANCH   1  18
ATOM     18  O   UNL     1      -1.205  10.046  19.005  0.00  0.00    +0.000 OA
BRANCH  18  19
ATOM     19  C   UNL     1      -2.082  10.458  18.049  0.00  0.00    +0.000 A 
ATOM     20  C   UNL     1      -1.977   9.805  16.807  0.00  0.00    +0.000 A 
ATOM     21  C   UNL     1      -2.885  10.028  15.780  0.00  0.00    +0.000 A 
ATOM     22  C   UNL     1      -3.951  10.896  15.996  0.00  0.00    +0.000 A 
ATOM     23  C   UNL     1      -4.077  11.528  17.232  0.00  0.00    +0.000 A 
ATOM     24  C   UNL     1      -3.143  11.318  18.257  0.00  0.00    +0.000 A 
ENDBRANCH  18  19
ENDBRANCH   1  18
BRANCH   1  25
ATOM     25  O   UNL     1      -0.149  12.024  19.999  0.00  0.00    +0.000 OA
BRANCH  25  26
ATOM     26  C   UNL     1      -0.978  12.129  21.145  0.00  0.00    +0.000 A 
ATOM     27  C   UNL     1      -2.012  13.067  21.333  0.00  0.00    +0.000 A 
ATOM     28  C   UNL     1      -2.976  12.981  22.349  0.00  0.00    +0.000 A 
ATOM     29  C   UNL     1      -2.807  12.039  23.331  0.00  0.00    +0.000 A 
ATOM     30  C   UNL     1      -1.687  11.209  23.302  0.00  0.00    +0.000 A 
ATOM     31  C   UNL     1      -0.797  11.224  22.191  0.00  0.00    +0.000 A 
ENDBRANCH  25  26
ENDBRANCH   1  25
TORSDOF 9
ENDMDL
MODEL 8
REMARK VINA RESULT:      -6.8      2.314      5.025
REMARK  Name = 
REMARK  10 active torsions:
REMARK  status: ('A' for Active; 'I' for Inactive)
REMARK    1  A    between atoms: C_1  and  C_2
REMARK    2  A    between atoms: C_2  and  N_3
REMARK    3  A    between atoms: C_2  and  C_20
REMARK    4  A    between atoms: N_3  and  P_4
REMARK    5  A    between atoms: P_4  and  O_6
REMARK    6  A    between atoms: P_4  and  O_13
REMARK    7  A    between atoms: O_6  and  C_7
REMARK    8  A    between atoms: O_13  and  C_14
REMARK    9  A    between atoms: C_26  and  C_27
REMARK   10  A    between atoms: C_27  and  O_29
REMARK                            x       y       z     vdW  Elec       q    Type
REMARK                         _______ _______ _______ _____ _____    ______ ____
ROOT
ATOM      1  P   UNL     1       3.041   6.909  18.808  0.00  0.00    +0.000 P 
ATOM      2  O   UNL     1       1.897   6.288  17.988  0.00  0.00    +0.000 OA
ENDROOT
BRANCH   1   3
ATOM      3  N   UNL     1       2.379   8.488  18.322  0.00  0.00    +0.000 NA
ATOM      4  H   UNL     1       2.102   8.293  17.360  0.00  0.00    +0.000 HD
BRANCH   3   6
ATOM      5  C   UNL     1       1.516   8.529  20.572  0.00  0.00    +0.000 C 
ATOM      6  C   UNL     1       1.176   8.860  19.129  0.00  0.00    +0.000 C 
BRANCH   6   7
ATOM      7  C   UNL     1       0.686  10.312  18.786  0.00  0.00    +0.000 C 
ATOM      8  O   UNL     1       1.510  11.227  18.675  0.00  0.00    +0.000 OA
ATOM      9  N   UNL     1      -0.621  10.599  18.461  0.00  0.00    +0.000 N 
ATOM     10  C   UNL     1      -1.790   9.740  18.485  0.00  0.00    +0.000 C 
ATOM     11  C   UNL     1      -2.606  10.199  17.294  0.00  0.00    +0.000 C 
ATOM     12  C   UNL     1      -2.374  11.701  17.245  0.00  0.00    +0.000 C 
ATOM     13  C   UNL     1      -0.997  11.915  17.900  0.00  0.00    +0.000 C 
BRANCH  13  14
ATOM     14  C   UNL     1      -1.045  13.035  18.959  0.00  0.00    +0.000 C 
ATOM     15  O   UNL     1      -1.455  12.893  20.105  0.00  0.00    +0.000 OA
BRANCH  14  16
ATOM     16  O   UNL     1      -0.656  14.245  18.494  0.00  0.00    +0.000 OA
ATOM     17  H   UNL     1      -1.289  14.969  18.719  0.00  0.00    +0.000 HD
ENDBRANCH  14  16
ENDBRANCH  13  14
ENDBRANCH   6   7
ENDBRANCH   3   6
ENDBRANCH   1   3
BRANCH   1  18
ATOM     18  O   UNL     1       4.316   7.241  17.820  0.00  0.00    +0.000 OA
BRANCH  18  19
ATOM     19  C   UNL     1       5.229   6.512  17.122  0.00  0.00    +0.000 A 
ATOM     20  C   UNL     1       6.420   6.212  17.809  0.00  0.00    +0.000 A 
ATOM     21  C   UNL     1       7.388   5.372  17.272  0.00  0.00    +0.000 A 
ATOM     22  C   UNL     1       7.158   4.780  16.035  0.00  0.00    +0.000 A 
ATOM     23  C   UNL     1       5.968   5.050  15.358  0.00  0.00    +0.000 A 
ATOM     24  C   UNL     1       5.008   5.921  15.893  0.00  0.00    +0.000 A 
ENDBRANCH  18  19
ENDBRANCH   1  18
BRANCH   1  25
ATOM     25  O   UNL     1       3.685   5.375  19.280  0.00  0.00    +0.000 OA
BRANCH  25  26
ATOM     26  C   UNL     1       2.840   4.237  19.225  0.00  0.00    +0.000 A 
ATOM     27  C   UNL     1       1.809   3.929  20.135  0.00  0.00    +0.000 A 
ATOM     28  C   UNL     1       0.830   2.950  19.910  0.00  0.00    +0.000 A 
ATOM     29  C   UNL     1       0.979   2.113  18.834  0.00  0.00    +0.000 A 
ATOM     30  C   UNL     1       2.094   2.246  18.008  0.00  0.00    +0.000 A 
ATOM     31  C   UNL     1       3.000   3.331  18.176  0.00  0.00    +0.000 A 
ENDBRANCH  25  26
ENDBRANCH   1  25
TORSDOF 9
ENDMDL
MODEL 9
REMARK VINA RESULT:      -6.8      2.015      3.216
REMARK  Name = 
REMARK  10 active torsions:
REMARK  status: ('A' for Active; 'I' for Inactive)
REMARK    1  A    between atoms: C_1  and  C_2
REMARK    2  A    between atoms: C_2  and  N_3
REMARK    3  A    between atoms: C_2  and  C_20
REMARK    4  A    between atoms: N_3  and  P_4
REMARK    5  A    between atoms: P_4  and  O_6
REMARK    6  A    between atoms: P_4  and  O_13
REMARK    7  A    between atoms: O_6  and  C_7
REMARK    8  A    between atoms: O_13  and  C_14
REMARK    9  A    between atoms: C_26  and  C_27
REMARK   10  A    between atoms: C_27  and  O_29
REMARK                            x       y       z     vdW  Elec       q    Type
REMARK                         _______ _______ _______ _____ _____    ______ ____
ROOT
ATOM      1  P   UNL     1       2.784   7.121  18.606  0.00  0.00    +0.000 P 
ATOM      2  O   UNL     1       2.660   7.340  20.124  0.00  0.00    +0.000 OA
ENDROOT
BRANCH   1   3
ATOM      3  N   UNL     1       1.330   8.137  18.456  0.00  0.00    +0.000 NA
ATOM      4  H   UNL     1       0.707   7.680  19.122  0.00  0.00    +0.000 HD
BRANCH   3   6
ATOM      5  C   UNL     1       2.173  10.259  17.683  0.00  0.00    +0.000 C 
ATOM      6  C   UNL     1       1.588   9.545  18.890  0.00  0.00    +0.000 C 
BRANCH   6   7
ATOM      7  C   UNL     1       0.328  10.165  19.592  0.00  0.00    +0.000 C 
ATOM      8  O   UNL     1      -0.665  10.463  18.918  0.00  0.00    +0.000 OA
ATOM      9  N   UNL     1       0.213  10.268  20.961  0.00  0.00    +0.000 N 
ATOM     10  C   UNL     1       1.191   9.985  21.994  0.00  0.00    +0.000 C 
ATOM     11  C   UNL     1       0.370   9.408  23.128  0.00  0.00    +0.000 C 
ATOM     12  C   UNL     1      -0.938  10.181  23.065  0.00  0.00    +0.000 C 
ATOM     13  C   UNL     1      -1.076  10.617  21.595  0.00  0.00    +0.000 C 
BRANCH  13  14
ATOM     14  C   UNL     1      -1.423  12.115  21.482  0.00  0.00    +0.000 C 
ATOM     15  O   UNL     1      -0.803  13.018  22.032  0.00  0.00    +0.000 OA
BRANCH  14  16
ATOM     16  O   UNL     1      -2.543  12.365  20.765  0.00  0.00    +0.000 OA
ATOM     17  H   UNL     1      -3.313  12.628  21.326  0.00  0.00    +0.000 HD
ENDBRANCH  14  16
ENDBRANCH  13  14
ENDBRANCH   6   7
ENDBRANCH   3   6
ENDBRANCH   1   3
BRANCH   1  18
ATOM     18  O   UNL     1       1.835   5.854  18.147  0.00  0.00    +0.000 OA
BRANCH  18  19
ATOM     19  C   UNL     1       1.582   4.601  18.615  0.00  0.00    +0.000 A 
ATOM     20  C   UNL     1       1.978   3.547  17.770  0.00  0.00    +0.000 A 
ATOM     21  C   UNL     1       1.901   2.218  18.167  0.00  0.00    +0.000 A 
ATOM     22  C   UNL     1       1.452   1.920  19.450  0.00  0.00    +0.000 A 
ATOM     23  C   UNL     1       1.083   2.960  20.303  0.00  0.00    +0.000 A 
ATOM     24  C   UNL     1       1.138   4.298  19.887  0.00  0.00    +0.000 A 
ENDBRANCH  18  19
ENDBRANCH   1  18
BRANCH   1  25
ATOM     25  O   UNL     1       4.196   6.133  18.751  0.00  0.00    +0.000 OA
BRANCH  25  26
ATOM     26  C   UNL     1       4.831   5.677  17.568  0.00  0.00    +0.000 A 
ATOM     27  C   UNL     1       5.438   4.418  17.389  0.00  0.00    +0.000 A 
ATOM     28  C   UNL     1       5.819   3.900  16.142  0.00  0.00    +0.000 A 
ATOM     29  C   UNL     1       5.774   4.728  15.050  0.00  0.00    +0.000 A 
ATOM     30  C   UNL     1       5.367   6.052  15.207  0.00  0.00    +0.000 A 
ATOM     31  C   UNL     1       4.856   6.515  16.453  0.00  0.00    +0.000 A 
ENDBRANCH  25  26
ENDBRANCH   1  25
TORSDOF 9
ENDMDL
