MODEL 1
REMARK VINA RESULT:      -8.0      0.000      0.000
REMARK  Name = 
REMARK  6 active torsions:
REMARK  status: ('A' for Active; 'I' for Inactive)
REMARK    1  A    between atoms: C_1  and  O_2
REMARK    2  A    between atoms: O_2  and  C_3
REMARK    3  A    between atoms: C_8  and  C_9
REMARK    4  A    between atoms: C_13  and  C_14
REMARK    5  A    between atoms: C_24  and  O_25
REMARK    6  A    between atoms: O_25  and  C_26
REMARK                            x       y       z     vdW  Elec       q    Type
REMARK                         _______ _______ _______ _____ _____    ______ ____
ROOT
ATOM      1  C   UNL     1       4.066   4.407  18.736  0.00  0.00    +0.000 A 
ATOM      2  C   UNL     1       3.341   5.085  19.736  0.00  0.00    +0.000 A 
ATOM      3  C   UNL     1       2.809   6.363  19.501  0.00  0.00    +0.000 A 
ATOM      4  C   UNL     1       1.983   7.051  20.395  0.00  0.00    +0.000 A 
ATOM      5  N   UNL     1       1.407   8.255  20.143  0.00  0.00    +0.000 NA
ATOM      6  C   UNL     1       1.664   8.828  18.942  0.00  0.00    +0.000 A 
ATOM      7  C   UNL     1       2.527   8.241  18.019  0.00  0.00    +0.000 A 
ATOM      8  C   UNL     1       3.087   6.994  18.288  0.00  0.00    +0.000 A 
ATOM      9  C   UNL     1       3.907   6.367  17.344  0.00  0.00    +0.000 A 
ATOM     10  C   UNL     1       4.395   5.075  17.548  0.00  0.00    +0.000 A 
ENDROOT
BRANCH   6  11
ATOM     11  C   UNL     1       1.026  10.122  18.651  0.00  0.00    +0.000 A 
ATOM     12  C   UNL     1       1.743  11.326  18.770  0.00  0.00    +0.000 A 
ATOM     13  C   UNL     1       1.106  12.555  18.653  0.00  0.00    +0.000 A 
ATOM     14  C   UNL     1      -0.263  12.604  18.411  0.00  0.00    +0.000 A 
ATOM     15  C   UNL     1      -1.023  11.430  18.230  0.00  0.00    +0.000 A 
ATOM     16  C   UNL     1      -0.341  10.201  18.327  0.00  0.00    +0.000 A 
BRANCH  15  17
ATOM     17  C   UNL     1      -2.488  11.497  18.012  0.00  0.00    +0.000 A 
ATOM     18  C   UNL     1      -3.364  11.923  19.028  0.00  0.00    +0.000 A 
ATOM     19  C   UNL     1      -4.752  11.913  18.850  0.00  0.00    +0.000 A 
ATOM     20  C   UNL     1      -5.296  11.495  17.641  0.00  0.00    +0.000 A 
ATOM     21  C   UNL     1      -4.454  11.094  16.610  0.00  0.00    +0.000 A 
ATOM     22  C   UNL     1      -3.069  11.092  16.796  0.00  0.00    +0.000 A 
ENDBRANCH  15  17
ENDBRANCH   6  11
BRANCH   1  24
ATOM     23  C   UNL     1       3.454   2.126  18.701  0.00  0.00    +0.000 C 
ATOM     24  O   UNL     1       4.466   3.110  18.922  0.00  0.00    +0.000 OA
ENDBRANCH   1  24
BRANCH  10  25
ATOM     25  O   UNL     1       5.121   4.646  16.472  0.00  0.00    +0.000 OA
ATOM     26  C   UNL     1       5.315   5.515  15.370  0.00  0.00    +0.000 C 
ENDBRANCH  10  25
TORSDOF 4
ENDMDL
MODEL 2
REMARK VINA RESULT:      -7.9      0.489      1.059
REMARK  Name = 
REMARK  6 active torsions:
REMARK  status: ('A' for Active; 'I' for Inactive)
REMARK    1  A    between atoms: C_1  and  O_2
REMARK    2  A    between atoms: O_2  and  C_3
REMARK    3  A    between atoms: C_8  and  C_9
REMARK    4  A    between atoms: C_13  and  C_14
REMARK    5  A    between atoms: C_24  and  O_25
REMARK    6  A    between atoms: O_25  and  C_26
REMARK                            x       y       z     vdW  Elec       q    Type
REMARK                         _______ _______ _______ _____ _____    ______ ____
ROOT
ATOM      1  C   UNL     1       4.038   4.448  18.639  0.00  0.00    +0.000 A 
ATOM      2  C   UNL     1       3.370   5.119  19.682  0.00  0.00    +0.000 A 
ATOM      3  C   UNL     1       2.813   6.392  19.483  0.00  0.00    +0.000 A 
ATOM      4  C   UNL     1       2.038   7.072  20.427  0.00  0.00    +0.000 A 
ATOM      5  N   UNL     1       1.437   8.271  20.213  0.00  0.00    +0.000 NA
ATOM      6  C   UNL     1       1.613   8.847  18.999  0.00  0.00    +0.000 A 
ATOM      7  C   UNL     1       2.423   8.268  18.024  0.00  0.00    +0.000 A 
ATOM      8  C   UNL     1       3.010   7.027  18.255  0.00  0.00    +0.000 A 
ATOM      9  C   UNL     1       3.775   6.408  17.262  0.00  0.00    +0.000 A 
ATOM     10  C   UNL     1       4.286   5.120  17.433  0.00  0.00    +0.000 A 
ENDROOT
BRANCH   6  11
ATOM     11  C   UNL     1       0.947  10.135  18.751  0.00  0.00    +0.000 A 
ATOM     12  C   UNL     1       1.604  11.352  19.006  0.00  0.00    +0.000 A 
ATOM     13  C   UNL     1       0.929  12.563  18.927  0.00  0.00    +0.000 A 
ATOM     14  C   UNL     1      -0.420  12.582  18.585  0.00  0.00    +0.000 A 
ATOM     15  C   UNL     1      -1.117  11.398  18.266  0.00  0.00    +0.000 A 
ATOM     16  C   UNL     1      -0.395  10.189  18.331  0.00  0.00    +0.000 A 
BRANCH  15  17
ATOM     17  C   UNL     1      -2.563  11.429  17.944  0.00  0.00    +0.000 A 
ATOM     18  C   UNL     1      -3.054  10.952  16.714  0.00  0.00    +0.000 A 
ATOM     19  C   UNL     1      -4.409  11.052  16.377  0.00  0.00    +0.000 A 
ATOM     20  C   UNL     1      -5.309  11.613  17.275  0.00  0.00    +0.000 A 
ATOM     21  C   UNL     1      -4.858  12.068  18.508  0.00  0.00    +0.000 A 
ATOM     22  C   UNL     1      -3.503  11.980  18.836  0.00  0.00    +0.000 A 
ENDBRANCH  15  17
ENDBRANCH   6  11
BRANCH   1  24
ATOM     23  C   UNL     1       4.081   2.540  20.030  0.00  0.00    +0.000 C 
ATOM     24  O   UNL     1       4.461   3.155  18.797  0.00  0.00    +0.000 OA
ENDBRANCH   1  24
BRANCH  10  25
ATOM     25  O   UNL     1       4.948   4.699  16.314  0.00  0.00    +0.000 OA
ATOM     26  C   UNL     1       6.356   4.550  16.350  0.00  0.00    +0.000 C 
ENDBRANCH  10  25
TORSDOF 4
ENDMDL
MODEL 3
REMARK VINA RESULT:      -7.8      3.302      9.012
REMARK  Name = 
REMARK  6 active torsions:
REMARK  status: ('A' for Active; 'I' for Inactive)
REMARK    1  A    between atoms: C_1  and  O_2
REMARK    2  A    between atoms: O_2  and  C_3
REMARK    3  A    between atoms: C_8  and  C_9
REMARK    4  A    between atoms: C_13  and  C_14
REMARK    5  A    between atoms: C_24  and  O_25
REMARK    6  A    between atoms: O_25  and  C_26
REMARK                            x       y       z     vdW  Elec       q    Type
REMARK                         _______ _______ _______ _____ _____    ______ ____
ROOT
ATOM      1  C   UNL     1      -0.465  10.549  20.045  0.00  0.00    +0.000 A 
ATOM      2  C   UNL     1       0.328  10.476  18.883  0.00  0.00    +0.000 A 
ATOM      3  C   UNL     1       1.263   9.442  18.711  0.00  0.00    +0.000 A 
ATOM      4  C   UNL     1       2.002   9.233  17.543  0.00  0.00    +0.000 A 
ATOM      5  N   UNL     1       2.854   8.193  17.345  0.00  0.00    +0.000 NA
ATOM      6  C   UNL     1       3.000   7.307  18.359  0.00  0.00    +0.000 A 
ATOM      7  C   UNL     1       2.349   7.476  19.580  0.00  0.00    +0.000 A 
ATOM      8  C   UNL     1       1.462   8.535  19.753  0.00  0.00    +0.000 A 
ATOM      9  C   UNL     1       0.758   8.682  20.952  0.00  0.00    +0.000 A 
ATOM     10  C   UNL     1      -0.212   9.674  21.111  0.00  0.00    +0.000 A 
ENDROOT
BRANCH   6  11
ATOM     11  C   UNL     1       3.903   6.165  18.145  0.00  0.00    +0.000 A 
ATOM     12  C   UNL     1       4.406   5.426  19.230  0.00  0.00    +0.000 A 
ATOM     13  C   UNL     1       5.380   4.452  19.046  0.00  0.00    +0.000 A 
ATOM     14  C   UNL     1       5.868   4.196  17.768  0.00  0.00    +0.000 A 
ATOM     15  C   UNL     1       5.363   4.869  16.636  0.00  0.00    +0.000 A 
ATOM     16  C   UNL     1       4.356   5.830  16.856  0.00  0.00    +0.000 A 
BRANCH  15  17
ATOM     17  C   UNL     1       5.921   4.615  15.287  0.00  0.00    +0.000 A 
ATOM     18  C   UNL     1       7.125   5.209  14.864  0.00  0.00    +0.000 A 
ATOM     19  C   UNL     1       7.613   5.032  13.564  0.00  0.00    +0.000 A 
ATOM     20  C   UNL     1       6.916   4.236  12.662  0.00  0.00    +0.000 A 
ATOM     21  C   UNL     1       5.739   3.614  13.059  0.00  0.00    +0.000 A 
ATOM     22  C   UNL     1       5.246   3.804  14.354  0.00  0.00    +0.000 A 
ENDBRANCH  15  17
ENDBRANCH   6  11
BRANCH   1  24
ATOM     23  C   UNL     1      -1.997  11.939  18.905  0.00  0.00    +0.000 C 
ATOM     24  O   UNL     1      -1.467  11.477  20.149  0.00  0.00    +0.000 OA
ENDBRANCH   1  24
BRANCH  10  25
ATOM     25  O   UNL     1      -0.808   9.590  22.338  0.00  0.00    +0.000 OA
ATOM     26  C   UNL     1      -0.003   9.535  23.502  0.00  0.00    +0.000 C 
ENDBRANCH  10  25
TORSDOF 4
ENDMDL
MODEL 4
REMARK VINA RESULT:      -7.8      3.756      8.904
REMARK  Name = 
REMARK  6 active torsions:
REMARK  status: ('A' for Active; 'I' for Inactive)
REMARK    1  A    between atoms: C_1  and  O_2
REMARK    2  A    between atoms: O_2  and  C_3
REMARK    3  A    between atoms: C_8  and  C_9
REMARK    4  A    between atoms: C_13  and  C_14
REMARK    5  A    between atoms: C_24  and  O_25
REMARK    6  A    between atoms: O_25  and  C_26
REMARK                            x       y       z     vdW  Elec       q    Type
REMARK                         _______ _______ _______ _____ _____    ______ ____
ROOT
ATOM      1  C   UNL     1       0.485   9.521  19.925  0.00  0.00    +0.000 A 
ATOM      2  C   UNL     1       0.832   8.222  20.344  0.00  0.00    +0.000 A 
ATOM      3  C   UNL     1       1.876   7.517  19.723  0.00  0.00    +0.000 A 
ATOM      4  C   UNL     1       2.357   6.277  20.154  0.00  0.00    +0.000 A 
ATOM      5  N   UNL     1       3.412   5.625  19.601  0.00  0.00    +0.000 NA
ATOM      6  C   UNL     1       4.032   6.220  18.553  0.00  0.00    +0.000 A 
ATOM      7  C   UNL     1       3.577   7.425  18.021  0.00  0.00    +0.000 A 
ATOM      8  C   UNL     1       2.508   8.088  18.618  0.00  0.00    +0.000 A 
ATOM      9  C   UNL     1       2.081   9.327  18.130  0.00  0.00    +0.000 A 
ATOM     10  C   UNL     1       1.081  10.058  18.775  0.00  0.00    +0.000 A 
ENDROOT
BRANCH   6  11
ATOM     11  C   UNL     1       5.191   5.532  17.964  0.00  0.00    +0.000 A 
ATOM     12  C   UNL     1       6.333   5.247  18.734  0.00  0.00    +0.000 A 
ATOM     13  C   UNL     1       7.487   4.743  18.147  0.00  0.00    +0.000 A 
ATOM     14  C   UNL     1       7.520   4.510  16.776  0.00  0.00    +0.000 A 
ATOM     15  C   UNL     1       6.388   4.727  15.962  0.00  0.00    +0.000 A 
ATOM     16  C   UNL     1       5.226   5.212  16.594  0.00  0.00    +0.000 A 
BRANCH  15  17
ATOM     17  C   UNL     1       6.451   4.513  14.497  0.00  0.00    +0.000 A 
ATOM     18  C   UNL     1       5.526   3.685  13.833  0.00  0.00    +0.000 A 
ATOM     19  C   UNL     1       5.631   3.421  12.463  0.00  0.00    +0.000 A 
ATOM     20  C   UNL     1       6.655   3.997  11.719  0.00  0.00    +0.000 A 
ATOM     21  C   UNL     1       7.567   4.840  12.342  0.00  0.00    +0.000 A 
ATOM     22  C   UNL     1       7.468   5.092  13.714  0.00  0.00    +0.000 A 
ENDBRANCH  15  17
ENDBRANCH   6  11
BRANCH   1  24
ATOM     23  C   UNL     1      -0.309  10.208  22.040  0.00  0.00    +0.000 C 
ATOM     24  O   UNL     1      -0.441  10.255  20.618  0.00  0.00    +0.000 OA
ENDBRANCH   1  24
BRANCH  10  25
ATOM     25  O   UNL     1       0.871  11.259  18.157  0.00  0.00    +0.000 OA
ATOM     26  C   UNL     1       1.616  12.393  18.563  0.00  0.00    +0.000 C 
ENDBRANCH  10  25
TORSDOF 4
ENDMDL
MODEL 5
REMARK VINA RESULT:      -7.7      2.747      3.981
REMARK  Name = 
REMARK  6 active torsions:
REMARK  status: ('A' for Active; 'I' for Inactive)
REMARK    1  A    between atoms: C_1  and  O_2
REMARK    2  A    between atoms: O_2  and  C_3
REMARK    3  A    between atoms: C_8  and  C_9
REMARK    4  A    between atoms: C_13  and  C_14
REMARK    5  A    between atoms: C_24  and  O_25
REMARK    6  A    between atoms: O_25  and  C_26
REMARK                            x       y       z     vdW  Elec       q    Type
REMARK                         _______ _______ _______ _____ _____    ______ ____
ROOT
ATOM      1  C   UNL     1       3.587   4.435  18.569  0.00  0.00    +0.000 A 
ATOM      2  C   UNL     1       3.241   5.676  17.999  0.00  0.00    +0.000 A 
ATOM      3  C   UNL     1       2.548   6.644  18.743  0.00  0.00    +0.000 A 
ATOM      4  C   UNL     1       2.271   7.938  18.291  0.00  0.00    +0.000 A 
ATOM      5  N   UNL     1       1.664   8.900  19.033  0.00  0.00    +0.000 NA
ATOM      6  C   UNL     1       1.296   8.573  20.295  0.00  0.00    +0.000 A 
ATOM      7  C   UNL     1       1.477   7.288  20.802  0.00  0.00    +0.000 A 
ATOM      8  C   UNL     1       2.123   6.323  20.033  0.00  0.00    +0.000 A 
ATOM      9  C   UNL     1       2.364   5.048  20.552  0.00  0.00    +0.000 A 
ATOM     10  C   UNL     1       3.100   4.098  19.840  0.00  0.00    +0.000 A 
ENDROOT
BRANCH   6  11
ATOM     11  C   UNL     1       0.659   9.617  21.113  0.00  0.00    +0.000 A 
ATOM     12  C   UNL     1       0.104   9.315  22.370  0.00  0.00    +0.000 A 
ATOM     13  C   UNL     1      -0.636  10.257  23.073  0.00  0.00    +0.000 A 
ATOM     14  C   UNL     1      -0.833  11.524  22.534  0.00  0.00    +0.000 A 
ATOM     15  C   UNL     1      -0.256  11.901  21.303  0.00  0.00    +0.000 A 
ATOM     16  C   UNL     1       0.511  10.930  20.629  0.00  0.00    +0.000 A 
BRANCH  15  17
ATOM     17  C   UNL     1      -0.509  13.241  20.722  0.00  0.00    +0.000 A 
ATOM     18  C   UNL     1       0.041  13.622  19.484  0.00  0.00    +0.000 A 
ATOM     19  C   UNL     1      -0.132  14.913  18.971  0.00  0.00    +0.000 A 
ATOM     20  C   UNL     1      -0.880  15.847  19.678  0.00  0.00    +0.000 A 
ATOM     21  C   UNL     1      -1.457  15.492  20.890  0.00  0.00    +0.000 A 
ATOM     22  C   UNL     1      -1.271  14.206  21.407  0.00  0.00    +0.000 A 
ENDBRANCH  15  17
ENDBRANCH   6  11
BRANCH   1  24
ATOM     23  C   UNL     1       5.048   4.089  16.745  0.00  0.00    +0.000 C 
ATOM     24  O   UNL     1       4.379   3.549  17.887  0.00  0.00    +0.000 OA
ENDBRANCH   1  24
BRANCH  10  25
ATOM     25  O   UNL     1       3.258   2.951  20.565  0.00  0.00    +0.000 OA
ATOM     26  C   UNL     1       2.267   2.577  21.506  0.00  0.00    +0.000 C 
ENDBRANCH  10  25
TORSDOF 4
ENDMDL
MODEL 6
REMARK VINA RESULT:      -7.7      3.815      9.145
REMARK  Name = 
REMARK  6 active torsions:
REMARK  status: ('A' for Active; 'I' for Inactive)
REMARK    1  A    between atoms: C_1  and  O_2
REMARK    2  A    between atoms: O_2  and  C_3
REMARK    3  A    between atoms: C_8  and  C_9
REMARK    4  A    between atoms: C_13  and  C_14
REMARK    5  A    between atoms: C_24  and  O_25
REMARK    6  A    between atoms: O_25  and  C_26
REMARK                            x       y       z     vdW  Elec       q    Type
REMARK                         _______ _______ _______ _____ _____    ______ ____
ROOT
ATOM      1  C   UNL     1      -0.698  12.554  20.612  0.00  0.00    +0.000 A 
ATOM      2  C   UNL     1      -0.066  12.072  19.449  0.00  0.00    +0.000 A 
ATOM      3  C   UNL     1       0.572  10.822  19.438  0.00  0.00    +0.000 A 
ATOM      4  C   UNL     1       1.119  10.224  18.299  0.00  0.00    +0.000 A 
ATOM      5  N   UNL     1       1.674   8.984  18.270  0.00  0.00    +0.000 NA
ATOM      6  C   UNL     1       1.704   8.288  19.432  0.00  0.00    +0.000 A 
ATOM      7  C   UNL     1       1.239   8.836  20.626  0.00  0.00    +0.000 A 
ATOM      8  C   UNL     1       0.652  10.098  20.629  0.00  0.00    +0.000 A 
ATOM      9  C   UNL     1       0.128  10.633  21.810  0.00  0.00    +0.000 A 
ATOM     10  C   UNL     1      -0.556  11.851  21.817  0.00  0.00    +0.000 A 
ENDROOT
BRANCH   6  11
ATOM     11  C   UNL     1       2.282   6.935  19.404  0.00  0.00    +0.000 A 
ATOM     12  C   UNL     1       1.957   5.988  20.391  0.00  0.00    +0.000 A 
ATOM     13  C   UNL     1       2.618   4.768  20.461  0.00  0.00    +0.000 A 
ATOM     14  C   UNL     1       3.618   4.470  19.540  0.00  0.00    +0.000 A 
ATOM     15  C   UNL     1       3.949   5.359  18.497  0.00  0.00    +0.000 A 
ATOM     16  C   UNL     1       3.240   6.575  18.439  0.00  0.00    +0.000 A 
BRANCH  15  17
ATOM     17  C   UNL     1       5.044   5.045  17.548  0.00  0.00    +0.000 A 
ATOM     18  C   UNL     1       6.336   4.714  17.998  0.00  0.00    +0.000 A 
ATOM     19  C   UNL     1       7.389   4.494  17.103  0.00  0.00    +0.000 A 
ATOM     20  C   UNL     1       7.168   4.578  15.733  0.00  0.00    +0.000 A 
ATOM     21  C   UNL     1       5.896   4.877  15.259  0.00  0.00    +0.000 A 
ATOM     22  C   UNL     1       4.849   5.111  16.155  0.00  0.00    +0.000 A 
ENDBRANCH  15  17
ENDBRANCH   6  11
BRANCH   1  24
ATOM     23  C   UNL     1      -2.850  13.524  20.529  0.00  0.00    +0.000 C 
ATOM     24  O   UNL     1      -1.434  13.709  20.580  0.00  0.00    +0.000 OA
ENDBRANCH   1  24
BRANCH  10  25
ATOM     25  O   UNL     1      -1.029  12.145  23.065  0.00  0.00    +0.000 OA
ATOM     26  C   UNL     1      -2.290  11.644  23.470  0.00  0.00    +0.000 C 
ENDBRANCH  10  25
TORSDOF 4
ENDMDL
MODEL 7
REMARK VINA RESULT:      -7.7      1.302      2.606
REMARK  Name = 
REMARK  6 active torsions:
REMARK  status: ('A' for Active; 'I' for Inactive)
REMARK    1  A    between atoms: C_1  and  O_2
REMARK    2  A    between atoms: O_2  and  C_3
REMARK    3  A    between atoms: C_8  and  C_9
REMARK    4  A    between atoms: C_13  and  C_14
REMARK    5  A    between atoms: C_24  and  O_25
REMARK    6  A    between atoms: O_25  and  C_26
REMARK                            x       y       z     vdW  Elec       q    Type
REMARK                         _______ _______ _______ _____ _____    ______ ____
ROOT
ATOM      1  C   UNL     1       3.913   4.259  19.663  0.00  0.00    +0.000 A 
ATOM      2  C   UNL     1       4.051   5.169  18.597  0.00  0.00    +0.000 A 
ATOM      3  C   UNL     1       3.288   6.347  18.550  0.00  0.00    +0.000 A 
ATOM      4  C   UNL     1       3.447   7.354  17.593  0.00  0.00    +0.000 A 
ATOM      5  N   UNL     1       2.762   8.526  17.586  0.00  0.00    +0.000 NA
ATOM      6  C   UNL     1       1.855   8.724  18.573  0.00  0.00    +0.000 A 
ATOM      7  C   UNL     1       1.589   7.745  19.530  0.00  0.00    +0.000 A 
ATOM      8  C   UNL     1       2.320   6.560  19.533  0.00  0.00    +0.000 A 
ATOM      9  C   UNL     1       2.104   5.597  20.523  0.00  0.00    +0.000 A 
ATOM     10  C   UNL     1       2.895   4.450  20.608  0.00  0.00    +0.000 A 
ENDROOT
BRANCH   6  11
ATOM     11  C   UNL     1       1.125  10.001  18.586  0.00  0.00    +0.000 A 
ATOM     12  C   UNL     1       1.714  11.167  19.106  0.00  0.00    +0.000 A 
ATOM     13  C   UNL     1       0.977  12.333  19.267  0.00  0.00    +0.000 A 
ATOM     14  C   UNL     1      -0.366  12.358  18.906  0.00  0.00    +0.000 A 
ATOM     15  C   UNL     1      -0.996  11.235  18.329  0.00  0.00    +0.000 A 
ATOM     16  C   UNL     1      -0.212  10.077  18.155  0.00  0.00    +0.000 A 
BRANCH  15  17
ATOM     17  C   UNL     1      -2.438  11.263  17.987  0.00  0.00    +0.000 A 
ATOM     18  C   UNL     1      -2.914  10.752  16.765  0.00  0.00    +0.000 A 
ATOM     19  C   UNL     1      -4.265  10.848  16.408  0.00  0.00    +0.000 A 
ATOM     20  C   UNL     1      -5.174  11.441  17.276  0.00  0.00    +0.000 A 
ATOM     21  C   UNL     1      -4.737  11.930  18.501  0.00  0.00    +0.000 A 
ATOM     22  C   UNL     1      -3.386  11.846  18.850  0.00  0.00    +0.000 A 
ENDBRANCH  15  17
ENDBRANCH   6  11
BRANCH   1  24
ATOM     23  C   UNL     1       4.223   1.948  19.285  0.00  0.00    +0.000 C 
ATOM     24  O   UNL     1       4.753   3.182  19.775  0.00  0.00    +0.000 OA
ENDBRANCH   1  24
BRANCH  10  25
ATOM     25  O   UNL     1       2.542   3.685  21.684  0.00  0.00    +0.000 OA
ATOM     26  C   UNL     1       1.405   2.844  21.600  0.00  0.00    +0.000 C 
ENDBRANCH  10  25
TORSDOF 4
ENDMDL
MODEL 8
REMARK VINA RESULT:      -7.7      2.205      3.321
REMARK  Name = 
REMARK  6 active torsions:
REMARK  status: ('A' for Active; 'I' for Inactive)
REMARK    1  A    between atoms: C_1  and  O_2
REMARK    2  A    between atoms: O_2  and  C_3
REMARK    3  A    between atoms: C_8  and  C_9
REMARK    4  A    between atoms: C_13  and  C_14
REMARK    5  A    between atoms: C_24  and  O_25
REMARK    6  A    between atoms: O_25  and  C_26
REMARK                            x       y       z     vdW  Elec       q    Type
REMARK                         _______ _______ _______ _____ _____    ______ ____
ROOT
ATOM      1  C   UNL     1       3.448   4.153  19.423  0.00  0.00    +0.000 A 
ATOM      2  C   UNL     1       3.534   5.070  18.358  0.00  0.00    +0.000 A 
ATOM      3  C   UNL     1       2.949   6.343  18.451  0.00  0.00    +0.000 A 
ATOM      4  C   UNL     1       3.088   7.349  17.490  0.00  0.00    +0.000 A 
ATOM      5  N   UNL     1       2.584   8.605  17.610  0.00  0.00    +0.000 NA
ATOM      6  C   UNL     1       1.891   8.893  18.738  0.00  0.00    +0.000 A 
ATOM      7  C   UNL     1       1.652   7.930  19.716  0.00  0.00    +0.000 A 
ATOM      8  C   UNL     1       2.198   6.656  19.586  0.00  0.00    +0.000 A 
ATOM      9  C   UNL     1       2.015   5.700  20.589  0.00  0.00    +0.000 A 
ATOM     10  C   UNL     1       2.638   4.451  20.528  0.00  0.00    +0.000 A 
ENDROOT
BRANCH   6  11
ATOM     11  C   UNL     1       1.362  10.258  18.886  0.00  0.00    +0.000 A 
ATOM     12  C   UNL     1       2.011  11.354  18.291  0.00  0.00    +0.000 A 
ATOM     13  C   UNL     1       1.610  12.657  18.557  0.00  0.00    +0.000 A 
ATOM     14  C   UNL     1       0.545  12.889  19.423  0.00  0.00    +0.000 A 
ATOM     15  C   UNL     1      -0.177  11.827  20.006  0.00  0.00    +0.000 A 
ATOM     16  C   UNL     1       0.240  10.518  19.693  0.00  0.00    +0.000 A 
BRANCH  15  17
ATOM     17  C   UNL     1      -1.283  12.090  20.958  0.00  0.00    +0.000 A 
ATOM     18  C   UNL     1      -1.197  11.707  22.310  0.00  0.00    +0.000 A 
ATOM     19  C   UNL     1      -2.270  11.884  23.191  0.00  0.00    +0.000 A 
ATOM     20  C   UNL     1      -3.448  12.471  22.743  0.00  0.00    +0.000 A 
ATOM     21  C   UNL     1      -3.552  12.883  21.420  0.00  0.00    +0.000 A 
ATOM     22  C   UNL     1      -2.484  12.692  20.539  0.00  0.00    +0.000 A 
ENDBRANCH  15  17
ENDBRANCH   6  11
BRANCH   1  24
ATOM     23  C   UNL     1       3.561   1.967  18.536  0.00  0.00    +0.000 C 
ATOM     24  O   UNL     1       4.133   2.967  19.381  0.00  0.00    +0.000 OA
ENDBRANCH   1  24
BRANCH  10  25
ATOM     25  O   UNL     1       2.363   3.708  21.642  0.00  0.00    +0.000 OA
ATOM     26  C   UNL     1       1.408   2.665  21.566  0.00  0.00    +0.000 C 
ENDBRANCH  10  25
TORSDOF 4
ENDMDL
MODEL 9
REMARK VINA RESULT:      -7.7      2.877      3.964
REMARK  Name = 
REMARK  6 active torsions:
REMARK  status: ('A' for Active; 'I' for Inactive)
REMARK    1  A    between atoms: C_1  and  O_2
REMARK    2  A    between atoms: O_2  and  C_3
REMARK    3  A    between atoms: C_8  and  C_9
REMARK    4  A    between atoms: C_13  and  C_14
REMARK    5  A    between atoms: C_24  and  O_25
REMARK    6  A    between atoms: O_25  and  C_26
REMARK                            x       y       z     vdW  Elec       q    Type
REMARK                         _______ _______ _______ _____ _____    ______ ____
ROOT
ATOM      1  C   UNL     1       3.413   4.301  18.907  0.00  0.00    +0.000 A 
ATOM      2  C   UNL     1       3.185   5.552  18.301  0.00  0.00    +0.000 A 
ATOM      3  C   UNL     1       2.500   6.571  18.983  0.00  0.00    +0.000 A 
ATOM      4  C   UNL     1       2.335   7.872  18.499  0.00  0.00    +0.000 A 
ATOM      5  N   UNL     1       1.737   8.880  19.185  0.00  0.00    +0.000 NA
ATOM      6  C   UNL     1       1.261   8.594  20.421  0.00  0.00    +0.000 A 
ATOM      7  C   UNL     1       1.328   7.308  20.953  0.00  0.00    +0.000 A 
ATOM      8  C   UNL     1       1.966   6.295  20.243  0.00  0.00    +0.000 A 
ATOM      9  C   UNL     1       2.092   5.015  20.792  0.00  0.00    +0.000 A 
ATOM     10  C   UNL     1       2.818   4.013  20.144  0.00  0.00    +0.000 A 
ENDROOT
BRANCH   6  11
ATOM     11  C   UNL     1       0.633   9.687  21.181  0.00  0.00    +0.000 A 
ATOM     12  C   UNL     1      -0.025   9.437  22.398  0.00  0.00    +0.000 A 
ATOM     13  C   UNL     1      -0.755  10.432  23.037  0.00  0.00    +0.000 A 
ATOM     14  C   UNL     1      -0.838  11.700  22.471  0.00  0.00    +0.000 A 
ATOM     15  C   UNL     1      -0.155  12.023  21.279  0.00  0.00    +0.000 A 
ATOM     16  C   UNL     1       0.598  10.998  20.672  0.00  0.00    +0.000 A 
BRANCH  15  17
ATOM     17  C   UNL     1      -0.286  13.366  20.667  0.00  0.00    +0.000 A 
ATOM     18  C   UNL     1      -1.356  14.221  20.989  0.00  0.00    +0.000 A 
ATOM     19  C   UNL     1      -1.524  15.457  20.354  0.00  0.00    +0.000 A 
ATOM     20  C   UNL     1      -0.609  15.876  19.394  0.00  0.00    +0.000 A 
ATOM     21  C   UNL     1       0.473  15.065  19.075  0.00  0.00    +0.000 A 
ATOM     22  C   UNL     1       0.630  13.824  19.700  0.00  0.00    +0.000 A 
ENDBRANCH  15  17
ENDBRANCH   6  11
BRANCH   1  24
ATOM     23  C   UNL     1       3.493   2.221  17.791  0.00  0.00    +0.000 C 
ATOM     24  O   UNL     1       4.196   3.359  18.293  0.00  0.00    +0.000 OA
ENDBRANCH   1  24
BRANCH  10  25
ATOM     25  O   UNL     1       2.855   2.869  20.891  0.00  0.00    +0.000 OA
ATOM     26  C   UNL     1       1.720   2.496  21.652  0.00  0.00    +0.000 C 
ENDBRANCH  10  25
TORSDOF 4
ENDMDL
