MODEL 1
REMARK VINA RESULT:      -7.3      0.000      0.000
REMARK  Name = 
REMARK  10 active torsions:
REMARK  status: ('A' for Active; 'I' for Inactive)
REMARK    1  A    between atoms: C_1  and  C_2
REMARK    2  A    between atoms: C_2  and  O_3
REMARK    3  A    between atoms: O_3  and  C_4
REMARK    4  A    between atoms: C_4  and  C_6
REMARK    5  A    between atoms: C_7  and  C_8
REMARK    6  A    between atoms: C_8  and  C_9
REMARK    7  A    between atoms: C_8  and  C_10
REMARK    8  A    between atoms: C_8  and  C_11
REMARK    9  A    between atoms: C_16  and  C_17
REMARK   10  A    between atoms: C_21  and  O_22
REMARK                            x       y       z     vdW  Elec       q    Type
REMARK                         _______ _______ _______ _____ _____    ______ ____
ROOT
ATOM      1  C   UNL     1       4.361   5.649  18.697  0.00  0.00    +0.000 C 
ATOM      2  C   UNL     1       4.460   6.328  17.521  0.00  0.00    +0.000 C 
ATOM      3  N   UNL     1       3.553   7.363  17.326  0.00  0.00    +0.000 N 
ATOM      4  C   UNL     1       2.625   7.812  18.208  0.00  0.00    +0.000 C 
ATOM      5  S   UNL     1       1.649   9.103  17.856  0.00  0.00    +0.000 S 
ATOM      6  N   UNL     1       2.544   7.174  19.388  0.00  0.00    +0.000 N 
ATOM      7  C   UNL     1       3.262   5.954  19.707  0.00  0.00    +0.000 C 
ATOM      8  H   UNL     1       3.568   7.907  16.473  0.00  0.00    +0.000 HD
ATOM      9  H   UNL     1       1.827   7.484  20.035  0.00  0.00    +0.000 HD
ENDROOT
BRANCH   7  10
ATOM     10  C   UNL     1       2.272   4.808  19.862  0.00  0.00    +0.000 A 
ATOM     11  C   UNL     1       1.537   4.318  18.770  0.00  0.00    +0.000 A 
ATOM     12  C   UNL     1       0.717   3.195  18.912  0.00  0.00    +0.000 A 
ATOM     13  C   UNL     1       0.629   2.544  20.144  0.00  0.00    +0.000 A 
ATOM     14  C   UNL     1       1.337   3.039  21.231  0.00  0.00    +0.000 A 
ATOM     15  C   UNL     1       2.139   4.167  21.106  0.00  0.00    +0.000 A 
BRANCH  14  16
ATOM     16  O   UNL     1       1.298   2.429  22.450  0.00  0.00    +0.000 OA
ATOM     17  H   UNL     1       0.951   3.065  23.100  0.00  0.00    +0.000 HD
ENDBRANCH  14  16
ENDBRANCH   7  10
BRANCH   2  18
ATOM     18  C   UNL     1       5.465   6.097  16.343  0.00  0.00    +0.000 C 
ATOM     19  C   UNL     1       6.930   6.269  16.811  0.00  0.00    +0.000 C 
ATOM     20  C   UNL     1       5.413   4.643  15.778  0.00  0.00    +0.000 C 
ATOM     21  C   UNL     1       5.161   6.996  15.123  0.00  0.00    +0.000 C 
ENDBRANCH   2  18
BRANCH   1  22
ATOM     22  C   UNL     1       5.245   4.514  19.118  0.00  0.00    +0.000 C 
ATOM     23  O   UNL     1       6.193   4.583  19.878  0.00  0.00    +0.000 OA
BRANCH  22  24
ATOM     24  O   UNL     1       4.847   3.360  18.521  0.00  0.00    +0.000 OA
BRANCH  24  26
ATOM     25  C   UNL     1       3.756   1.228  18.661  0.00  0.00    +0.000 C 
ATOM     26  C   UNL     1       4.568   2.265  19.405  0.00  0.00    +0.000 C 
ENDBRANCH  24  26
ENDBRANCH  22  24
ENDBRANCH   1  22
TORSDOF 6
ENDMDL
MODEL 2
REMARK VINA RESULT:      -7.3      1.852      5.114
REMARK  Name = 
REMARK  10 active torsions:
REMARK  status: ('A' for Active; 'I' for Inactive)
REMARK    1  A    between atoms: C_1  and  C_2
REMARK    2  A    between atoms: C_2  and  O_3
REMARK    3  A    between atoms: O_3  and  C_4
REMARK    4  A    between atoms: C_4  and  C_6
REMARK    5  A    between atoms: C_7  and  C_8
REMARK    6  A    between atoms: C_8  and  C_9
REMARK    7  A    between atoms: C_8  and  C_10
REMARK    8  A    between atoms: C_8  and  C_11
REMARK    9  A    between atoms: C_16  and  C_17
REMARK   10  A    between atoms: C_21  and  O_22
REMARK                            x       y       z     vdW  Elec       q    Type
REMARK                         _______ _______ _______ _____ _____    ______ ____
ROOT
ATOM      1  C   UNL     1       3.515   4.690  18.031  0.00  0.00    +0.000 C 
ATOM      2  C   UNL     1       2.628   4.515  19.049  0.00  0.00    +0.000 C 
ATOM      3  N   UNL     1       2.143   5.668  19.653  0.00  0.00    +0.000 N 
ATOM      4  C   UNL     1       2.406   6.950  19.294  0.00  0.00    +0.000 C 
ATOM      5  S   UNL     1       1.701   8.230  20.075  0.00  0.00    +0.000 S 
ATOM      6  N   UNL     1       3.250   7.136  18.265  0.00  0.00    +0.000 N 
ATOM      7  C   UNL     1       4.011   6.074  17.632  0.00  0.00    +0.000 C 
ATOM      8  H   UNL     1       1.483   5.610  20.418  0.00  0.00    +0.000 HD
ATOM      9  H   UNL     1       3.477   8.094  18.018  0.00  0.00    +0.000 HD
ENDROOT
BRANCH   7  10
ATOM     10  C   UNL     1       5.493   6.273  17.917  0.00  0.00    +0.000 A 
ATOM     11  C   UNL     1       6.275   7.159  17.159  0.00  0.00    +0.000 A 
ATOM     12  C   UNL     1       7.605   7.410  17.508  0.00  0.00    +0.000 A 
ATOM     13  C   UNL     1       8.166   6.783  18.623  0.00  0.00    +0.000 A 
ATOM     14  C   UNL     1       7.402   5.890  19.361  0.00  0.00    +0.000 A 
ATOM     15  C   UNL     1       6.085   5.619  19.010  0.00  0.00    +0.000 A 
BRANCH  14  16
ATOM     16  O   UNL     1       7.898   5.266  20.467  0.00  0.00    +0.000 OA
ATOM     17  H   UNL     1       7.176   4.767  20.888  0.00  0.00    +0.000 HD
ENDBRANCH  14  16
ENDBRANCH   7  10
BRANCH   2  18
ATOM     18  C   UNL     1       2.077   3.174  19.641  0.00  0.00    +0.000 C 
ATOM     19  C   UNL     1       3.201   2.355  20.319  0.00  0.00    +0.000 C 
ATOM     20  C   UNL     1       1.029   3.398  20.777  0.00  0.00    +0.000 C 
ATOM     21  C   UNL     1       1.327   2.327  18.588  0.00  0.00    +0.000 C 
ENDBRANCH   2  18
BRANCH   1  22
ATOM     22  C   UNL     1       4.146   3.590  17.233  0.00  0.00    +0.000 C 
ATOM     23  O   UNL     1       4.341   2.449  17.607  0.00  0.00    +0.000 OA
BRANCH  22  24
ATOM     24  O   UNL     1       4.491   4.042  15.997  0.00  0.00    +0.000 OA
BRANCH  24  26
ATOM     25  C   UNL     1       6.231   4.602  14.445  0.00  0.00    +0.000 C 
ATOM     26  C   UNL     1       5.787   3.644  15.528  0.00  0.00    +0.000 C 
ENDBRANCH  24  26
ENDBRANCH  22  24
ENDBRANCH   1  22
TORSDOF 6
ENDMDL
MODEL 3
REMARK VINA RESULT:      -6.7      2.015      5.175
REMARK  Name = 
REMARK  10 active torsions:
REMARK  status: ('A' for Active; 'I' for Inactive)
REMARK    1  A    between atoms: C_1  and  C_2
REMARK    2  A    between atoms: C_2  and  O_3
REMARK    3  A    between atoms: O_3  and  C_4
REMARK    4  A    between atoms: C_4  and  C_6
REMARK    5  A    between atoms: C_7  and  C_8
REMARK    6  A    between atoms: C_8  and  C_9
REMARK    7  A    between atoms: C_8  and  C_10
REMARK    8  A    between atoms: C_8  and  C_11
REMARK    9  A    between atoms: C_16  and  C_17
REMARK   10  A    between atoms: C_21  and  O_22
REMARK                            x       y       z     vdW  Elec       q    Type
REMARK                         _______ _______ _______ _____ _____    ______ ____
ROOT
ATOM      1  C   UNL     1       3.863   4.866  17.600  0.00  0.00    +0.000 C 
ATOM      2  C   UNL     1       2.901   4.589  18.522  0.00  0.00    +0.000 C 
ATOM      3  N   UNL     1       2.318   5.681  19.155  0.00  0.00    +0.000 N 
ATOM      4  C   UNL     1       2.555   6.992  18.903  0.00  0.00    +0.000 C 
ATOM      5  S   UNL     1       1.733   8.190  19.700  0.00  0.00    +0.000 S 
ATOM      6  N   UNL     1       3.476   7.278  17.966  0.00  0.00    +0.000 N 
ATOM      7  C   UNL     1       4.332   6.291  17.335  0.00  0.00    +0.000 C 
ATOM      8  H   UNL     1       1.598   5.546  19.853  0.00  0.00    +0.000 HD
ATOM      9  H   UNL     1       3.682   8.258  17.802  0.00  0.00    +0.000 HD
ENDROOT
BRANCH   7  10
ATOM     10  C   UNL     1       5.775   6.524  17.762  0.00  0.00    +0.000 A 
ATOM     11  C   UNL     1       6.557   7.538  17.186  0.00  0.00    +0.000 A 
ATOM     12  C   UNL     1       7.841   7.807  17.670  0.00  0.00    +0.000 A 
ATOM     13  C   UNL     1       8.353   7.071  18.740  0.00  0.00    +0.000 A 
ATOM     14  C   UNL     1       7.591   6.053  19.297  0.00  0.00    +0.000 A 
ATOM     15  C   UNL     1       6.322   5.765  18.810  0.00  0.00    +0.000 A 
BRANCH  14  16
ATOM     16  O   UNL     1       8.040   5.318  20.354  0.00  0.00    +0.000 OA
ATOM     17  H   UNL     1       8.394   4.477  20.015  0.00  0.00    +0.000 HD
ENDBRANCH  14  16
ENDBRANCH   7  10
BRANCH   2  18
ATOM     18  C   UNL     1       2.359   3.192  18.977  0.00  0.00    +0.000 C 
ATOM     19  C   UNL     1       0.974   3.320  19.655  0.00  0.00    +0.000 C 
ATOM     20  C   UNL     1       2.111   2.219  17.781  0.00  0.00    +0.000 C 
ATOM     21  C   UNL     1       3.357   2.439  19.885  0.00  0.00    +0.000 C 
ENDBRANCH   2  18
BRANCH   1  22
ATOM     22  C   UNL     1       4.606   3.846  16.791  0.00  0.00    +0.000 C 
ATOM     23  O   UNL     1       5.085   2.807  17.205  0.00  0.00    +0.000 OA
BRANCH  22  24
ATOM     24  O   UNL     1       4.688   4.243  15.493  0.00  0.00    +0.000 OA
BRANCH  24  26
ATOM     25  C   UNL     1       6.913   4.811  14.799  0.00  0.00    +0.000 C 
ATOM     26  C   UNL     1       5.826   3.759  14.765  0.00  0.00    +0.000 C 
ENDBRANCH  24  26
ENDBRANCH  22  24
ENDBRANCH   1  22
TORSDOF 6
ENDMDL
MODEL 4
REMARK VINA RESULT:      -6.6      0.927      2.003
REMARK  Name = 
REMARK  10 active torsions:
REMARK  status: ('A' for Active; 'I' for Inactive)
REMARK    1  A    between atoms: C_1  and  C_2
REMARK    2  A    between atoms: C_2  and  O_3
REMARK    3  A    between atoms: O_3  and  C_4
REMARK    4  A    between atoms: C_4  and  C_6
REMARK    5  A    between atoms: C_7  and  C_8
REMARK    6  A    between atoms: C_8  and  C_9
REMARK    7  A    between atoms: C_8  and  C_10
REMARK    8  A    between atoms: C_8  and  C_11
REMARK    9  A    between atoms: C_16  and  C_17
REMARK   10  A    between atoms: C_21  and  O_22
REMARK                            x       y       z     vdW  Elec       q    Type
REMARK                         _______ _______ _______ _____ _____    ______ ____
ROOT
ATOM      1  C   UNL     1       4.407   5.764  18.720  0.00  0.00    +0.000 C 
ATOM      2  C   UNL     1       4.488   6.466  17.555  0.00  0.00    +0.000 C 
ATOM      3  N   UNL     1       3.524   7.446  17.355  0.00  0.00    +0.000 N 
ATOM      4  C   UNL     1       2.554   7.826  18.224  0.00  0.00    +0.000 C 
ATOM      5  S   UNL     1       1.508   9.062  17.868  0.00  0.00    +0.000 S 
ATOM      6  N   UNL     1       2.488   7.167  19.393  0.00  0.00    +0.000 N 
ATOM      7  C   UNL     1       3.272   5.988  19.711  0.00  0.00    +0.000 C 
ATOM      8  H   UNL     1       3.524   8.002  16.510  0.00  0.00    +0.000 HD
ATOM      9  H   UNL     1       1.740   7.425  20.029  0.00  0.00    +0.000 HD
ENDROOT
BRANCH   7  10
ATOM     10  C   UNL     1       2.349   4.783  19.830  0.00  0.00    +0.000 A 
ATOM     11  C   UNL     1       1.721   4.224  18.706  0.00  0.00    +0.000 A 
ATOM     12  C   UNL     1       0.968   3.051  18.822  0.00  0.00    +0.000 A 
ATOM     13  C   UNL     1       0.842   2.421  20.061  0.00  0.00    +0.000 A 
ATOM     14  C   UNL     1       1.443   2.984  21.178  0.00  0.00    +0.000 A 
ATOM     15  C   UNL     1       2.177   4.159  21.078  0.00  0.00    +0.000 A 
BRANCH  14  16
ATOM     16  O   UNL     1       1.363   2.398  22.407  0.00  0.00    +0.000 OA
ATOM     17  H   UNL     1       1.446   1.434  22.295  0.00  0.00    +0.000 HD
ENDBRANCH  14  16
ENDBRANCH   7  10
BRANCH   2  18
ATOM     18  C   UNL     1       5.529   6.312  16.395  0.00  0.00    +0.000 C 
ATOM     19  C   UNL     1       5.810   4.822  16.086  0.00  0.00    +0.000 C 
ATOM     20  C   UNL     1       5.016   6.894  15.040  0.00  0.00    +0.000 C 
ATOM     21  C   UNL     1       6.840   7.081  16.674  0.00  0.00    +0.000 C 
ENDBRANCH   2  18
BRANCH   1  22
ATOM     22  C   UNL     1       5.349   4.679  19.145  0.00  0.00    +0.000 C 
ATOM     23  O   UNL     1       5.242   3.493  18.896  0.00  0.00    +0.000 OA
BRANCH  22  24
ATOM     24  O   UNL     1       6.371   5.202  19.874  0.00  0.00    +0.000 OA
BRANCH  24  26
ATOM     25  C   UNL     1       8.294   6.490  19.244  0.00  0.00    +0.000 C 
ATOM     26  C   UNL     1       7.672   5.111  19.275  0.00  0.00    +0.000 C 
ENDBRANCH  24  26
ENDBRANCH  22  24
ENDBRANCH   1  22
TORSDOF 6
ENDMDL
MODEL 5
REMARK VINA RESULT:      -6.5      0.953      1.651
REMARK  Name = 
REMARK  10 active torsions:
REMARK  status: ('A' for Active; 'I' for Inactive)
REMARK    1  A    between atoms: C_1  and  C_2
REMARK    2  A    between atoms: C_2  and  O_3
REMARK    3  A    between atoms: O_3  and  C_4
REMARK    4  A    between atoms: C_4  and  C_6
REMARK    5  A    between atoms: C_7  and  C_8
REMARK    6  A    between atoms: C_8  and  C_9
REMARK    7  A    between atoms: C_8  and  C_10
REMARK    8  A    between atoms: C_8  and  C_11
REMARK    9  A    between atoms: C_16  and  C_17
REMARK   10  A    between atoms: C_21  and  O_22
REMARK                            x       y       z     vdW  Elec       q    Type
REMARK                         _______ _______ _______ _____ _____    ______ ____
ROOT
ATOM      1  C   UNL     1       4.528   5.615  18.767  0.00  0.00    +0.000 C 
ATOM      2  C   UNL     1       4.526   6.209  17.542  0.00  0.00    +0.000 C 
ATOM      3  N   UNL     1       3.542   7.166  17.320  0.00  0.00    +0.000 N 
ATOM      4  C   UNL     1       2.628   7.619  18.214  0.00  0.00    +0.000 C 
ATOM      5  S   UNL     1       1.550   8.815  17.820  0.00  0.00    +0.000 S 
ATOM      6  N   UNL     1       2.645   7.067  19.440  0.00  0.00    +0.000 N 
ATOM      7  C   UNL     1       3.459   5.923  19.808  0.00  0.00    +0.000 C 
ATOM      8  H   UNL     1       3.481   7.644  16.431  0.00  0.00    +0.000 HD
ATOM      9  H   UNL     1       1.939   7.378  20.098  0.00  0.00    +0.000 HD
ENDROOT
BRANCH   7  10
ATOM     10  C   UNL     1       2.557   4.731  20.096  0.00  0.00    +0.000 A 
ATOM     11  C   UNL     1       2.394   4.230  21.397  0.00  0.00    +0.000 A 
ATOM     12  C   UNL     1       1.477   3.207  21.656  0.00  0.00    +0.000 A 
ATOM     13  C   UNL     1       0.706   2.680  20.617  0.00  0.00    +0.000 A 
ATOM     14  C   UNL     1       0.881   3.158  19.326  0.00  0.00    +0.000 A 
ATOM     15  C   UNL     1       1.805   4.160  19.055  0.00  0.00    +0.000 A 
BRANCH  14  16
ATOM     16  O   UNL     1       0.141   2.688  18.281  0.00  0.00    +0.000 OA
ATOM     17  H   UNL     1      -0.796   2.688  18.543  0.00  0.00    +0.000 HD
ENDBRANCH  14  16
ENDBRANCH   7  10
BRANCH   2  18
ATOM     18  C   UNL     1       5.489   5.956  16.334  0.00  0.00    +0.000 C 
ATOM     19  C   UNL     1       5.295   4.536  15.749  0.00  0.00    +0.000 C 
ATOM     20  C   UNL     1       5.212   6.907  15.128  0.00  0.00    +0.000 C 
ATOM     21  C   UNL     1       6.969   6.212  16.695  0.00  0.00    +0.000 C 
ENDBRANCH   2  18
BRANCH   1  22
ATOM     22  C   UNL     1       5.506   4.575  19.224  0.00  0.00    +0.000 C 
ATOM     23  O   UNL     1       6.460   4.755  19.956  0.00  0.00    +0.000 OA
BRANCH  22  24
ATOM     24  O   UNL     1       5.187   3.364  18.694  0.00  0.00    +0.000 OA
BRANCH  24  26
ATOM     25  C   UNL     1       3.976   1.306  18.927  0.00  0.00    +0.000 C 
ATOM     26  C   UNL     1       4.806   2.352  19.638  0.00  0.00    +0.000 C 
ENDBRANCH  24  26
ENDBRANCH  22  24
ENDBRANCH   1  22
TORSDOF 6
ENDMDL
MODEL 6
REMARK VINA RESULT:      -6.4      0.926      1.993
REMARK  Name = 
REMARK  10 active torsions:
REMARK  status: ('A' for Active; 'I' for Inactive)
REMARK    1  A    between atoms: C_1  and  C_2
REMARK    2  A    between atoms: C_2  and  O_3
REMARK    3  A    between atoms: O_3  and  C_4
REMARK    4  A    between atoms: C_4  and  C_6
REMARK    5  A    between atoms: C_7  and  C_8
REMARK    6  A    between atoms: C_8  and  C_9
REMARK    7  A    between atoms: C_8  and  C_10
REMARK    8  A    between atoms: C_8  and  C_11
REMARK    9  A    between atoms: C_16  and  C_17
REMARK   10  A    between atoms: C_21  and  O_22
REMARK                            x       y       z     vdW  Elec       q    Type
REMARK                         _______ _______ _______ _____ _____    ______ ____
ROOT
ATOM      1  C   UNL     1       4.469   5.328  18.363  0.00  0.00    +0.000 C 
ATOM      2  C   UNL     1       4.514   6.042  17.205  0.00  0.00    +0.000 C 
ATOM      3  N   UNL     1       3.685   7.155  17.130  0.00  0.00    +0.000 N 
ATOM      4  C   UNL     1       2.887   7.645  18.112  0.00  0.00    +0.000 C 
ATOM      5  S   UNL     1       1.997   9.026  17.896  0.00  0.00    +0.000 S 
ATOM      6  N   UNL     1       2.863   6.970  19.274  0.00  0.00    +0.000 N 
ATOM      7  C   UNL     1       3.500   5.684  19.484  0.00  0.00    +0.000 C 
ATOM      8  H   UNL     1       3.667   7.728  16.297  0.00  0.00    +0.000 HD
ATOM      9  H   UNL     1       2.239   7.314  19.997  0.00  0.00    +0.000 HD
ENDROOT
BRANCH   7  10
ATOM     10  C   UNL     1       2.434   4.619  19.700  0.00  0.00    +0.000 A 
ATOM     11  C   UNL     1       1.645   4.144  18.640  0.00  0.00    +0.000 A 
ATOM     12  C   UNL     1       0.750   3.088  18.838  0.00  0.00    +0.000 A 
ATOM     13  C   UNL     1       0.640   2.490  20.095  0.00  0.00    +0.000 A 
ATOM     14  C   UNL     1       1.403   2.973  21.150  0.00  0.00    +0.000 A 
ATOM     15  C   UNL     1       2.281   4.035  20.968  0.00  0.00    +0.000 A 
BRANCH  14  16
ATOM     16  O   UNL     1       1.345   2.413  22.392  0.00  0.00    +0.000 OA
ATOM     17  H   UNL     1       1.840   1.575  22.375  0.00  0.00    +0.000 HD
ENDBRANCH  14  16
ENDBRANCH   7  10
BRANCH   2  18
ATOM     18  C   UNL     1       5.381   5.774  15.927  0.00  0.00    +0.000 C 
ATOM     19  C   UNL     1       5.034   6.770  14.794  0.00  0.00    +0.000 C 
ATOM     20  C   UNL     1       6.907   5.991  16.174  0.00  0.00    +0.000 C 
ATOM     21  C   UNL     1       5.273   4.313  15.438  0.00  0.00    +0.000 C 
ENDBRANCH   2  18
BRANCH   1  22
ATOM     22  C   UNL     1       5.288   4.109  18.662  0.00  0.00    +0.000 C 
ATOM     23  O   UNL     1       4.866   2.978  18.818  0.00  0.00    +0.000 OA
BRANCH  22  24
ATOM     24  O   UNL     1       6.605   4.436  18.746  0.00  0.00    +0.000 OA
BRANCH  24  26
ATOM     25  C   UNL     1       8.174   6.178  19.251  0.00  0.00    +0.000 C 
ATOM     26  C   UNL     1       6.936   5.442  19.714  0.00  0.00    +0.000 C 
ENDBRANCH  24  26
ENDBRANCH  22  24
ENDBRANCH   1  22
TORSDOF 6
ENDMDL
MODEL 7
REMARK VINA RESULT:      -6.4      1.999      5.395
REMARK  Name = 
REMARK  10 active torsions:
REMARK  status: ('A' for Active; 'I' for Inactive)
REMARK    1  A    between atoms: C_1  and  C_2
REMARK    2  A    between atoms: C_2  and  O_3
REMARK    3  A    between atoms: O_3  and  C_4
REMARK    4  A    between atoms: C_4  and  C_6
REMARK    5  A    between atoms: C_7  and  C_8
REMARK    6  A    between atoms: C_8  and  C_9
REMARK    7  A    between atoms: C_8  and  C_10
REMARK    8  A    between atoms: C_8  and  C_11
REMARK    9  A    between atoms: C_16  and  C_17
REMARK   10  A    between atoms: C_21  and  O_22
REMARK                            x       y       z     vdW  Elec       q    Type
REMARK                         _______ _______ _______ _____ _____    ______ ____
ROOT
ATOM      1  C   UNL     1       3.277   4.608  18.309  0.00  0.00    +0.000 C 
ATOM      2  C   UNL     1       2.407   4.347  19.323  0.00  0.00    +0.000 C 
ATOM      3  N   UNL     1       1.923   5.447  20.022  0.00  0.00    +0.000 N 
ATOM      4  C   UNL     1       2.169   6.754  19.758  0.00  0.00    +0.000 C 
ATOM      5  S   UNL     1       1.467   7.964  20.646  0.00  0.00    +0.000 S 
ATOM      6  N   UNL     1       2.996   7.026  18.734  0.00  0.00    +0.000 N 
ATOM      7  C   UNL     1       3.755   6.023  18.010  0.00  0.00    +0.000 C 
ATOM      8  H   UNL     1       1.275   5.324  20.790  0.00  0.00    +0.000 HD
ATOM      9  H   UNL     1       3.211   8.002  18.559  0.00  0.00    +0.000 HD
ENDROOT
BRANCH   7  10
ATOM     10  C   UNL     1       5.240   6.213  18.288  0.00  0.00    +0.000 A 
ATOM     11  C   UNL     1       5.911   5.445  19.253  0.00  0.00    +0.000 A 
ATOM     12  C   UNL     1       7.296   5.557  19.414  0.00  0.00    +0.000 A 
ATOM     13  C   UNL     1       8.025   6.431  18.606  0.00  0.00    +0.000 A 
ATOM     14  C   UNL     1       7.361   7.208  17.666  0.00  0.00    +0.000 A 
ATOM     15  C   UNL     1       5.983   7.119  17.512  0.00  0.00    +0.000 A 
BRANCH  14  16
ATOM     16  O   UNL     1       8.030   8.064  16.842  0.00  0.00    +0.000 OA
ATOM     17  H   UNL     1       8.729   8.505  17.357  0.00  0.00    +0.000 HD
ENDBRANCH  14  16
ENDBRANCH   7  10
BRANCH   2  18
ATOM     18  C   UNL     1       1.876   2.960  19.819  0.00  0.00    +0.000 C 
ATOM     19  C   UNL     1       3.039   2.031  20.241  0.00  0.00    +0.000 C 
ATOM     20  C   UNL     1       0.991   3.072  21.100  0.00  0.00    +0.000 C 
ATOM     21  C   UNL     1       0.962   2.272  18.779  0.00  0.00    +0.000 C 
ENDBRANCH   2  18
BRANCH   1  22
ATOM     22  C   UNL     1       3.904   3.579  17.419  0.00  0.00    +0.000 C 
ATOM     23  O   UNL     1       4.087   2.407  17.690  0.00  0.00    +0.000 OA
BRANCH  22  24
ATOM     24  O   UNL     1       4.261   4.137  16.231  0.00  0.00    +0.000 OA
BRANCH  24  26
ATOM     25  C   UNL     1       5.970   4.746  14.662  0.00  0.00    +0.000 C 
ATOM     26  C   UNL     1       5.551   3.758  15.729  0.00  0.00    +0.000 C 
ENDBRANCH  24  26
ENDBRANCH  22  24
ENDBRANCH   1  22
TORSDOF 6
ENDMDL
MODEL 8
REMARK VINA RESULT:      -6.2      1.311      2.499
REMARK  Name = 
REMARK  10 active torsions:
REMARK  status: ('A' for Active; 'I' for Inactive)
REMARK    1  A    between atoms: C_1  and  C_2
REMARK    2  A    between atoms: C_2  and  O_3
REMARK    3  A    between atoms: O_3  and  C_4
REMARK    4  A    between atoms: C_4  and  C_6
REMARK    5  A    between atoms: C_7  and  C_8
REMARK    6  A    between atoms: C_8  and  C_9
REMARK    7  A    between atoms: C_8  and  C_10
REMARK    8  A    between atoms: C_8  and  C_11
REMARK    9  A    between atoms: C_16  and  C_17
REMARK   10  A    between atoms: C_21  and  O_22
REMARK                            x       y       z     vdW  Elec       q    Type
REMARK                         _______ _______ _______ _____ _____    ______ ____
ROOT
ATOM      1  C   UNL     1       4.602   5.669  18.630  0.00  0.00    +0.000 C 
ATOM      2  C   UNL     1       4.519   6.261  17.407  0.00  0.00    +0.000 C 
ATOM      3  N   UNL     1       3.497   7.186  17.234  0.00  0.00    +0.000 N 
ATOM      4  C   UNL     1       2.616   7.613  18.173  0.00  0.00    +0.000 C 
ATOM      5  S   UNL     1       1.483   8.774  17.834  0.00  0.00    +0.000 S 
ATOM      6  N   UNL     1       2.712   7.064  19.396  0.00  0.00    +0.000 N 
ATOM      7  C   UNL     1       3.578   5.947  19.724  0.00  0.00    +0.000 C 
ATOM      8  H   UNL     1       3.376   7.660  16.348  0.00  0.00    +0.000 HD
ATOM      9  H   UNL     1       2.031   7.355  20.090  0.00  0.00    +0.000 HD
ENDROOT
BRANCH   7  10
ATOM     10  C   UNL     1       2.729   4.728  20.058  0.00  0.00    +0.000 A 
ATOM     11  C   UNL     1       2.539   4.307  21.383  0.00  0.00    +0.000 A 
ATOM     12  C   UNL     1       1.666   3.253  21.676  0.00  0.00    +0.000 A 
ATOM     13  C   UNL     1       0.969   2.617  20.647  0.00  0.00    +0.000 A 
ATOM     14  C   UNL     1       1.173   3.017  19.334  0.00  0.00    +0.000 A 
ATOM     15  C   UNL     1       2.052   4.049  19.031  0.00  0.00    +0.000 A 
BRANCH  14  16
ATOM     16  O   UNL     1       0.503   2.438  18.296  0.00  0.00    +0.000 OA
ATOM     17  H   UNL     1       0.370   3.109  17.604  0.00  0.00    +0.000 HD
ENDBRANCH  14  16
ENDBRANCH   7  10
BRANCH   2  18
ATOM     18  C   UNL     1       5.427   6.034  16.151  0.00  0.00    +0.000 C 
ATOM     19  C   UNL     1       5.319   4.579  15.634  0.00  0.00    +0.000 C 
ATOM     20  C   UNL     1       5.001   6.907  14.929  0.00  0.00    +0.000 C 
ATOM     21  C   UNL     1       6.900   6.426  16.409  0.00  0.00    +0.000 C 
ENDBRANCH   2  18
BRANCH   1  22
ATOM     22  C   UNL     1       5.633   4.661  19.037  0.00  0.00    +0.000 C 
ATOM     23  O   UNL     1       5.664   3.489  18.709  0.00  0.00    +0.000 OA
BRANCH  22  24
ATOM     24  O   UNL     1       6.558   5.236  19.852  0.00  0.00    +0.000 OA
BRANCH  24  26
ATOM     25  C   UNL     1       8.239   6.763  19.080  0.00  0.00    +0.000 C 
ATOM     26  C   UNL     1       7.891   5.311  19.324  0.00  0.00    +0.000 C 
ENDBRANCH  24  26
ENDBRANCH  22  24
ENDBRANCH   1  22
TORSDOF 6
ENDMDL
MODEL 9
REMARK VINA RESULT:      -5.7      8.055      9.947
REMARK  Name = 
REMARK  10 active torsions:
REMARK  status: ('A' for Active; 'I' for Inactive)
REMARK    1  A    between atoms: C_1  and  C_2
REMARK    2  A    between atoms: C_2  and  O_3
REMARK    3  A    between atoms: O_3  and  C_4
REMARK    4  A    between atoms: C_4  and  C_6
REMARK    5  A    between atoms: C_7  and  C_8
REMARK    6  A    between atoms: C_8  and  C_9
REMARK    7  A    between atoms: C_8  and  C_10
REMARK    8  A    between atoms: C_8  and  C_11
REMARK    9  A    between atoms: C_16  and  C_17
REMARK   10  A    between atoms: C_21  and  O_22
REMARK                            x       y       z     vdW  Elec       q    Type
REMARK                         _______ _______ _______ _____ _____    ______ ____
ROOT
ATOM      1  C   UNL     1      -2.303  11.949  18.987  0.00  0.00    +0.000 C 
ATOM      2  C   UNL     1      -1.434  11.036  18.473  0.00  0.00    +0.000 C 
ATOM      3  N   UNL     1      -1.775  10.480  17.246  0.00  0.00    +0.000 N 
ATOM      4  C   UNL     1      -2.843  10.800  16.474  0.00  0.00    +0.000 C 
ATOM      5  S   UNL     1      -3.087  10.092  14.995  0.00  0.00    +0.000 S 
ATOM      6  N   UNL     1      -3.688  11.729  16.953  0.00  0.00    +0.000 N 
ATOM      7  C   UNL     1      -3.617  12.282  18.292  0.00  0.00    +0.000 C 
ATOM      8  H   UNL     1      -1.176   9.792  16.808  0.00  0.00    +0.000 HD
ATOM      9  H   UNL     1      -4.507  11.943  16.394  0.00  0.00    +0.000 HD
ENDROOT
BRANCH   7  10
ATOM     10  C   UNL     1      -4.834  11.836  19.091  0.00  0.00    +0.000 A 
ATOM     11  C   UNL     1      -5.304  12.574  20.189  0.00  0.00    +0.000 A 
ATOM     12  C   UNL     1      -6.487  12.207  20.838  0.00  0.00    +0.000 A 
ATOM     13  C   UNL     1      -7.217  11.104  20.391  0.00  0.00    +0.000 A 
ATOM     14  C   UNL     1      -6.743  10.359  19.320  0.00  0.00    +0.000 A 
ATOM     15  C   UNL     1      -5.558  10.703  18.681  0.00  0.00    +0.000 A 
BRANCH  14  16
ATOM     16  O   UNL     1      -7.427   9.284  18.836  0.00  0.00    +0.000 OA
ATOM     17  H   UNL     1      -7.537   8.639  19.556  0.00  0.00    +0.000 HD
ENDBRANCH  14  16
ENDBRANCH   7  10
BRANCH   2  18
ATOM     18  C   UNL     1      -0.090  10.515  19.086  0.00  0.00    +0.000 C 
ATOM     19  C   UNL     1       0.735   9.725  18.043  0.00  0.00    +0.000 C 
ATOM     20  C   UNL     1       0.861  11.671  19.530  0.00  0.00    +0.000 C 
ATOM     21  C   UNL     1      -0.310   9.683  20.369  0.00  0.00    +0.000 C 
ENDBRANCH   2  18
BRANCH   1  22
ATOM     22  C   UNL     1      -2.124  12.681  20.282  0.00  0.00    +0.000 C 
ATOM     23  O   UNL     1      -1.870  13.864  20.413  0.00  0.00    +0.000 OA
BRANCH  22  24
ATOM     24  O   UNL     1      -2.280  11.828  21.331  0.00  0.00    +0.000 OA
BRANCH  24  26
ATOM     25  C   UNL     1      -3.188  12.275  23.505  0.00  0.00    +0.000 C 
ATOM     26  C   UNL     1      -1.963  12.366  22.623  0.00  0.00    +0.000 C 
ENDBRANCH  24  26
ENDBRANCH  22  24
ENDBRANCH   1  22
TORSDOF 6
ENDMDL
