MODEL 1
REMARK VINA RESULT:      -8.2      0.000      0.000
REMARK  Name = 
REMARK  8 active torsions:
REMARK  status: ('A' for Active; 'I' for Inactive)
REMARK    1  A    between atoms: C_1  and  C_2
REMARK    2  A    between atoms: C_2  and  N_3
REMARK    3  A    between atoms: N_3  and  C_4
REMARK    4  A    between atoms: C_4  and  C_5
REMARK    5  A    between atoms: C_6  and  C_8
REMARK    6  A    between atoms: C_11  and  C_12
REMARK    7  A    between atoms: C_12  and  C_13
REMARK    8  A    between atoms: C_12  and  N_19
REMARK                            x       y       z     vdW  Elec       q    Type
REMARK                         _______ _______ _______ _____ _____    ______ ____
ROOT
ATOM      1  C   UNL     1       1.259   9.539  18.962  0.00  0.00    +0.000 A 
ATOM      2  C   UNL     1       1.968   9.181  17.811  0.00  0.00    +0.000 A 
ATOM      3  C   UNL     1       2.647   7.960  17.742  0.00  0.00    +0.000 A 
ATOM      4  C   UNL     1       2.707   7.105  18.854  0.00  0.00    +0.000 A 
ATOM      5  C   UNL     1       2.053   7.501  20.031  0.00  0.00    +0.000 A 
ATOM      6  C   UNL     1       1.330   8.696  20.080  0.00  0.00    +0.000 A 
ENDROOT
BRANCH   1   8
ATOM      7  N   UNL     1      -0.822  10.978  18.713  0.00  0.00    +0.000 N 
ATOM      8  C   UNL     1       0.521  10.832  19.118  0.00  0.00    +0.000 C 
ATOM      9  O   UNL     1       1.150  11.762  19.622  0.00  0.00    +0.000 OA
BRANCH   7  11
ATOM     10  C   UNL     1      -2.281  12.637  19.868  0.00  0.00    +0.000 C 
ATOM     11  C   UNL     1      -1.345  12.351  18.703  0.00  0.00    +0.000 C 
ENDBRANCH   7  11
BRANCH   7  12
ATOM     12  C   UNL     1      -1.648   9.907  18.146  0.00  0.00    +0.000 C 
ATOM     13  C   UNL     1      -2.197  10.113  16.741  0.00  0.00    +0.000 C 
ENDBRANCH   7  12
ENDBRANCH   1   8
BRANCH   4  14
ATOM     14  C   UNL     1       3.586   5.845  18.784  0.00  0.00    +0.000 C 
BRANCH  14  15
ATOM     15  C   UNL     1       2.720   4.609  19.068  0.00  0.00    +0.000 A 
ATOM     16  C   UNL     1       1.680   4.228  18.205  0.00  0.00    +0.000 A 
ATOM     17  C   UNL     1       0.895   3.109  18.487  0.00  0.00    +0.000 A 
ATOM     18  C   UNL     1       1.139   2.356  19.633  0.00  0.00    +0.000 A 
ATOM     19  C   UNL     1       2.174   2.712  20.493  0.00  0.00    +0.000 A 
ATOM     20  C   UNL     1       2.959   3.831  20.216  0.00  0.00    +0.000 A 
ENDBRANCH  14  15
BRANCH  14  21
ATOM     21  N   UNL     1       4.424   5.744  17.539  0.00  0.00    +0.000 NA
ATOM     22  C   UNL     1       5.796   6.222  17.829  0.00  0.00    +0.000 C 
ATOM     23  C   UNL     1       6.794   5.992  16.692  0.00  0.00    +0.000 C 
ATOM     24  C   UNL     1       6.820   4.530  16.281  0.00  0.00    +0.000 C 
ATOM     25  C   UNL     1       5.418   4.110  15.882  0.00  0.00    +0.000 C 
ATOM     26  C   UNL     1       4.430   4.358  17.024  0.00  0.00    +0.000 C 
ENDBRANCH  14  21
ENDBRANCH   4  14
TORSDOF 6
ENDMDL
MODEL 2
REMARK VINA RESULT:      -8.0      1.306      3.644
REMARK  Name = 
REMARK  8 active torsions:
REMARK  status: ('A' for Active; 'I' for Inactive)
REMARK    1  A    between atoms: C_1  and  C_2
REMARK    2  A    between atoms: C_2  and  N_3
REMARK    3  A    between atoms: N_3  and  C_4
REMARK    4  A    between atoms: C_4  and  C_5
REMARK    5  A    between atoms: C_6  and  C_8
REMARK    6  A    between atoms: C_11  and  C_12
REMARK    7  A    between atoms: C_12  and  C_13
REMARK    8  A    between atoms: C_12  and  N_19
REMARK                            x       y       z     vdW  Elec       q    Type
REMARK                         _______ _______ _______ _____ _____    ______ ____
ROOT
ATOM      1  C   UNL     1       1.356   9.166  19.154  0.00  0.00    +0.000 A 
ATOM      2  C   UNL     1       1.813   8.954  17.848  0.00  0.00    +0.000 A 
ATOM      3  C   UNL     1       2.454   7.761  17.501  0.00  0.00    +0.000 A 
ATOM      4  C   UNL     1       2.731   6.782  18.470  0.00  0.00    +0.000 A 
ATOM      5  C   UNL     1       2.333   7.029  19.794  0.00  0.00    +0.000 A 
ATOM      6  C   UNL     1       1.645   8.200  20.127  0.00  0.00    +0.000 A 
ENDROOT
BRANCH   1   8
ATOM      7  N   UNL     1      -0.470  10.923  18.956  0.00  0.00    +0.000 N 
ATOM      8  C   UNL     1       0.676  10.420  19.605  0.00  0.00    +0.000 C 
ATOM      9  O   UNL     1       1.171  10.988  20.579  0.00  0.00    +0.000 OA
BRANCH   7  11
ATOM     10  C   UNL     1      -0.469  13.341  18.351  0.00  0.00    +0.000 C 
ATOM     11  C   UNL     1      -0.891  12.275  19.350  0.00  0.00    +0.000 C 
ENDBRANCH   7  11
BRANCH   7  12
ATOM     12  C   UNL     1      -1.140  10.281  17.821  0.00  0.00    +0.000 C 
ATOM     13  C   UNL     1      -2.638  10.035  17.938  0.00  0.00    +0.000 C 
ENDBRANCH   7  12
ENDBRANCH   1   8
BRANCH   4  14
ATOM     14  C   UNL     1       3.566   5.553  18.077  0.00  0.00    +0.000 C 
BRANCH  14  15
ATOM     15  C   UNL     1       5.058   5.895  18.201  0.00  0.00    +0.000 A 
ATOM     16  C   UNL     1       5.698   6.731  17.271  0.00  0.00    +0.000 A 
ATOM     17  C   UNL     1       7.058   7.019  17.392  0.00  0.00    +0.000 A 
ATOM     18  C   UNL     1       7.796   6.478  18.442  0.00  0.00    +0.000 A 
ATOM     19  C   UNL     1       7.175   5.658  19.380  0.00  0.00    +0.000 A 
ATOM     20  C   UNL     1       5.816   5.365  19.261  0.00  0.00    +0.000 A 
ENDBRANCH  14  15
BRANCH  14  21
ATOM     21  N   UNL     1       3.160   4.281  18.772  0.00  0.00    +0.000 NA
ATOM     22  C   UNL     1       1.688   4.259  18.935  0.00  0.00    +0.000 C 
ATOM     23  C   UNL     1       1.136   2.931  19.459  0.00  0.00    +0.000 C 
ATOM     24  C   UNL     1       1.587   1.774  18.585  0.00  0.00    +0.000 C 
ATOM     25  C   UNL     1       3.103   1.763  18.535  0.00  0.00    +0.000 C 
ATOM     26  C   UNL     1       3.640   3.101  18.023  0.00  0.00    +0.000 C 
ENDBRANCH  14  21
ENDBRANCH   4  14
TORSDOF 6
ENDMDL
MODEL 3
REMARK VINA RESULT:      -8.0      1.294      3.861
REMARK  Name = 
REMARK  8 active torsions:
REMARK  status: ('A' for Active; 'I' for Inactive)
REMARK    1  A    between atoms: C_1  and  C_2
REMARK    2  A    between atoms: C_2  and  N_3
REMARK    3  A    between atoms: N_3  and  C_4
REMARK    4  A    between atoms: C_4  and  C_5
REMARK    5  A    between atoms: C_6  and  C_8
REMARK    6  A    between atoms: C_11  and  C_12
REMARK    7  A    between atoms: C_12  and  C_13
REMARK    8  A    between atoms: C_12  and  N_19
REMARK                            x       y       z     vdW  Elec       q    Type
REMARK                         _______ _______ _______ _____ _____    ______ ____
ROOT
ATOM      1  C   UNL     1       1.288   9.239  19.327  0.00  0.00    +0.000 A 
ATOM      2  C   UNL     1       1.582   8.219  20.237  0.00  0.00    +0.000 A 
ATOM      3  C   UNL     1       2.355   7.119  19.853  0.00  0.00    +0.000 A 
ATOM      4  C   UNL     1       2.785   6.969  18.524  0.00  0.00    +0.000 A 
ATOM      5  C   UNL     1       2.429   7.961  17.596  0.00  0.00    +0.000 A 
ATOM      6  C   UNL     1       1.701   9.086  17.996  0.00  0.00    +0.000 A 
ENDROOT
BRANCH   1   8
ATOM      7  N   UNL     1      -0.685  10.787  18.904  0.00  0.00    +0.000 N 
ATOM      8  C   UNL     1       0.455  10.438  19.658  0.00  0.00    +0.000 C 
ATOM      9  O   UNL     1       0.818  11.102  20.628  0.00  0.00    +0.000 OA
BRANCH   7  11
ATOM     10  C   UNL     1      -0.642  13.219  18.362  0.00  0.00    +0.000 C 
ATOM     11  C   UNL     1      -1.265  12.105  19.190  0.00  0.00    +0.000 C 
ENDBRANCH   7  11
BRANCH   7  12
ATOM     12  C   UNL     1      -1.202  10.022  17.765  0.00  0.00    +0.000 C 
ATOM     13  C   UNL     1      -2.712   9.856  17.659  0.00  0.00    +0.000 C 
ENDBRANCH   7  12
ENDBRANCH   1   8
BRANCH   4  14
ATOM     14  C   UNL     1       3.506   5.676  18.110  0.00  0.00    +0.000 C 
BRANCH  14  15
ATOM     15  C   UNL     1       5.024   5.891  18.208  0.00  0.00    +0.000 A 
ATOM     16  C   UNL     1       5.772   5.360  19.271  0.00  0.00    +0.000 A 
ATOM     17  C   UNL     1       7.149   5.577  19.351  0.00  0.00    +0.000 A 
ATOM     18  C   UNL     1       7.795   6.325  18.370  0.00  0.00    +0.000 A 
ATOM     19  C   UNL     1       7.071   6.849  17.302  0.00  0.00    +0.000 A 
ATOM     20  C   UNL     1       5.694   6.636  17.221  0.00  0.00    +0.000 A 
ENDBRANCH  14  15
BRANCH  14  21
ATOM     21  N   UNL     1       3.007   4.440  18.807  0.00  0.00    +0.000 NA
ATOM     22  C   UNL     1       1.552   4.568  19.054  0.00  0.00    +0.000 C 
ATOM     23  C   UNL     1       0.892   3.294  19.588  0.00  0.00    +0.000 C 
ATOM     24  C   UNL     1       1.169   2.115  18.671  0.00  0.00    +0.000 C 
ATOM     25  C   UNL     1       2.671   1.946  18.535  0.00  0.00    +0.000 C 
ATOM     26  C   UNL     1       3.318   3.231  18.014  0.00  0.00    +0.000 C 
ENDBRANCH  14  21
ENDBRANCH   4  14
TORSDOF 6
ENDMDL
MODEL 4
REMARK VINA RESULT:      -7.9      0.293      1.367
REMARK  Name = 
REMARK  8 active torsions:
REMARK  status: ('A' for Active; 'I' for Inactive)
REMARK    1  A    between atoms: C_1  and  C_2
REMARK    2  A    between atoms: C_2  and  N_3
REMARK    3  A    between atoms: N_3  and  C_4
REMARK    4  A    between atoms: C_4  and  C_5
REMARK    5  A    between atoms: C_6  and  C_8
REMARK    6  A    between atoms: C_11  and  C_12
REMARK    7  A    between atoms: C_12  and  C_13
REMARK    8  A    between atoms: C_12  and  N_19
REMARK                            x       y       z     vdW  Elec       q    Type
REMARK                         _______ _______ _______ _____ _____    ______ ____
ROOT
ATOM      1  C   UNL     1       1.175   9.560  19.121  0.00  0.00    +0.000 A 
ATOM      2  C   UNL     1       1.276   8.648  20.176  0.00  0.00    +0.000 A 
ATOM      3  C   UNL     1       2.096   7.520  20.068  0.00  0.00    +0.000 A 
ATOM      4  C   UNL     1       2.769   7.230  18.870  0.00  0.00    +0.000 A 
ATOM      5  C   UNL     1       2.609   8.111  17.790  0.00  0.00    +0.000 A 
ATOM      6  C   UNL     1       1.832   9.266  17.918  0.00  0.00    +0.000 A 
ENDROOT
BRANCH   1   8
ATOM      7  N   UNL     1      -0.963  10.811  18.546  0.00  0.00    +0.000 N 
ATOM      8  C   UNL     1       0.308  10.781  19.155  0.00  0.00    +0.000 C 
ATOM      9  O   UNL     1       0.766  11.757  19.747  0.00  0.00    +0.000 OA
BRANCH   7  11
ATOM     10  C   UNL     1      -2.789  12.287  19.384  0.00  0.00    +0.000 C 
ATOM     11  C   UNL     1      -1.599  12.132  18.450  0.00  0.00    +0.000 C 
ENDBRANCH   7  11
BRANCH   7  12
ATOM     12  C   UNL     1      -1.592   9.676  17.862  0.00  0.00    +0.000 C 
ATOM     13  C   UNL     1      -2.259   9.948  16.520  0.00  0.00    +0.000 C 
ENDBRANCH   7  12
ENDBRANCH   1   8
BRANCH   4  14
ATOM     14  C   UNL     1       3.540   5.906  18.745  0.00  0.00    +0.000 C 
BRANCH  14  15
ATOM     15  C   UNL     1       2.591   4.738  19.050  0.00  0.00    +0.000 A 
ATOM     16  C   UNL     1       2.676   4.019  20.254  0.00  0.00    +0.000 A 
ATOM     17  C   UNL     1       1.814   2.951  20.507  0.00  0.00    +0.000 A 
ATOM     18  C   UNL     1       0.856   2.588  19.564  0.00  0.00    +0.000 A 
ATOM     19  C   UNL     1       0.750   3.297  18.370  0.00  0.00    +0.000 A 
ATOM     20  C   UNL     1       1.612   4.364  18.112  0.00  0.00    +0.000 A 
ENDBRANCH  14  15
BRANCH  14  21
ATOM     21  N   UNL     1       4.315   5.760  17.463  0.00  0.00    +0.000 NA
ATOM     22  C   UNL     1       5.672   6.325  17.642  0.00  0.00    +0.000 C 
ATOM     23  C   UNL     1       6.618   6.066  16.467  0.00  0.00    +0.000 C 
ATOM     24  C   UNL     1       6.702   4.582  16.156  0.00  0.00    +0.000 C 
ATOM     25  C   UNL     1       5.305   4.065  15.867  0.00  0.00    +0.000 C 
ATOM     26  C   UNL     1       4.369   4.343  17.044  0.00  0.00    +0.000 C 
ENDBRANCH  14  21
ENDBRANCH   4  14
TORSDOF 6
ENDMDL
MODEL 5
REMARK VINA RESULT:      -7.9      1.185      2.152
REMARK  Name = 
REMARK  8 active torsions:
REMARK  status: ('A' for Active; 'I' for Inactive)
REMARK    1  A    between atoms: C_1  and  C_2
REMARK    2  A    between atoms: C_2  and  N_3
REMARK    3  A    between atoms: N_3  and  C_4
REMARK    4  A    between atoms: C_4  and  C_5
REMARK    5  A    between atoms: C_6  and  C_8
REMARK    6  A    between atoms: C_11  and  C_12
REMARK    7  A    between atoms: C_12  and  C_13
REMARK    8  A    between atoms: C_12  and  N_19
REMARK                            x       y       z     vdW  Elec       q    Type
REMARK                         _______ _______ _______ _____ _____    ______ ____
ROOT
ATOM      1  C   UNL     1       0.800   9.581  18.999  0.00  0.00    +0.000 A 
ATOM      2  C   UNL     1       1.037   8.859  20.174  0.00  0.00    +0.000 A 
ATOM      3  C   UNL     1       1.927   7.781  20.182  0.00  0.00    +0.000 A 
ATOM      4  C   UNL     1       2.539   7.342  18.996  0.00  0.00    +0.000 A 
ATOM      5  C   UNL     1       2.244   8.026  17.806  0.00  0.00    +0.000 A 
ATOM      6  C   UNL     1       1.395   9.137  17.811  0.00  0.00    +0.000 A 
ENDROOT
BRANCH   1   8
ATOM      7  N   UNL     1       0.272  12.066  19.116  0.00  0.00    +0.000 N 
ATOM      8  C   UNL     1      -0.148  10.736  18.908  0.00  0.00    +0.000 C 
ATOM      9  O   UNL     1      -1.316  10.462  18.635  0.00  0.00    +0.000 OA
BRANCH   7  11
ATOM     10  C   UNL     1      -1.295  13.243  20.657  0.00  0.00    +0.000 C 
ATOM     11  C   UNL     1      -0.796  13.067  19.230  0.00  0.00    +0.000 C 
ENDBRANCH   7  11
BRANCH   7  12
ATOM     12  C   UNL     1       1.652  12.473  19.401  0.00  0.00    +0.000 C 
ATOM     13  C   UNL     1       2.548  12.795  18.212  0.00  0.00    +0.000 C 
ENDBRANCH   7  12
ENDBRANCH   1   8
BRANCH   4  14
ATOM     14  C   UNL     1       3.394   6.065  19.022  0.00  0.00    +0.000 C 
BRANCH  14  15
ATOM     15  C   UNL     1       2.578   4.923  19.646  0.00  0.00    +0.000 A 
ATOM     16  C   UNL     1       2.842   4.457  20.944  0.00  0.00    +0.000 A 
ATOM     17  C   UNL     1       2.099   3.409  21.488  0.00  0.00    +0.000 A 
ATOM     18  C   UNL     1       1.082   2.814  20.746  0.00  0.00    +0.000 A 
ATOM     19  C   UNL     1       0.798   3.272  19.462  0.00  0.00    +0.000 A 
ATOM     20  C   UNL     1       1.541   4.318  18.913  0.00  0.00    +0.000 A 
ENDBRANCH  14  15
BRANCH  14  21
ATOM     21  N   UNL     1       4.035   5.723  17.705  0.00  0.00    +0.000 NA
ATOM     22  C   UNL     1       5.339   6.418  17.598  0.00  0.00    +0.000 C 
ATOM     23  C   UNL     1       6.174   6.001  16.385  0.00  0.00    +0.000 C 
ATOM     24  C   UNL     1       6.374   4.496  16.356  0.00  0.00    +0.000 C 
ATOM     25  C   UNL     1       5.014   3.823  16.351  0.00  0.00    +0.000 C 
ATOM     26  C   UNL     1       4.187   4.260  17.561  0.00  0.00    +0.000 C 
ENDBRANCH  14  21
ENDBRANCH   4  14
TORSDOF 6
ENDMDL
MODEL 6
REMARK VINA RESULT:      -7.9      1.269      3.704
REMARK  Name = 
REMARK  8 active torsions:
REMARK  status: ('A' for Active; 'I' for Inactive)
REMARK    1  A    between atoms: C_1  and  C_2
REMARK    2  A    between atoms: C_2  and  N_3
REMARK    3  A    between atoms: N_3  and  C_4
REMARK    4  A    between atoms: C_4  and  C_5
REMARK    5  A    between atoms: C_6  and  C_8
REMARK    6  A    between atoms: C_11  and  C_12
REMARK    7  A    between atoms: C_12  and  C_13
REMARK    8  A    between atoms: C_12  and  N_19
REMARK                            x       y       z     vdW  Elec       q    Type
REMARK                         _______ _______ _______ _____ _____    ______ ____
ROOT
ATOM      1  C   UNL     1       1.365   9.267  19.145  0.00  0.00    +0.000 A 
ATOM      2  C   UNL     1       1.808   9.046  17.837  0.00  0.00    +0.000 A 
ATOM      3  C   UNL     1       2.425   7.841  17.486  0.00  0.00    +0.000 A 
ATOM      4  C   UNL     1       2.691   6.859  18.453  0.00  0.00    +0.000 A 
ATOM      5  C   UNL     1       2.307   7.113  19.779  0.00  0.00    +0.000 A 
ATOM      6  C   UNL     1       1.643   8.296  20.117  0.00  0.00    +0.000 A 
ENDROOT
BRANCH   1   8
ATOM      7  N   UNL     1      -0.585  10.898  19.181  0.00  0.00    +0.000 N 
ATOM      8  C   UNL     1       0.711  10.534  19.601  0.00  0.00    +0.000 C 
ATOM      9  O   UNL     1       1.365  11.240  20.367  0.00  0.00    +0.000 OA
BRANCH   7  11
ATOM     10  C   UNL     1      -2.014  12.318  20.649  0.00  0.00    +0.000 C 
ATOM     11  C   UNL     1      -1.007  12.266  19.510  0.00  0.00    +0.000 C 
ENDBRANCH   7  11
BRANCH   7  12
ATOM     12  C   UNL     1      -1.440  10.090  18.306  0.00  0.00    +0.000 C 
ATOM     13  C   UNL     1      -2.182  10.811  17.188  0.00  0.00    +0.000 C 
ENDBRANCH   7  12
ENDBRANCH   1   8
BRANCH   4  14
ATOM     14  C   UNL     1       3.501   5.614  18.055  0.00  0.00    +0.000 C 
BRANCH  14  15
ATOM     15  C   UNL     1       4.999   5.927  18.175  0.00  0.00    +0.000 A 
ATOM     16  C   UNL     1       5.775   5.406  19.224  0.00  0.00    +0.000 A 
ATOM     17  C   UNL     1       7.133   5.712  19.325  0.00  0.00    +0.000 A 
ATOM     18  C   UNL     1       7.734   6.540  18.381  0.00  0.00    +0.000 A 
ATOM     19  C   UNL     1       6.983   7.056  17.327  0.00  0.00    +0.000 A 
ATOM     20  C   UNL     1       5.625   6.754  17.225  0.00  0.00    +0.000 A 
ENDBRANCH  14  15
BRANCH  14  21
ATOM     21  N   UNL     1       3.071   4.349  18.747  0.00  0.00    +0.000 NA
ATOM     22  C   UNL     1       1.595   4.331  18.868  0.00  0.00    +0.000 C 
ATOM     23  C   UNL     1       1.025   3.009  19.386  0.00  0.00    +0.000 C 
ATOM     24  C   UNL     1       1.498   1.844  18.534  0.00  0.00    +0.000 C 
ATOM     25  C   UNL     1       3.016   1.829  18.529  0.00  0.00    +0.000 C 
ATOM     26  C   UNL     1       3.570   3.162  18.022  0.00  0.00    +0.000 C 
ENDBRANCH  14  21
ENDBRANCH   4  14
TORSDOF 6
ENDMDL
MODEL 7
REMARK VINA RESULT:      -7.9      1.073      1.859
REMARK  Name = 
REMARK  8 active torsions:
REMARK  status: ('A' for Active; 'I' for Inactive)
REMARK    1  A    between atoms: C_1  and  C_2
REMARK    2  A    between atoms: C_2  and  N_3
REMARK    3  A    between atoms: N_3  and  C_4
REMARK    4  A    between atoms: C_4  and  C_5
REMARK    5  A    between atoms: C_6  and  C_8
REMARK    6  A    between atoms: C_11  and  C_12
REMARK    7  A    between atoms: C_12  and  C_13
REMARK    8  A    between atoms: C_12  and  N_19
REMARK                            x       y       z     vdW  Elec       q    Type
REMARK                         _______ _______ _______ _____ _____    ______ ____
ROOT
ATOM      1  C   UNL     1       0.980   9.374  18.988  0.00  0.00    +0.000 A 
ATOM      2  C   UNL     1       1.197   8.537  20.089  0.00  0.00    +0.000 A 
ATOM      3  C   UNL     1       2.125   7.493  20.020  0.00  0.00    +0.000 A 
ATOM      4  C   UNL     1       2.798   7.205  18.821  0.00  0.00    +0.000 A 
ATOM      5  C   UNL     1       2.525   8.003  17.699  0.00  0.00    +0.000 A 
ATOM      6  C   UNL     1       1.637   9.079  17.786  0.00  0.00    +0.000 A 
ENDROOT
BRANCH   1   8
ATOM      7  N   UNL     1       0.389  11.838  19.191  0.00  0.00    +0.000 N 
ATOM      8  C   UNL     1      -0.005  10.501  18.980  0.00  0.00    +0.000 C 
ATOM      9  O   UNL     1      -1.179  10.197  18.773  0.00  0.00    +0.000 OA
BRANCH   7  11
ATOM     10  C   UNL     1      -1.001  13.061  20.861  0.00  0.00    +0.000 C 
ATOM     11  C   UNL     1      -0.699  12.805  19.392  0.00  0.00    +0.000 C 
ENDBRANCH   7  11
BRANCH   7  12
ATOM     12  C   UNL     1       1.771  12.281  19.400  0.00  0.00    +0.000 C 
ATOM     13  C   UNL     1       2.545  12.764  18.180  0.00  0.00    +0.000 C 
ENDBRANCH   7  12
ENDBRANCH   1   8
BRANCH   4  14
ATOM     14  C   UNL     1       3.697   5.960  18.747  0.00  0.00    +0.000 C 
BRANCH  14  15
ATOM     15  C   UNL     1       2.843   4.705  18.980  0.00  0.00    +0.000 A 
ATOM     16  C   UNL     1       1.738   4.409  18.166  0.00  0.00    +0.000 A 
ATOM     17  C   UNL     1       0.965   3.271  18.402  0.00  0.00    +0.000 A 
ATOM     18  C   UNL     1       1.286   2.414  19.452  0.00  0.00    +0.000 A 
ATOM     19  C   UNL     1       2.386   2.686  20.261  0.00  0.00    +0.000 A 
ATOM     20  C   UNL     1       3.159   3.824  20.030  0.00  0.00    +0.000 A 
ENDBRANCH  14  15
BRANCH  14  21
ATOM     21  N   UNL     1       4.570   5.899  17.523  0.00  0.00    +0.000 NA
ATOM     22  C   UNL     1       5.959   6.260  17.891  0.00  0.00    +0.000 C 
ATOM     23  C   UNL     1       6.979   6.052  16.769  0.00  0.00    +0.000 C 
ATOM     24  C   UNL     1       6.925   4.627  16.246  0.00  0.00    +0.000 C 
ATOM     25  C   UNL     1       5.513   4.334  15.772  0.00  0.00    +0.000 C 
ATOM     26  C   UNL     1       4.505   4.560  16.901  0.00  0.00    +0.000 C 
ENDBRANCH  14  21
ENDBRANCH   4  14
TORSDOF 6
ENDMDL
MODEL 8
REMARK VINA RESULT:      -7.7      1.427      1.907
REMARK  Name = 
REMARK  8 active torsions:
REMARK  status: ('A' for Active; 'I' for Inactive)
REMARK    1  A    between atoms: C_1  and  C_2
REMARK    2  A    between atoms: C_2  and  N_3
REMARK    3  A    between atoms: N_3  and  C_4
REMARK    4  A    between atoms: C_4  and  C_5
REMARK    5  A    between atoms: C_6  and  C_8
REMARK    6  A    between atoms: C_11  and  C_12
REMARK    7  A    between atoms: C_12  and  C_13
REMARK    8  A    between atoms: C_12  and  N_19
REMARK                            x       y       z     vdW  Elec       q    Type
REMARK                         _______ _______ _______ _____ _____    ______ ____
ROOT
ATOM      1  C   UNL     1       0.711   9.782  19.029  0.00  0.00    +0.000 A 
ATOM      2  C   UNL     1       1.277   9.295  17.846  0.00  0.00    +0.000 A 
ATOM      3  C   UNL     1       1.997   8.096  17.839  0.00  0.00    +0.000 A 
ATOM      4  C   UNL     1       2.243   7.397  19.033  0.00  0.00    +0.000 A 
ATOM      5  C   UNL     1       1.733   7.926  20.228  0.00  0.00    +0.000 A 
ATOM      6  C   UNL     1       0.968   9.097  20.224  0.00  0.00    +0.000 A 
ENDROOT
BRANCH   1   8
ATOM      7  N   UNL     1       0.583  12.315  19.216  0.00  0.00    +0.000 N 
ATOM      8  C   UNL     1      -0.059  11.063  19.119  0.00  0.00    +0.000 C 
ATOM      9  O   UNL     1      -1.285  10.964  19.099  0.00  0.00    +0.000 OA
BRANCH   7  11
ATOM     10  C   UNL     1      -0.177  13.895  20.987  0.00  0.00    +0.000 C 
ATOM     11  C   UNL     1      -0.283  13.458  19.534  0.00  0.00    +0.000 C 
ENDBRANCH   7  11
BRANCH   7  12
ATOM     12  C   UNL     1       2.036  12.515  19.201  0.00  0.00    +0.000 C 
ATOM     13  C   UNL     1       2.604  13.455  18.147  0.00  0.00    +0.000 C 
ENDBRANCH   7  12
ENDBRANCH   1   8
BRANCH   4  14
ATOM     14  C   UNL     1       3.161   6.164  19.003  0.00  0.00    +0.000 C 
BRANCH  14  15
ATOM     15  C   UNL     1       2.445   4.984  19.676  0.00  0.00    +0.000 A 
ATOM     16  C   UNL     1       1.417   4.283  19.025  0.00  0.00    +0.000 A 
ATOM     17  C   UNL     1       0.768   3.221  19.657  0.00  0.00    +0.000 A 
ATOM     18  C   UNL     1       1.138   2.846  20.946  0.00  0.00    +0.000 A 
ATOM     19  C   UNL     1       2.163   3.522  21.602  0.00  0.00    +0.000 A 
ATOM     20  C   UNL     1       2.813   4.585  20.974  0.00  0.00    +0.000 A 
ENDBRANCH  14  15
BRANCH  14  21
ATOM     21  N   UNL     1       3.735   5.853  17.647  0.00  0.00    +0.000 NA
ATOM     22  C   UNL     1       4.901   6.730  17.394  0.00  0.00    +0.000 C 
ATOM     23  C   UNL     1       5.685   6.379  16.127  0.00  0.00    +0.000 C 
ATOM     24  C   UNL     1       6.114   4.922  16.141  0.00  0.00    +0.000 C 
ATOM     25  C   UNL     1       4.880   4.052  16.288  0.00  0.00    +0.000 C 
ATOM     26  C   UNL     1       4.100   4.424  17.550  0.00  0.00    +0.000 C 
ENDBRANCH  14  21
ENDBRANCH   4  14
TORSDOF 6
ENDMDL
MODEL 9
REMARK VINA RESULT:      -7.7      1.226      3.732
REMARK  Name = 
REMARK  8 active torsions:
REMARK  status: ('A' for Active; 'I' for Inactive)
REMARK    1  A    between atoms: C_1  and  C_2
REMARK    2  A    between atoms: C_2  and  N_3
REMARK    3  A    between atoms: N_3  and  C_4
REMARK    4  A    between atoms: C_4  and  C_5
REMARK    5  A    between atoms: C_6  and  C_8
REMARK    6  A    between atoms: C_11  and  C_12
REMARK    7  A    between atoms: C_12  and  C_13
REMARK    8  A    between atoms: C_12  and  N_19
REMARK                            x       y       z     vdW  Elec       q    Type
REMARK                         _______ _______ _______ _____ _____    ______ ____
ROOT
ATOM      1  C   UNL     1       1.316   9.359  19.137  0.00  0.00    +0.000 A 
ATOM      2  C   UNL     1       1.567   8.360  20.084  0.00  0.00    +0.000 A 
ATOM      3  C   UNL     1       2.337   7.240  19.753  0.00  0.00    +0.000 A 
ATOM      4  C   UNL     1       2.805   7.048  18.443  0.00  0.00    +0.000 A 
ATOM      5  C   UNL     1       2.493   8.019  17.479  0.00  0.00    +0.000 A 
ATOM      6  C   UNL     1       1.768   9.164  17.824  0.00  0.00    +0.000 A 
ENDROOT
BRANCH   1   8
ATOM      7  N   UNL     1      -0.709  10.837  18.716  0.00  0.00    +0.000 N 
ATOM      8  C   UNL     1       0.491  10.577  19.410  0.00  0.00    +0.000 C 
ATOM      9  O   UNL     1       0.915  11.340  20.277  0.00  0.00    +0.000 OA
BRANCH   7  11
ATOM     10  C   UNL     1      -2.334  12.209  20.016  0.00  0.00    +0.000 C 
ATOM     11  C   UNL     1      -1.289  12.172  18.911  0.00  0.00    +0.000 C 
ENDBRANCH   7  11
BRANCH   7  12
ATOM     12  C   UNL     1      -1.299   9.955  17.703  0.00  0.00    +0.000 C 
ATOM     13  C   UNL     1      -2.316  10.565  16.748  0.00  0.00    +0.000 C 
ENDBRANCH   7  12
ENDBRANCH   1   8
BRANCH   4  14
ATOM     14  C   UNL     1       3.521   5.735  18.087  0.00  0.00    +0.000 C 
BRANCH  14  15
ATOM     15  C   UNL     1       5.039   5.943  18.190  0.00  0.00    +0.000 A 
ATOM     16  C   UNL     1       5.750   6.654  17.210  0.00  0.00    +0.000 A 
ATOM     17  C   UNL     1       7.131   6.820  17.313  0.00  0.00    +0.000 A 
ATOM     18  C   UNL     1       7.821   6.281  18.397  0.00  0.00    +0.000 A 
ATOM     19  C   UNL     1       7.130   5.584  19.384  0.00  0.00    +0.000 A 
ATOM     20  C   UNL     1       5.749   5.413  19.283  0.00  0.00    +0.000 A 
ENDBRANCH  14  15
BRANCH  14  21
ATOM     21  N   UNL     1       3.006   4.530  18.828  0.00  0.00    +0.000 NA
ATOM     22  C   UNL     1       1.556   4.692  19.081  0.00  0.00    +0.000 C 
ATOM     23  C   UNL     1       0.879   3.447  19.662  0.00  0.00    +0.000 C 
ATOM     24  C   UNL     1       1.129   2.234  18.782  0.00  0.00    +0.000 C 
ATOM     25  C   UNL     1       2.627   2.036  18.640  0.00  0.00    +0.000 C 
ATOM     26  C   UNL     1       3.290   3.292  18.072  0.00  0.00    +0.000 C 
ENDBRANCH  14  21
ENDBRANCH   4  14
TORSDOF 6
ENDMDL
