MODEL 1
REMARK VINA RESULT:      -5.4      0.000      0.000
REMARK  Name = 
REMARK  11 active torsions:
REMARK  status: ('A' for Active; 'I' for Inactive)
REMARK    1  A    between atoms: N_1  and  CA_2
REMARK    2  A    between atoms: CA_2  and  C_3
REMARK    3  A    between atoms: CA_2  and  C_12
REMARK    4  A    between atoms: C_3  and  C_4
REMARK    5  A    between atoms: C_4  and  C_5
REMARK    6  A    between atoms: C_5  and  C_6
REMARK    7  A    between atoms: C_6  and  C_7
REMARK    8  A    between atoms: C_7  and  P_8
REMARK    9  A    between atoms: P_8  and  O_10
REMARK   10  A    between atoms: P_8  and  O_11
REMARK   11  A    between atoms: C_12  and  OXT_14
REMARK                            x       y       z     vdW  Elec       q    Type
REMARK                         _______ _______ _______ _____ _____    ______ ____
ROOT
ATOM      1  C   UNL     1       1.978   4.610  18.097  0.00  0.00    +0.000 C 
ENDROOT
BRANCH   1   2
ATOM      2  C   UNL     1       2.682   3.524  17.277  0.00  0.00    +0.000 C 
BRANCH   2   3
ATOM      3  CA  UNL     1       2.487   2.116  17.871  0.00  0.00    +0.000 C 
BRANCH   3   4
ATOM      4  N   UNL     1       1.199   1.972  18.619  0.00  0.00    +0.000 NA
ATOM      5  H1  UNL     1       0.478   2.495  18.117  0.00  0.00    +0.000 HD
ATOM      6  H2  UNL     1       1.300   2.465  19.512  0.00  0.00    +0.000 HD
ENDBRANCH   3   4
BRANCH   3   7
ATOM      7  C   UNL     1       3.630   1.741  18.832  0.00  0.00    +0.000 C 
ATOM      8  O   UNL     1       3.958   2.357  19.834  0.00  0.00    +0.000 OA
BRANCH   7   9
ATOM      9  OXT UNL     1       4.281   0.625  18.396  0.00  0.00    +0.000 OA
ATOM     10  HXT UNL     1       3.981   0.488  17.463  0.00  0.00    +0.000 HD
ENDBRANCH   7   9
ENDBRANCH   3   7
ENDBRANCH   2   3
ENDBRANCH   1   2
BRANCH   1  11
ATOM     11  C   UNL     1       2.793   5.905  18.163  0.00  0.00    +0.000 C 
BRANCH  11  12
ATOM     12  C   UNL     1       4.234   5.601  18.589  0.00  0.00    +0.000 C 
BRANCH  12  13
ATOM     13  C   UNL     1       5.261   6.152  17.604  0.00  0.00    +0.000 C 
BRANCH  13  14
ATOM     14  P   UNL     1       6.742   5.086  17.467  0.00  0.00    +0.000 P 
ATOM     15  O   UNL     1       7.610   6.117  18.185  0.00  0.00    +0.000 OA
BRANCH  14  16
ATOM     16  O   UNL     1       6.173   4.056  18.600  0.00  0.00    +0.000 OA
ATOM     17  H   UNL     1       5.970   3.175  18.236  0.00  0.00    +0.000 HD
ENDBRANCH  14  16
BRANCH  14  18
ATOM     18  O   UNL     1       8.142   4.078  17.337  0.00  0.00    +0.000 OA
ATOM     19  H   UNL     1       8.714   4.414  18.064  0.00  0.00    +0.000 HD
ENDBRANCH  14  18
ENDBRANCH  13  14
ENDBRANCH  12  13
ENDBRANCH  11  12
ENDBRANCH   1  11
TORSDOF 11
ENDMDL
MODEL 2
REMARK VINA RESULT:      -5.4      2.972      4.607
REMARK  Name = 
REMARK  11 active torsions:
REMARK  status: ('A' for Active; 'I' for Inactive)
REMARK    1  A    between atoms: N_1  and  CA_2
REMARK    2  A    between atoms: CA_2  and  C_3
REMARK    3  A    between atoms: CA_2  and  C_12
REMARK    4  A    between atoms: C_3  and  C_4
REMARK    5  A    between atoms: C_4  and  C_5
REMARK    6  A    between atoms: C_5  and  C_6
REMARK    7  A    between atoms: C_6  and  C_7
REMARK    8  A    between atoms: C_7  and  P_8
REMARK    9  A    between atoms: P_8  and  O_10
REMARK   10  A    between atoms: P_8  and  O_11
REMARK   11  A    between atoms: C_12  and  OXT_14
REMARK                            x       y       z     vdW  Elec       q    Type
REMARK                         _______ _______ _______ _____ _____    ______ ____
ROOT
ATOM      1  C   UNL     1       4.969   6.070  17.279  0.00  0.00    +0.000 C 
ENDROOT
BRANCH   1   2
ATOM      2  C   UNL     1       4.788   5.003  16.195  0.00  0.00    +0.000 C 
BRANCH   2   3
ATOM      3  CA  UNL     1       6.034   4.112  16.028  0.00  0.00    +0.000 C 
BRANCH   3   4
ATOM      4  N   UNL     1       7.000   4.243  17.163  0.00  0.00    +0.000 NA
ATOM      5  H1  UNL     1       6.496   4.063  18.035  0.00  0.00    +0.000 HD
ATOM      6  H2  UNL     1       7.277   5.228  17.226  0.00  0.00    +0.000 HD
ENDBRANCH   3   4
BRANCH   3   7
ATOM      7  C   UNL     1       6.794   4.436  14.728  0.00  0.00    +0.000 C 
ATOM      8  O   UNL     1       7.588   5.350  14.568  0.00  0.00    +0.000 OA
BRANCH   7   9
ATOM      9  OXT UNL     1       6.434   3.578  13.732  0.00  0.00    +0.000 OA
ATOM     10  HXT UNL     1       5.608   3.954  13.340  0.00  0.00    +0.000 HD
ENDBRANCH   7   9
ENDBRANCH   3   7
ENDBRANCH   2   3
ENDBRANCH   1   2
BRANCH   1  11
ATOM     11  C   UNL     1       3.828   6.056  18.300  0.00  0.00    +0.000 C 
BRANCH  11  12
ATOM     12  C   UNL     1       4.145   5.073  19.434  0.00  0.00    +0.000 C 
BRANCH  12  13
ATOM     13  C   UNL     1       3.081   3.989  19.578  0.00  0.00    +0.000 C 
BRANCH  13  14
ATOM     14  P   UNL     1       3.699   2.335  19.097  0.00  0.00    +0.000 P 
ATOM     15  O   UNL     1       3.214   2.518  17.661  0.00  0.00    +0.000 OA
BRANCH  14  16
ATOM     16  O   UNL     1       5.252   2.837  19.154  0.00  0.00    +0.000 OA
ATOM     17  H   UNL     1       5.335   3.804  19.064  0.00  0.00    +0.000 HD
ENDBRANCH  14  16
BRANCH  14  18
ATOM     18  O   UNL     1       4.282   0.771  18.642  0.00  0.00    +0.000 OA
ATOM     19  H   UNL     1       4.337   0.840  17.663  0.00  0.00    +0.000 HD
ENDBRANCH  14  18
ENDBRANCH  13  14
ENDBRANCH  12  13
ENDBRANCH  11  12
ENDBRANCH   1  11
TORSDOF 11
ENDMDL
MODEL 3
REMARK VINA RESULT:      -5.3      1.666      2.210
REMARK  Name = 
REMARK  11 active torsions:
REMARK  status: ('A' for Active; 'I' for Inactive)
REMARK    1  A    between atoms: N_1  and  CA_2
REMARK    2  A    between atoms: CA_2  and  C_3
REMARK    3  A    between atoms: CA_2  and  C_12
REMARK    4  A    between atoms: C_3  and  C_4
REMARK    5  A    between atoms: C_4  and  C_5
REMARK    6  A    between atoms: C_5  and  C_6
REMARK    7  A    between atoms: C_6  and  C_7
REMARK    8  A    between atoms: C_7  and  P_8
REMARK    9  A    between atoms: P_8  and  O_10
REMARK   10  A    between atoms: P_8  and  O_11
REMARK   11  A    between atoms: C_12  and  OXT_14
REMARK                            x       y       z     vdW  Elec       q    Type
REMARK                         _______ _______ _______ _____ _____    ______ ____
ROOT
ATOM      1  C   UNL     1       1.716   3.734  17.851  0.00  0.00    +0.000 C 
ENDROOT
BRANCH   1   2
ATOM      2  C   UNL     1       1.645   2.431  18.653  0.00  0.00    +0.000 C 
BRANCH   2   3
ATOM      3  CA  UNL     1       1.365   2.671  20.148  0.00  0.00    +0.000 C 
BRANCH   3   4
ATOM      4  N   UNL     1       0.629   3.948  20.406  0.00  0.00    +0.000 NA
ATOM      5  H1  UNL     1       0.001   4.120  19.617  0.00  0.00    +0.000 HD
ATOM      6  H2  UNL     1       1.309   4.714  20.365  0.00  0.00    +0.000 HD
ENDBRANCH   3   4
BRANCH   3   7
ATOM      7  C   UNL     1       2.666   2.707  20.971  0.00  0.00    +0.000 C 
ATOM      8  O   UNL     1       3.784   2.441  20.560  0.00  0.00    +0.000 OA
BRANCH   7   9
ATOM      9  OXT UNL     1       2.409   3.045  22.267  0.00  0.00    +0.000 OA
ATOM     10  HXT UNL     1       3.159   3.627  22.545  0.00  0.00    +0.000 HD
ENDBRANCH   7   9
ENDBRANCH   3   7
ENDBRANCH   2   3
ENDBRANCH   1   2
BRANCH   1  11
ATOM     11  C   UNL     1       3.078   3.926  17.177  0.00  0.00    +0.000 C 
BRANCH  11  12
ATOM     12  C   UNL     1       3.935   4.906  17.988  0.00  0.00    +0.000 C 
BRANCH  12  13
ATOM     13  C   UNL     1       5.025   5.560  17.144  0.00  0.00    +0.000 C 
BRANCH  13  14
ATOM     14  P   UNL     1       6.668   4.799  17.412  0.00  0.00    +0.000 P 
ATOM     15  O   UNL     1       6.252   4.266  18.781  0.00  0.00    +0.000 OA
BRANCH  14  16
ATOM     16  O   UNL     1       6.362   3.624  16.319  0.00  0.00    +0.000 OA
ATOM     17  H   UNL     1       7.169   3.306  15.876  0.00  0.00    +0.000 HD
ENDBRANCH  14  16
BRANCH  14  18
ATOM     18  O   UNL     1       8.221   4.080  17.664  0.00  0.00    +0.000 OA
ATOM     19  H   UNL     1       8.799   4.609  17.071  0.00  0.00    +0.000 HD
ENDBRANCH  14  18
ENDBRANCH  13  14
ENDBRANCH  12  13
ENDBRANCH  11  12
ENDBRANCH   1  11
TORSDOF 11
ENDMDL
MODEL 4
REMARK VINA RESULT:      -5.3      1.727      1.927
REMARK  Name = 
REMARK  11 active torsions:
REMARK  status: ('A' for Active; 'I' for Inactive)
REMARK    1  A    between atoms: N_1  and  CA_2
REMARK    2  A    between atoms: CA_2  and  C_3
REMARK    3  A    between atoms: CA_2  and  C_12
REMARK    4  A    between atoms: C_3  and  C_4
REMARK    5  A    between atoms: C_4  and  C_5
REMARK    6  A    between atoms: C_5  and  C_6
REMARK    7  A    between atoms: C_6  and  C_7
REMARK    8  A    between atoms: C_7  and  P_8
REMARK    9  A    between atoms: P_8  and  O_10
REMARK   10  A    between atoms: P_8  and  O_11
REMARK   11  A    between atoms: C_12  and  OXT_14
REMARK                            x       y       z     vdW  Elec       q    Type
REMARK                         _______ _______ _______ _____ _____    ______ ____
ROOT
ATOM      1  C   UNL     1       3.336   5.182  19.710  0.00  0.00    +0.000 C 
ENDROOT
BRANCH   1   2
ATOM      2  C   UNL     1       2.720   3.790  19.883  0.00  0.00    +0.000 C 
BRANCH   2   3
ATOM      3  CA  UNL     1       3.742   2.659  19.659  0.00  0.00    +0.000 C 
BRANCH   3   4
ATOM      4  N   UNL     1       5.155   3.150  19.620  0.00  0.00    +0.000 NA
ATOM      5  H1  UNL     1       5.350   3.634  20.500  0.00  0.00    +0.000 HD
ATOM      6  H2  UNL     1       5.212   3.882  18.905  0.00  0.00    +0.000 HD
ENDBRANCH   3   4
BRANCH   3   7
ATOM      7  C   UNL     1       3.474   1.902  18.345  0.00  0.00    +0.000 C 
ATOM      8  O   UNL     1       2.861   2.333  17.380  0.00  0.00    +0.000 OA
BRANCH   7   9
ATOM      9  OXT UNL     1       3.983   0.639  18.402  0.00  0.00    +0.000 OA
ATOM     10  HXT UNL     1       3.613   0.239  19.227  0.00  0.00    +0.000 HD
ENDBRANCH   7   9
ENDBRANCH   3   7
ENDBRANCH   2   3
ENDBRANCH   1   2
BRANCH   1  11
ATOM     11  C   UNL     1       3.114   5.743  18.303  0.00  0.00    +0.000 C 
BRANCH  11  12
ATOM     12  C   UNL     1       4.398   6.406  17.790  0.00  0.00    +0.000 C 
BRANCH  12  13
ATOM     13  C   UNL     1       4.913   5.760  16.507  0.00  0.00    +0.000 C 
BRANCH  13  14
ATOM     14  P   UNL     1       6.526   4.928  16.742  0.00  0.00    +0.000 P 
ATOM     15  O   UNL     1       6.571   5.324  18.215  0.00  0.00    +0.000 OA
BRANCH  14  16
ATOM     16  O   UNL     1       5.837   3.449  16.657  0.00  0.00    +0.000 OA
ATOM     17  H   UNL     1       5.950   3.033  15.783  0.00  0.00    +0.000 HD
ENDBRANCH  14  16
BRANCH  14  18
ATOM     18  O   UNL     1       8.050   4.141  16.963  0.00  0.00    +0.000 OA
ATOM     19  H   UNL     1       8.373   4.038  16.039  0.00  0.00    +0.000 HD
ENDBRANCH  14  18
ENDBRANCH  13  14
ENDBRANCH  12  13
ENDBRANCH  11  12
ENDBRANCH   1  11
TORSDOF 11
ENDMDL
MODEL 5
REMARK VINA RESULT:      -5.3      2.749      4.787
REMARK  Name = 
REMARK  11 active torsions:
REMARK  status: ('A' for Active; 'I' for Inactive)
REMARK    1  A    between atoms: N_1  and  CA_2
REMARK    2  A    between atoms: CA_2  and  C_3
REMARK    3  A    between atoms: CA_2  and  C_12
REMARK    4  A    between atoms: C_3  and  C_4
REMARK    5  A    between atoms: C_4  and  C_5
REMARK    6  A    between atoms: C_5  and  C_6
REMARK    7  A    between atoms: C_6  and  C_7
REMARK    8  A    between atoms: C_7  and  P_8
REMARK    9  A    between atoms: P_8  and  O_10
REMARK   10  A    between atoms: P_8  and  O_11
REMARK   11  A    between atoms: C_12  and  OXT_14
REMARK                            x       y       z     vdW  Elec       q    Type
REMARK                         _______ _______ _______ _____ _____    ______ ____
ROOT
ATOM      1  C   UNL     1       3.884   6.288  17.386  0.00  0.00    +0.000 C 
ENDROOT
BRANCH   1   2
ATOM      2  C   UNL     1       5.251   5.963  17.998  0.00  0.00    +0.000 C 
BRANCH   2   3
ATOM      3  CA  UNL     1       5.738   4.547  17.636  0.00  0.00    +0.000 C 
BRANCH   3   4
ATOM      4  N   UNL     1       5.742   3.615  18.806  0.00  0.00    +0.000 NA
ATOM      5  H1  UNL     1       6.714   3.394  19.035  0.00  0.00    +0.000 HD
ATOM      6  H2  UNL     1       5.342   2.724  18.497  0.00  0.00    +0.000 HD
ENDBRANCH   3   4
BRANCH   3   7
ATOM      7  C   UNL     1       7.162   4.569  17.050  0.00  0.00    +0.000 C 
ATOM      8  O   UNL     1       7.474   4.952  15.933  0.00  0.00    +0.000 OA
BRANCH   7   9
ATOM      9  OXT UNL     1       8.059   4.057  17.940  0.00  0.00    +0.000 OA
ATOM     10  HXT UNL     1       8.164   3.104  17.695  0.00  0.00    +0.000 HD
ENDBRANCH   7   9
ENDBRANCH   3   7
ENDBRANCH   2   3
ENDBRANCH   1   2
BRANCH   1  11
ATOM     11  C   UNL     1       2.739   5.584  18.121  0.00  0.00    +0.000 C 
BRANCH  11  12
ATOM     12  C   UNL     1       2.764   5.949  19.610  0.00  0.00    +0.000 C 
BRANCH  12  13
ATOM     13  C   UNL     1       2.362   4.778  20.503  0.00  0.00    +0.000 C 
BRANCH  13  14
ATOM     14  P   UNL     1       1.875   3.300  19.541  0.00  0.00    +0.000 P 
ATOM     15  O   UNL     1       3.117   2.536  19.993  0.00  0.00    +0.000 OA
BRANCH  14  16
ATOM     16  O   UNL     1       0.676   2.945  20.591  0.00  0.00    +0.000 OA
ATOM     17  H   UNL     1       0.901   2.200  21.177  0.00  0.00    +0.000 HD
ENDBRANCH  14  16
BRANCH  14  18
ATOM     18  O   UNL     1       1.414   1.904  18.630  0.00  0.00    +0.000 OA
ATOM     19  H   UNL     1       0.495   2.121  18.357  0.00  0.00    +0.000 HD
ENDBRANCH  14  18
ENDBRANCH  13  14
ENDBRANCH  12  13
ENDBRANCH  11  12
ENDBRANCH   1  11
TORSDOF 11
ENDMDL
MODEL 6
REMARK VINA RESULT:      -5.3      1.758      2.319
REMARK  Name = 
REMARK  11 active torsions:
REMARK  status: ('A' for Active; 'I' for Inactive)
REMARK    1  A    between atoms: N_1  and  CA_2
REMARK    2  A    between atoms: CA_2  and  C_3
REMARK    3  A    between atoms: CA_2  and  C_12
REMARK    4  A    between atoms: C_3  and  C_4
REMARK    5  A    between atoms: C_4  and  C_5
REMARK    6  A    between atoms: C_5  and  C_6
REMARK    7  A    between atoms: C_6  and  C_7
REMARK    8  A    between atoms: C_7  and  P_8
REMARK    9  A    between atoms: P_8  and  O_10
REMARK   10  A    between atoms: P_8  and  O_11
REMARK   11  A    between atoms: C_12  and  OXT_14
REMARK                            x       y       z     vdW  Elec       q    Type
REMARK                         _______ _______ _______ _____ _____    ______ ____
ROOT
ATOM      1  C   UNL     1       4.456   3.963  16.699  0.00  0.00    +0.000 C 
ENDROOT
BRANCH   1   2
ATOM      2  C   UNL     1       3.123   4.285  17.381  0.00  0.00    +0.000 C 
BRANCH   2   3
ATOM      3  CA  UNL     1       3.020   3.677  18.793  0.00  0.00    +0.000 C 
BRANCH   3   4
ATOM      4  N   UNL     1       3.377   4.649  19.874  0.00  0.00    +0.000 NA
ATOM      5  H1  UNL     1       2.512   4.968  20.316  0.00  0.00    +0.000 HD
ATOM      6  H2  UNL     1       3.762   5.486  19.426  0.00  0.00    +0.000 HD
ENDBRANCH   3   4
BRANCH   3   7
ATOM      7  C   UNL     1       3.932   2.447  18.950  0.00  0.00    +0.000 C 
ATOM      8  O   UNL     1       3.673   1.309  18.589  0.00  0.00    +0.000 OA
BRANCH   7   9
ATOM      9  OXT UNL     1       5.085   2.780  19.596  0.00  0.00    +0.000 OA
ATOM     10  HXT UNL     1       5.380   1.957  20.059  0.00  0.00    +0.000 HD
ENDBRANCH   7   9
ENDBRANCH   3   7
ENDBRANCH   2   3
ENDBRANCH   1   2
BRANCH   1  11
ATOM     11  C   UNL     1       5.033   5.171  15.957  0.00  0.00    +0.000 C 
BRANCH  11  12
ATOM     12  C   UNL     1       5.466   6.249  16.958  0.00  0.00    +0.000 C 
BRANCH  12  13
ATOM     13  C   UNL     1       6.980   6.291  17.148  0.00  0.00    +0.000 C 
BRANCH  13  14
ATOM     14  P   UNL     1       7.491   5.745  18.818  0.00  0.00    +0.000 P 
ATOM     15  O   UNL     1       6.040   5.639  19.281  0.00  0.00    +0.000 OA
BRANCH  14  16
ATOM     16  O   UNL     1       7.933   4.275  18.262  0.00  0.00    +0.000 OA
ATOM     17  H   UNL     1       7.250   3.867  17.699  0.00  0.00    +0.000 HD
ENDBRANCH  14  16
BRANCH  14  18
ATOM     18  O   UNL     1       7.975   5.230  20.397  0.00  0.00    +0.000 OA
ATOM     19  H   UNL     1       7.279   5.620  20.971  0.00  0.00    +0.000 HD
ENDBRANCH  14  18
ENDBRANCH  13  14
ENDBRANCH  12  13
ENDBRANCH  11  12
ENDBRANCH   1  11
TORSDOF 11
ENDMDL
MODEL 7
REMARK VINA RESULT:      -5.2      2.529      4.857
REMARK  Name = 
REMARK  11 active torsions:
REMARK  status: ('A' for Active; 'I' for Inactive)
REMARK    1  A    between atoms: N_1  and  CA_2
REMARK    2  A    between atoms: CA_2  and  C_3
REMARK    3  A    between atoms: CA_2  and  C_12
REMARK    4  A    between atoms: C_3  and  C_4
REMARK    5  A    between atoms: C_4  and  C_5
REMARK    6  A    between atoms: C_5  and  C_6
REMARK    7  A    between atoms: C_6  and  C_7
REMARK    8  A    between atoms: C_7  and  P_8
REMARK    9  A    between atoms: P_8  and  O_10
REMARK   10  A    between atoms: P_8  and  O_11
REMARK   11  A    between atoms: C_12  and  OXT_14
REMARK                            x       y       z     vdW  Elec       q    Type
REMARK                         _______ _______ _______ _____ _____    ______ ____
ROOT
ATOM      1  C   UNL     1       4.873   5.730  16.866  0.00  0.00    +0.000 C 
ENDROOT
BRANCH   1   2
ATOM      2  C   UNL     1       6.248   6.383  17.039  0.00  0.00    +0.000 C 
BRANCH   2   3
ATOM      3  CA  UNL     1       7.272   5.437  17.697  0.00  0.00    +0.000 C 
BRANCH   3   4
ATOM      4  N   UNL     1       6.736   4.057  17.912  0.00  0.00    +0.000 NA
ATOM      5  H1  UNL     1       6.804   3.546  17.030  0.00  0.00    +0.000 HD
ATOM      6  H2  UNL     1       5.729   4.137  18.086  0.00  0.00    +0.000 HD
ENDBRANCH   3   4
BRANCH   3   7
ATOM      7  C   UNL     1       7.746   5.973  19.060  0.00  0.00    +0.000 C 
ATOM      8  O   UNL     1       7.571   5.437  20.144  0.00  0.00    +0.000 OA
BRANCH   7   9
ATOM      9  OXT UNL     1       8.371   7.176  18.916  0.00  0.00    +0.000 OA
ATOM     10  HXT UNL     1       8.865   7.324  19.760  0.00  0.00    +0.000 HD
ENDBRANCH   7   9
ENDBRANCH   3   7
ENDBRANCH   2   3
ENDBRANCH   1   2
BRANCH   1  11
ATOM     11  C   UNL     1       3.876   6.191  17.933  0.00  0.00    +0.000 C 
BRANCH  11  12
ATOM     12  C   UNL     1       3.139   4.982  18.524  0.00  0.00    +0.000 C 
BRANCH  12  13
ATOM     13  C   UNL     1       2.848   3.910  17.477  0.00  0.00    +0.000 C 
BRANCH  13  14
ATOM     14  P   UNL     1       3.401   2.248  18.007  0.00  0.00    +0.000 P 
ATOM     15  O   UNL     1       4.131   2.823  19.218  0.00  0.00    +0.000 OA
BRANCH  14  16
ATOM     16  O   UNL     1       1.895   1.843  18.494  0.00  0.00    +0.000 OA
ATOM     17  H   UNL     1       1.835   1.718  19.458  0.00  0.00    +0.000 HD
ENDBRANCH  14  16
BRANCH  14  18
ATOM     18  O   UNL     1       3.923   0.676  18.506  0.00  0.00    +0.000 OA
ATOM     19  H   UNL     1       3.122   0.127  18.353  0.00  0.00    +0.000 HD
ENDBRANCH  14  18
ENDBRANCH  13  14
ENDBRANCH  12  13
ENDBRANCH  11  12
ENDBRANCH   1  11
TORSDOF 11
ENDMDL
MODEL 8
REMARK VINA RESULT:      -5.2      2.191      2.690
REMARK  Name = 
REMARK  11 active torsions:
REMARK  status: ('A' for Active; 'I' for Inactive)
REMARK    1  A    between atoms: N_1  and  CA_2
REMARK    2  A    between atoms: CA_2  and  C_3
REMARK    3  A    between atoms: CA_2  and  C_12
REMARK    4  A    between atoms: C_3  and  C_4
REMARK    5  A    between atoms: C_4  and  C_5
REMARK    6  A    between atoms: C_5  and  C_6
REMARK    7  A    between atoms: C_6  and  C_7
REMARK    8  A    between atoms: C_7  and  P_8
REMARK    9  A    between atoms: P_8  and  O_10
REMARK   10  A    between atoms: P_8  and  O_11
REMARK   11  A    between atoms: C_12  and  OXT_14
REMARK                            x       y       z     vdW  Elec       q    Type
REMARK                         _______ _______ _______ _____ _____    ______ ____
ROOT
ATOM      1  C   UNL     1       3.219   3.121  17.739  0.00  0.00    +0.000 C 
ENDROOT
BRANCH   1   2
ATOM      2  C   UNL     1       2.430   3.934  18.770  0.00  0.00    +0.000 C 
BRANCH   2   3
ATOM      3  CA  UNL     1       2.789   3.557  20.220  0.00  0.00    +0.000 C 
BRANCH   3   4
ATOM      4  N   UNL     1       3.871   2.528  20.304  0.00  0.00    +0.000 NA
ATOM      5  H1  UNL     1       4.591   2.871  20.943  0.00  0.00    +0.000 HD
ATOM      6  H2  UNL     1       4.335   2.487  19.391  0.00  0.00    +0.000 HD
ENDBRANCH   3   4
BRANCH   3   7
ATOM      7  C   UNL     1       1.568   3.016  20.986  0.00  0.00    +0.000 C 
ATOM      8  O   UNL     1       1.584   2.498  22.091  0.00  0.00    +0.000 OA
BRANCH   7   9
ATOM      9  OXT UNL     1       0.433   3.151  20.243  0.00  0.00    +0.000 OA
ATOM     10  HXT UNL     1      -0.101   2.338  20.420  0.00  0.00    +0.000 HD
ENDBRANCH   7   9
ENDBRANCH   3   7
ENDBRANCH   2   3
ENDBRANCH   1   2
BRANCH   1  11
ATOM     11  C   UNL     1       4.171   3.996  16.918  0.00  0.00    +0.000 C 
BRANCH  11  12
ATOM     12  C   UNL     1       4.547   5.254  17.709  0.00  0.00    +0.000 C 
BRANCH  12  13
ATOM     13  C   UNL     1       5.974   5.714  17.425  0.00  0.00    +0.000 C 
BRANCH  13  14
ATOM     14  P   UNL     1       7.065   5.555  18.886  0.00  0.00    +0.000 P 
ATOM     15  O   UNL     1       5.936   4.960  19.725  0.00  0.00    +0.000 OA
BRANCH  14  16
ATOM     16  O   UNL     1       7.878   4.309  18.212  0.00  0.00    +0.000 OA
ATOM     17  H   UNL     1       7.313   3.529  18.068  0.00  0.00    +0.000 HD
ENDBRANCH  14  16
BRANCH  14  18
ATOM     18  O   UNL     1       8.096   5.406  20.267  0.00  0.00    +0.000 OA
ATOM     19  H   UNL     1       8.991   5.376  19.862  0.00  0.00    +0.000 HD
ENDBRANCH  14  18
ENDBRANCH  13  14
ENDBRANCH  12  13
ENDBRANCH  11  12
ENDBRANCH   1  11
TORSDOF 11
ENDMDL
MODEL 9
REMARK VINA RESULT:      -5.2      2.528      4.853
REMARK  Name = 
REMARK  11 active torsions:
REMARK  status: ('A' for Active; 'I' for Inactive)
REMARK    1  A    between atoms: N_1  and  CA_2
REMARK    2  A    between atoms: CA_2  and  C_3
REMARK    3  A    between atoms: CA_2  and  C_12
REMARK    4  A    between atoms: C_3  and  C_4
REMARK    5  A    between atoms: C_4  and  C_5
REMARK    6  A    between atoms: C_5  and  C_6
REMARK    7  A    between atoms: C_6  and  C_7
REMARK    8  A    between atoms: C_7  and  P_8
REMARK    9  A    between atoms: P_8  and  O_10
REMARK   10  A    between atoms: P_8  and  O_11
REMARK   11  A    between atoms: C_12  and  OXT_14
REMARK                            x       y       z     vdW  Elec       q    Type
REMARK                         _______ _______ _______ _____ _____    ______ ____
ROOT
ATOM      1  C   UNL     1       3.758   5.944  17.574  0.00  0.00    +0.000 C 
ENDROOT
BRANCH   1   2
ATOM      2  C   UNL     1       5.138   5.938  18.240  0.00  0.00    +0.000 C 
BRANCH   2   3
ATOM      3  CA  UNL     1       6.174   5.122  17.444  0.00  0.00    +0.000 C 
BRANCH   3   4
ATOM      4  N   UNL     1       7.023   4.250  18.314  0.00  0.00    +0.000 NA
ATOM      5  H1  UNL     1       7.789   3.880  17.746  0.00  0.00    +0.000 HD
ATOM      6  H2  UNL     1       6.468   3.426  18.566  0.00  0.00    +0.000 HD
ENDBRANCH   3   4
BRANCH   3   7
ATOM      7  C   UNL     1       7.115   6.034  16.635  0.00  0.00    +0.000 C 
ATOM      8  O   UNL     1       7.478   7.156  16.954  0.00  0.00    +0.000 OA
BRANCH   7   9
ATOM      9  OXT UNL     1       7.477   5.438  15.464  0.00  0.00    +0.000 OA
ATOM     10  HXT UNL     1       8.329   4.972  15.652  0.00  0.00    +0.000 HD
ENDBRANCH   7   9
ENDBRANCH   3   7
ENDBRANCH   2   3
ENDBRANCH   1   2
BRANCH   1  11
ATOM     11  C   UNL     1       3.231   4.529  17.321  0.00  0.00    +0.000 C 
BRANCH  11  12
ATOM     12  C   UNL     1       1.864   4.346  17.991  0.00  0.00    +0.000 C 
BRANCH  12  13
ATOM     13  C   UNL     1       1.861   3.207  19.006  0.00  0.00    +0.000 C 
BRANCH  13  14
ATOM     14  P   UNL     1       3.546   2.600  19.382  0.00  0.00    +0.000 P 
ATOM     15  O   UNL     1       3.207   2.426  20.860  0.00  0.00    +0.000 OA
BRANCH  14  16
ATOM     16  O   UNL     1       3.255   1.172  18.644  0.00  0.00    +0.000 OA
ATOM     17  H   UNL     1       3.865   1.002  17.904  0.00  0.00    +0.000 HD
ENDBRANCH  14  16
BRANCH  14  18
ATOM     18  O   UNL     1       5.139   2.027  19.736  0.00  0.00    +0.000 OA
ATOM     19  H   UNL     1       5.243   1.281  19.103  0.00  0.00    +0.000 HD
ENDBRANCH  14  18
ENDBRANCH  13  14
ENDBRANCH  12  13
ENDBRANCH  11  12
ENDBRANCH   1  11
TORSDOF 11
ENDMDL
