MODEL 1
REMARK VINA RESULT:      -7.3      0.000      0.000
REMARK  Name = 
REMARK  9 active torsions:
REMARK  status: ('A' for Active; 'I' for Inactive)
REMARK    1  A    between atoms: C_1  and  O_2
REMARK    2  A    between atoms: O_2  and  C_3
REMARK    3  A    between atoms: C_5  and  C_6
REMARK    4  A    between atoms: N_7  and  N_8
REMARK    5  A    between atoms: C_11  and  C_12
REMARK    6  A    between atoms: C_21  and  O_22
REMARK    7  A    between atoms: O_22  and  C_23
REMARK    8  A    between atoms: C_24  and  O_25
REMARK    9  A    between atoms: O_25  and  C_26
REMARK                            x       y       z     vdW  Elec       q    Type
REMARK                         _______ _______ _______ _____ _____    ______ ____
ROOT
ATOM      1  C   UNL     1       2.935   7.893  17.671  0.00  0.00    +0.000 C 
ATOM      2  N   UNL     1       2.135   8.680  18.356  0.00  0.00    +0.000 NA
ENDROOT
BRANCH   2   3
ATOM      3  N   UNL     1       2.144  10.151  18.011  0.00  0.00    +0.000 NA
ATOM      4  C   UNL     1       1.068  10.777  18.468  0.00  0.00    +0.000 A 
ATOM      5  C   UNL     1      -0.116   9.972  18.970  0.00  0.00    +0.000 A 
ATOM      6  C   UNL     1      -0.440  10.544  20.147  0.00  0.00    +0.000 A 
ATOM      7  C   UNL     1       0.651  10.659  21.226  0.00  0.00    +0.000 C 
ATOM      8  N   UNL     1      -1.224  11.695  20.014  0.00  0.00    +0.000 N 
ATOM      9  C   UNL     1      -0.433  12.738  19.394  0.00  0.00    +0.000 A 
ATOM     10  C   UNL     1      -0.802  14.053  19.729  0.00  0.00    +0.000 A 
ATOM     11  C   UNL     1       0.117  15.060  19.503  0.00  0.00    +0.000 A 
ATOM     12  C   UNL     1       1.353  14.748  18.916  0.00  0.00    +0.000 A 
ATOM     13  C   UNL     1       1.676  13.431  18.453  0.00  0.00    +0.000 A 
ATOM     14  C   UNL     1       0.780  12.365  18.667  0.00  0.00    +0.000 A 
ATOM     15  H   UNL     1      -2.034  11.551  19.407  0.00  0.00    +0.000 HD
ENDBRANCH   2   3
BRANCH   1  18
ATOM     16  C   UNL     1       2.537   4.072  18.539  0.00  0.00    +0.000 A 
ATOM     17  C   UNL     1       2.235   5.415  18.137  0.00  0.00    +0.000 A 
ATOM     18  C   UNL     1       3.227   6.395  17.981  0.00  0.00    +0.000 A 
ATOM     19  C   UNL     1       4.550   5.967  18.221  0.00  0.00    +0.000 A 
ATOM     20  C   UNL     1       4.876   4.621  18.584  0.00  0.00    +0.000 A 
ATOM     21  C   UNL     1       3.869   3.654  18.770  0.00  0.00    +0.000 A 
BRANCH  16  23
ATOM     22  C   UNL     1       0.926   3.181  20.069  0.00  0.00    +0.000 C 
ATOM     23  O   UNL     1       1.558   3.135  18.802  0.00  0.00    +0.000 OA
ENDBRANCH  16  23
BRANCH  20  24
ATOM     24  O   UNL     1       6.233   4.432  18.790  0.00  0.00    +0.000 OA
ATOM     25  C   UNL     1       7.151   4.774  17.749  0.00  0.00    +0.000 C 
ENDBRANCH  20  24
BRANCH  21  26
ATOM     26  O   UNL     1       4.311   2.422  19.164  0.00  0.00    +0.000 OA
ATOM     27  C   UNL     1       4.498   1.944  20.485  0.00  0.00    +0.000 C 
ENDBRANCH  21  26
ENDBRANCH   1  18
TORSDOF 5
ENDMDL
MODEL 2
REMARK VINA RESULT:      -7.3      1.300      1.305
REMARK  Name = 
REMARK  9 active torsions:
REMARK  status: ('A' for Active; 'I' for Inactive)
REMARK    1  A    between atoms: C_1  and  O_2
REMARK    2  A    between atoms: O_2  and  C_3
REMARK    3  A    between atoms: C_5  and  C_6
REMARK    4  A    between atoms: N_7  and  N_8
REMARK    5  A    between atoms: C_11  and  C_12
REMARK    6  A    between atoms: C_21  and  O_22
REMARK    7  A    between atoms: O_22  and  C_23
REMARK    8  A    between atoms: C_24  and  O_25
REMARK    9  A    between atoms: O_25  and  C_26
REMARK                            x       y       z     vdW  Elec       q    Type
REMARK                         _______ _______ _______ _____ _____    ______ ____
ROOT
ATOM      1  C   UNL     1       3.068   8.101  17.862  0.00  0.00    +0.000 C 
ATOM      2  N   UNL     1       2.117   8.921  17.473  0.00  0.00    +0.000 NA
ENDROOT
BRANCH   2   3
ATOM      3  N   UNL     1       2.255  10.377  17.855  0.00  0.00    +0.000 NA
ATOM      4  C   UNL     1       1.265  10.784  18.637  0.00  0.00    +0.000 A 
ATOM      5  C   UNL     1       0.029   9.918  18.800  0.00  0.00    +0.000 A 
ATOM      6  C   UNL     1      -0.190   9.888  20.130  0.00  0.00    +0.000 A 
ATOM      7  C   UNL     1       0.949   9.407  21.045  0.00  0.00    +0.000 C 
ATOM      8  N   UNL     1      -0.863  11.016  20.613  0.00  0.00    +0.000 N 
ATOM      9  C   UNL     1       0.000  12.172  20.489  0.00  0.00    +0.000 A 
ATOM     10  C   UNL     1      -0.225  13.195  21.427  0.00  0.00    +0.000 A 
ATOM     11  C   UNL     1       0.778  14.125  21.623  0.00  0.00    +0.000 A 
ATOM     12  C   UNL     1       1.953  14.045  20.861  0.00  0.00    +0.000 A 
ATOM     13  C   UNL     1       2.128  13.084  19.812  0.00  0.00    +0.000 A 
ATOM     14  C   UNL     1       1.142  12.105  19.577  0.00  0.00    +0.000 A 
ATOM     15  H   UNL     1      -1.707  11.229  20.077  0.00  0.00    +0.000 HD
ENDBRANCH   2   3
BRANCH   1  18
ATOM     16  C   UNL     1       2.057   4.311  18.217  0.00  0.00    +0.000 A 
ATOM     17  C   UNL     1       1.994   5.744  18.234  0.00  0.00    +0.000 A 
ATOM     18  C   UNL     1       3.037   6.548  17.748  0.00  0.00    +0.000 A 
ATOM     19  C   UNL     1       4.145   5.855  17.216  0.00  0.00    +0.000 A 
ATOM     20  C   UNL     1       4.209   4.427  17.154  0.00  0.00    +0.000 A 
ATOM     21  C   UNL     1       3.172   3.629  17.674  0.00  0.00    +0.000 A 
BRANCH  16  23
ATOM     22  C   UNL     1       0.979   3.528  20.206  0.00  0.00    +0.000 C 
ATOM     23  O   UNL     1       1.087   3.516  18.793  0.00  0.00    +0.000 OA
ENDBRANCH  16  23
BRANCH  20  24
ATOM     24  O   UNL     1       5.397   3.963  16.612  0.00  0.00    +0.000 OA
ATOM     25  C   UNL     1       6.634   4.520  17.065  0.00  0.00    +0.000 C 
ENDBRANCH  20  24
BRANCH  21  26
ATOM     26  O   UNL     1       3.380   2.280  17.596  0.00  0.00    +0.000 OA
ATOM     27  C   UNL     1       3.705   1.386  18.646  0.00  0.00    +0.000 C 
ENDBRANCH  21  26
ENDBRANCH   1  18
TORSDOF 5
ENDMDL
MODEL 3
REMARK VINA RESULT:      -7.2      4.311      8.953
REMARK  Name = 
REMARK  9 active torsions:
REMARK  status: ('A' for Active; 'I' for Inactive)
REMARK    1  A    between atoms: C_1  and  O_2
REMARK    2  A    between atoms: O_2  and  C_3
REMARK    3  A    between atoms: C_5  and  C_6
REMARK    4  A    between atoms: N_7  and  N_8
REMARK    5  A    between atoms: C_11  and  C_12
REMARK    6  A    between atoms: C_21  and  O_22
REMARK    7  A    between atoms: O_22  and  C_23
REMARK    8  A    between atoms: C_24  and  O_25
REMARK    9  A    between atoms: O_25  and  C_26
REMARK                            x       y       z     vdW  Elec       q    Type
REMARK                         _______ _______ _______ _____ _____    ______ ____
ROOT
ATOM      1  C   UNL     1       0.926   9.938  18.146  0.00  0.00    +0.000 C 
ATOM      2  N   UNL     1       1.216   8.716  17.757  0.00  0.00    +0.000 NA
ENDROOT
BRANCH   2   3
ATOM      3  N   UNL     1       2.641   8.442  17.336  0.00  0.00    +0.000 NA
ATOM      4  C   UNL     1       3.186   7.453  18.032  0.00  0.00    +0.000 A 
ATOM      5  C   UNL     1       2.498   6.949  19.288  0.00  0.00    +0.000 A 
ATOM      6  C   UNL     1       2.507   5.606  19.163  0.00  0.00    +0.000 A 
ATOM      7  C   UNL     1       1.881   4.989  17.901  0.00  0.00    +0.000 C 
ATOM      8  N   UNL     1       3.719   5.016  19.537  0.00  0.00    +0.000 N 
ATOM      9  C   UNL     1       4.746   5.401  18.590  0.00  0.00    +0.000 A 
ATOM     10  C   UNL     1       5.796   4.479  18.433  0.00  0.00    +0.000 A 
ATOM     11  C   UNL     1       6.581   4.581  17.300  0.00  0.00    +0.000 A 
ATOM     12  C   UNL     1       6.336   5.610  16.379  0.00  0.00    +0.000 A 
ATOM     13  C   UNL     1       5.353   6.628  16.605  0.00  0.00    +0.000 A 
ATOM     14  C   UNL     1       4.518   6.568  17.738  0.00  0.00    +0.000 A 
ATOM     15  H   UNL     1       4.043   5.330  20.454  0.00  0.00    +0.000 HD
ENDBRANCH   2   3
BRANCH   1  18
ATOM     16  C   UNL     1      -2.922  10.754  17.922  0.00  0.00    +0.000 A 
ATOM     17  C   UNL     1      -1.646  10.137  17.702  0.00  0.00    +0.000 A 
ATOM     18  C   UNL     1      -0.503  10.487  18.436  0.00  0.00    +0.000 A 
ATOM     19  C   UNL     1      -0.693  11.472  19.429  0.00  0.00    +0.000 A 
ATOM     20  C   UNL     1      -1.967  12.071  19.692  0.00  0.00    +0.000 A 
ATOM     21  C   UNL     1      -3.100  11.736  18.926  0.00  0.00    +0.000 A 
BRANCH  16  23
ATOM     22  C   UNL     1      -3.961  10.887  15.771  0.00  0.00    +0.000 C 
ATOM     23  O   UNL     1      -4.021  10.495  17.130  0.00  0.00    +0.000 OA
ENDBRANCH  16  23
BRANCH  20  24
ATOM     24  O   UNL     1      -1.916  13.027  20.694  0.00  0.00    +0.000 OA
ATOM     25  C   UNL     1      -2.119  12.626  22.051  0.00  0.00    +0.000 C 
ENDBRANCH  20  24
BRANCH  21  26
ATOM     26  O   UNL     1      -4.241  12.417  19.247  0.00  0.00    +0.000 OA
ATOM     27  C   UNL     1      -5.338  11.963  20.021  0.00  0.00    +0.000 C 
ENDBRANCH  21  26
ENDBRANCH   1  18
TORSDOF 5
ENDMDL
MODEL 4
REMARK VINA RESULT:      -7.2      1.421      2.786
REMARK  Name = 
REMARK  9 active torsions:
REMARK  status: ('A' for Active; 'I' for Inactive)
REMARK    1  A    between atoms: C_1  and  O_2
REMARK    2  A    between atoms: O_2  and  C_3
REMARK    3  A    between atoms: C_5  and  C_6
REMARK    4  A    between atoms: N_7  and  N_8
REMARK    5  A    between atoms: C_11  and  C_12
REMARK    6  A    between atoms: C_21  and  O_22
REMARK    7  A    between atoms: O_22  and  C_23
REMARK    8  A    between atoms: C_24  and  O_25
REMARK    9  A    between atoms: O_25  and  C_26
REMARK                            x       y       z     vdW  Elec       q    Type
REMARK                         _______ _______ _______ _____ _____    ______ ____
ROOT
ATOM      1  C   UNL     1       3.065   8.121  17.860  0.00  0.00    +0.000 C 
ATOM      2  N   UNL     1       1.940   8.800  17.867  0.00  0.00    +0.000 NA
ENDROOT
BRANCH   2   3
ATOM      3  N   UNL     1       2.028  10.287  18.118  0.00  0.00    +0.000 NA
ATOM      4  C   UNL     1       1.100  10.706  18.969  0.00  0.00    +0.000 A 
ATOM      5  C   UNL     1      -0.056   9.792  19.331  0.00  0.00    +0.000 A 
ATOM      6  C   UNL     1      -0.134   9.861  20.675  0.00  0.00    +0.000 A 
ATOM      7  C   UNL     1       1.121   9.520  21.496  0.00  0.00    +0.000 C 
ATOM      8  N   UNL     1      -0.822  10.988  21.139  0.00  0.00    +0.000 N 
ATOM      9  C   UNL     1      -0.049  12.174  20.834  0.00  0.00    +0.000 A 
ATOM     10  C   UNL     1      -0.238  13.259  21.709  0.00  0.00    +0.000 A 
ATOM     11  C   UNL     1       0.721  14.254  21.722  0.00  0.00    +0.000 A 
ATOM     12  C   UNL     1       1.814  14.173  20.846  0.00  0.00    +0.000 A 
ATOM     13  C   UNL     1       1.937  13.138  19.862  0.00  0.00    +0.000 A 
ATOM     14  C   UNL     1       0.994  12.092  19.811  0.00  0.00    +0.000 A 
ATOM     15  H   UNL     1      -1.729  11.111  20.683  0.00  0.00    +0.000 HD
ENDBRANCH   2   3
BRANCH   1  18
ATOM     16  C   UNL     1       4.277   4.457  17.070  0.00  0.00    +0.000 A 
ATOM     17  C   UNL     1       4.254   5.885  17.197  0.00  0.00    +0.000 A 
ATOM     18  C   UNL     1       3.195   6.569  17.813  0.00  0.00    +0.000 A 
ATOM     19  C   UNL     1       2.161   5.757  18.326  0.00  0.00    +0.000 A 
ATOM     20  C   UNL     1       2.185   4.328  18.245  0.00  0.00    +0.000 A 
ATOM     21  C   UNL     1       3.236   3.654  17.595  0.00  0.00    +0.000 A 
BRANCH  16  23
ATOM     22  C   UNL     1       6.509   4.434  16.205  0.00  0.00    +0.000 C 
ATOM     23  O   UNL     1       5.259   3.787  16.369  0.00  0.00    +0.000 OA
ENDBRANCH  16  23
BRANCH  20  24
ATOM     24  O   UNL     1       1.058   3.738  18.795  0.00  0.00    +0.000 OA
ATOM     25  C   UNL     1       0.994   3.541  20.210  0.00  0.00    +0.000 C 
ENDBRANCH  20  24
BRANCH  21  26
ATOM     26  O   UNL     1       3.113   2.294  17.546  0.00  0.00    +0.000 OA
ATOM     27  C   UNL     1       3.621   1.338  18.460  0.00  0.00    +0.000 C 
ENDBRANCH  21  26
ENDBRANCH   1  18
TORSDOF 5
ENDMDL
MODEL 5
REMARK VINA RESULT:      -7.1      1.130      1.135
REMARK  Name = 
REMARK  9 active torsions:
REMARK  status: ('A' for Active; 'I' for Inactive)
REMARK    1  A    between atoms: C_1  and  O_2
REMARK    2  A    between atoms: O_2  and  C_3
REMARK    3  A    between atoms: C_5  and  C_6
REMARK    4  A    between atoms: N_7  and  N_8
REMARK    5  A    between atoms: C_11  and  C_12
REMARK    6  A    between atoms: C_21  and  O_22
REMARK    7  A    between atoms: O_22  and  C_23
REMARK    8  A    between atoms: C_24  and  O_25
REMARK    9  A    between atoms: O_25  and  C_26
REMARK                            x       y       z     vdW  Elec       q    Type
REMARK                         _______ _______ _______ _____ _____    ______ ____
ROOT
ATOM      1  C   UNL     1       2.649   8.091  17.878  0.00  0.00    +0.000 C 
ATOM      2  N   UNL     1       1.802   8.879  18.504  0.00  0.00    +0.000 NA
ENDROOT
BRANCH   2   3
ATOM      3  N   UNL     1       1.812  10.343  18.131  0.00  0.00    +0.000 NA
ATOM      4  C   UNL     1       0.764  10.990  18.622  0.00  0.00    +0.000 A 
ATOM      5  C   UNL     1      -0.406  10.207  19.190  0.00  0.00    +0.000 A 
ATOM      6  C   UNL     1      -0.673  10.804  20.369  0.00  0.00    +0.000 A 
ATOM      7  C   UNL     1       0.464  10.927  21.397  0.00  0.00    +0.000 C 
ATOM      8  N   UNL     1      -1.450  11.961  20.247  0.00  0.00    +0.000 N 
ATOM      9  C   UNL     1      -0.676  12.984  19.575  0.00  0.00    +0.000 A 
ATOM     10  C   UNL     1      -1.017  14.309  19.900  0.00  0.00    +0.000 A 
ATOM     11  C   UNL     1      -0.098  15.301  19.616  0.00  0.00    +0.000 A 
ATOM     12  C   UNL     1       1.108  14.966  18.983  0.00  0.00    +0.000 A 
ATOM     13  C   UNL     1       1.398  13.636  18.531  0.00  0.00    +0.000 A 
ATOM     14  C   UNL     1       0.501  12.584  18.804  0.00  0.00    +0.000 A 
ATOM     15  H   UNL     1      -2.288  11.815  19.679  0.00  0.00    +0.000 HD
ENDBRANCH   2   3
BRANCH   1  18
ATOM     16  C   UNL     1       2.868   4.628  19.742  0.00  0.00    +0.000 A 
ATOM     17  C   UNL     1       2.478   5.963  19.392  0.00  0.00    +0.000 A 
ATOM     18  C   UNL     1       2.942   6.603  18.232  0.00  0.00    +0.000 A 
ATOM     19  C   UNL     1       3.801   5.837  17.415  0.00  0.00    +0.000 A 
ATOM     20  C   UNL     1       4.170   4.490  17.727  0.00  0.00    +0.000 A 
ATOM     21  C   UNL     1       3.725   3.869  18.910  0.00  0.00    +0.000 A 
BRANCH  16  23
ATOM     22  C   UNL     1       1.297   3.295  20.960  0.00  0.00    +0.000 C 
ATOM     23  O   UNL     1       2.505   4.035  20.934  0.00  0.00    +0.000 OA
ENDBRANCH  16  23
BRANCH  20  24
ATOM     24  O   UNL     1       5.037   3.939  16.796  0.00  0.00    +0.000 OA
ATOM     25  C   UNL     1       5.404   4.706  15.647  0.00  0.00    +0.000 C 
ENDBRANCH  20  24
BRANCH  21  26
ATOM     26  O   UNL     1       4.190   2.599  19.111  0.00  0.00    +0.000 OA
ATOM     27  C   UNL     1       3.628   1.382  18.652  0.00  0.00    +0.000 C 
ENDBRANCH  21  26
ENDBRANCH   1  18
TORSDOF 5
ENDMDL
MODEL 6
REMARK VINA RESULT:      -7.1      3.984      8.814
REMARK  Name = 
REMARK  9 active torsions:
REMARK  status: ('A' for Active; 'I' for Inactive)
REMARK    1  A    between atoms: C_1  and  O_2
REMARK    2  A    between atoms: O_2  and  C_3
REMARK    3  A    between atoms: C_5  and  C_6
REMARK    4  A    between atoms: N_7  and  N_8
REMARK    5  A    between atoms: C_11  and  C_12
REMARK    6  A    between atoms: C_21  and  O_22
REMARK    7  A    between atoms: O_22  and  C_23
REMARK    8  A    between atoms: C_24  and  O_25
REMARK    9  A    between atoms: O_25  and  C_26
REMARK                            x       y       z     vdW  Elec       q    Type
REMARK                         _______ _______ _______ _____ _____    ______ ____
ROOT
ATOM      1  C   UNL     1       1.750   9.707  18.591  0.00  0.00    +0.000 C 
ATOM      2  N   UNL     1       1.883   8.452  18.225  0.00  0.00    +0.000 NA
ENDROOT
BRANCH   2   3
ATOM      3  N   UNL     1       3.029   8.116  17.298  0.00  0.00    +0.000 NA
ATOM      4  C   UNL     1       3.644   6.996  17.651  0.00  0.00    +0.000 A 
ATOM      5  C   UNL     1       3.369   6.382  19.012  0.00  0.00    +0.000 A 
ATOM      6  C   UNL     1       3.158   5.075  18.757  0.00  0.00    +0.000 A 
ATOM      7  C   UNL     1       2.063   4.698  17.746  0.00  0.00    +0.000 C 
ATOM      8  N   UNL     1       4.337   4.335  18.613  0.00  0.00    +0.000 N 
ATOM      9  C   UNL     1       5.018   4.758  17.406  0.00  0.00    +0.000 A 
ATOM     10  C   UNL     1       5.821   3.780  16.793  0.00  0.00    +0.000 A 
ATOM     11  C   UNL     1       6.176   3.971  15.471  0.00  0.00    +0.000 A 
ATOM     12  C   UNL     1       5.767   5.137  14.807  0.00  0.00    +0.000 A 
ATOM     13  C   UNL     1       5.063   6.195  15.470  0.00  0.00    +0.000 A 
ATOM     14  C   UNL     1       4.667   6.049  16.814  0.00  0.00    +0.000 A 
ATOM     15  H   UNL     1       4.994   4.488  19.382  0.00  0.00    +0.000 HD
ENDBRANCH   2   3
BRANCH   1  18
ATOM     16  C   UNL     1      -1.593  11.566  19.530  0.00  0.00    +0.000 A 
ATOM     17  C   UNL     1      -0.562  10.921  18.771  0.00  0.00    +0.000 A 
ATOM     18  C   UNL     1       0.545  10.306  19.376  0.00  0.00    +0.000 A 
ATOM     19  C   UNL     1       0.566  10.340  20.787  0.00  0.00    +0.000 A 
ATOM     20  C   UNL     1      -0.474  10.943  21.563  0.00  0.00    +0.000 A 
ATOM     21  C   UNL     1      -1.563  11.587  20.945  0.00  0.00    +0.000 A 
BRANCH  16  23
ATOM     22  C   UNL     1      -3.513  11.551  18.100  0.00  0.00    +0.000 C 
ATOM     23  O   UNL     1      -2.624  12.268  18.939  0.00  0.00    +0.000 OA
ENDBRANCH  16  23
BRANCH  20  24
ATOM     24  O   UNL     1      -0.235  10.878  22.927  0.00  0.00    +0.000 OA
ATOM     25  C   UNL     1      -0.016   9.603  23.536  0.00  0.00    +0.000 C 
ENDBRANCH  20  24
BRANCH  21  26
ATOM     26  O   UNL     1      -2.459  12.164  21.800  0.00  0.00    +0.000 OA
ATOM     27  C   UNL     1      -2.465  13.494  22.290  0.00  0.00    +0.000 C 
ENDBRANCH  21  26
ENDBRANCH   1  18
TORSDOF 5
ENDMDL
MODEL 7
REMARK VINA RESULT:      -7.1      1.054      2.445
REMARK  Name = 
REMARK  9 active torsions:
REMARK  status: ('A' for Active; 'I' for Inactive)
REMARK    1  A    between atoms: C_1  and  O_2
REMARK    2  A    between atoms: O_2  and  C_3
REMARK    3  A    between atoms: C_5  and  C_6
REMARK    4  A    between atoms: N_7  and  N_8
REMARK    5  A    between atoms: C_11  and  C_12
REMARK    6  A    between atoms: C_21  and  O_22
REMARK    7  A    between atoms: O_22  and  C_23
REMARK    8  A    between atoms: C_24  and  O_25
REMARK    9  A    between atoms: O_25  and  C_26
REMARK                            x       y       z     vdW  Elec       q    Type
REMARK                         _______ _______ _______ _____ _____    ______ ____
ROOT
ATOM      1  C   UNL     1       2.888   8.228  17.756  0.00  0.00    +0.000 C 
ATOM      2  N   UNL     1       1.989   8.917  18.424  0.00  0.00    +0.000 NA
ENDROOT
BRANCH   2   3
ATOM      3  N   UNL     1       1.843  10.382  18.084  0.00  0.00    +0.000 NA
ATOM      4  C   UNL     1       0.769  10.920  18.646  0.00  0.00    +0.000 A 
ATOM      5  C   UNL     1      -0.289  10.022  19.260  0.00  0.00    +0.000 A 
ATOM      6  C   UNL     1      -0.542  10.572  20.465  0.00  0.00    +0.000 A 
ATOM      7  C   UNL     1       0.636  10.783  21.431  0.00  0.00    +0.000 C 
ATOM      8  N   UNL     1      -1.428  11.654  20.412  0.00  0.00    +0.000 N 
ATOM      9  C   UNL     1      -0.790  12.755  19.720  0.00  0.00    +0.000 A 
ATOM     10  C   UNL     1      -1.232  14.037  20.092  0.00  0.00    +0.000 A 
ATOM     11  C   UNL     1      -0.426  15.115  19.779  0.00  0.00    +0.000 A 
ATOM     12  C   UNL     1       0.768  14.904  19.073  0.00  0.00    +0.000 A 
ATOM     13  C   UNL     1       1.152  13.615  18.578  0.00  0.00    +0.000 A 
ATOM     14  C   UNL     1       0.372  12.480  18.876  0.00  0.00    +0.000 A 
ATOM     15  H   UNL     1      -2.279  11.440  19.888  0.00  0.00    +0.000 HD
ENDBRANCH   2   3
BRANCH   1  18
ATOM     16  C   UNL     1       4.496   4.640  17.513  0.00  0.00    +0.000 A 
ATOM     17  C   UNL     1       4.200   6.020  17.255  0.00  0.00    +0.000 A 
ATOM     18  C   UNL     1       3.338   6.770  18.069  0.00  0.00    +0.000 A 
ATOM     19  C   UNL     1       2.797   6.085  19.178  0.00  0.00    +0.000 A 
ATOM     20  C   UNL     1       3.111   4.721  19.476  0.00  0.00    +0.000 A 
ATOM     21  C   UNL     1       3.952   3.968  18.633  0.00  0.00    +0.000 A 
BRANCH  16  23
ATOM     22  C   UNL     1       6.500   4.387  16.229  0.00  0.00    +0.000 C 
ATOM     23  O   UNL     1       5.253   3.868  16.656  0.00  0.00    +0.000 OA
ENDBRANCH  16  23
BRANCH  20  24
ATOM     24  O   UNL     1       2.452   4.248  20.599  0.00  0.00    +0.000 OA
ATOM     25  C   UNL     1       1.087   3.839  20.485  0.00  0.00    +0.000 C 
ENDBRANCH  20  24
BRANCH  21  26
ATOM     26  O   UNL     1       4.131   2.664  19.004  0.00  0.00    +0.000 OA
ATOM     27  C   UNL     1       3.476   1.515  18.496  0.00  0.00    +0.000 C 
ENDBRANCH  21  26
ENDBRANCH   1  18
TORSDOF 5
ENDMDL
MODEL 8
REMARK VINA RESULT:      -7.0      4.253      8.879
REMARK  Name = 
REMARK  9 active torsions:
REMARK  status: ('A' for Active; 'I' for Inactive)
REMARK    1  A    between atoms: C_1  and  O_2
REMARK    2  A    between atoms: O_2  and  C_3
REMARK    3  A    between atoms: C_5  and  C_6
REMARK    4  A    between atoms: N_7  and  N_8
REMARK    5  A    between atoms: C_11  and  C_12
REMARK    6  A    between atoms: C_21  and  O_22
REMARK    7  A    between atoms: O_22  and  C_23
REMARK    8  A    between atoms: C_24  and  O_25
REMARK    9  A    between atoms: O_25  and  C_26
REMARK                            x       y       z     vdW  Elec       q    Type
REMARK                         _______ _______ _______ _____ _____    ______ ____
ROOT
ATOM      1  C   UNL     1       0.887   9.981  18.036  0.00  0.00    +0.000 C 
ATOM      2  N   UNL     1       1.230   8.759  17.691  0.00  0.00    +0.000 NA
ENDROOT
BRANCH   2   3
ATOM      3  N   UNL     1       2.701   8.485  17.479  0.00  0.00    +0.000 NA
ATOM      4  C   UNL     1       3.135   7.481  18.229  0.00  0.00    +0.000 A 
ATOM      5  C   UNL     1       2.269   6.958  19.361  0.00  0.00    +0.000 A 
ATOM      6  C   UNL     1       2.292   5.619  19.214  0.00  0.00    +0.000 A 
ATOM      7  C   UNL     1       1.856   5.026  17.863  0.00  0.00    +0.000 C 
ATOM      8  N   UNL     1       3.435   5.015  19.751  0.00  0.00    +0.000 N 
ATOM      9  C   UNL     1       4.591   5.411  18.972  0.00  0.00    +0.000 A 
ATOM     10  C   UNL     1       5.650   4.487  18.953  0.00  0.00    +0.000 A 
ATOM     11  C   UNL     1       6.593   4.604  17.950  0.00  0.00    +0.000 A 
ATOM     12  C   UNL     1       6.488   5.651  17.022  0.00  0.00    +0.000 A 
ATOM     13  C   UNL     1       5.485   6.670  17.120  0.00  0.00    +0.000 A 
ATOM     14  C   UNL     1       4.493   6.594  18.117  0.00  0.00    +0.000 A 
ATOM     15  H   UNL     1       3.622   5.312  20.711  0.00  0.00    +0.000 HD
ENDBRANCH   2   3
BRANCH   1  18
ATOM     16  C   UNL     1      -2.427  11.715  19.271  0.00  0.00    +0.000 A 
ATOM     17  C   UNL     1      -1.049  11.328  19.170  0.00  0.00    +0.000 A 
ATOM     18  C   UNL     1      -0.568  10.531  18.120  0.00  0.00    +0.000 A 
ATOM     19  C   UNL     1      -1.523  10.154  17.151  0.00  0.00    +0.000 A 
ATOM     20  C   UNL     1      -2.893  10.564  17.214  0.00  0.00    +0.000 A 
ATOM     21  C   UNL     1      -3.373  11.336  18.289  0.00  0.00    +0.000 A 
BRANCH  16  23
ATOM     22  C   UNL     1      -2.052  12.650  21.442  0.00  0.00    +0.000 C 
ATOM     23  O   UNL     1      -2.928  12.403  20.357  0.00  0.00    +0.000 OA
ENDBRANCH  16  23
BRANCH  20  24
ATOM     24  O   UNL     1      -3.654  10.061  16.170  0.00  0.00    +0.000 OA
ATOM     25  C   UNL     1      -3.257  10.332  14.824  0.00  0.00    +0.000 C 
ENDBRANCH  20  24
BRANCH  21  26
ATOM     26  O   UNL     1      -4.710  11.617  18.253  0.00  0.00    +0.000 OA
ATOM     27  C   UNL     1      -5.780  10.833  18.750  0.00  0.00    +0.000 C 
ENDBRANCH  21  26
ENDBRANCH   1  18
TORSDOF 5
ENDMDL
MODEL 9
REMARK VINA RESULT:      -7.0      2.077      3.108
REMARK  Name = 
REMARK  9 active torsions:
REMARK  status: ('A' for Active; 'I' for Inactive)
REMARK    1  A    between atoms: C_1  and  O_2
REMARK    2  A    between atoms: O_2  and  C_3
REMARK    3  A    between atoms: C_5  and  C_6
REMARK    4  A    between atoms: N_7  and  N_8
REMARK    5  A    between atoms: C_11  and  C_12
REMARK    6  A    between atoms: C_21  and  O_22
REMARK    7  A    between atoms: O_22  and  C_23
REMARK    8  A    between atoms: C_24  and  O_25
REMARK    9  A    between atoms: O_25  and  C_26
REMARK                            x       y       z     vdW  Elec       q    Type
REMARK                         _______ _______ _______ _____ _____    ______ ____
ROOT
ATOM      1  C   UNL     1       2.692   7.235  19.678  0.00  0.00    +0.000 C 
ATOM      2  N   UNL     1       1.717   8.103  19.522  0.00  0.00    +0.000 NA
ENDROOT
BRANCH   2   3
ATOM      3  N   UNL     1       1.161   8.753  20.768  0.00  0.00    +0.000 NA
ATOM      4  C   UNL     1       0.751   9.994  20.543  0.00  0.00    +0.000 A 
ATOM      5  C   UNL     1       1.137  10.692  19.252  0.00  0.00    +0.000 A 
ATOM      6  C   UNL     1      -0.013  11.234  18.804  0.00  0.00    +0.000 A 
ATOM      7  C   UNL     1      -1.222  10.307  18.594  0.00  0.00    +0.000 C 
ATOM      8  N   UNL     1      -0.336  12.450  19.416  0.00  0.00    +0.000 N 
ATOM      9  C   UNL     1      -0.653  12.210  20.808  0.00  0.00    +0.000 A 
ATOM     10  C   UNL     1      -1.548  13.127  21.389  0.00  0.00    +0.000 A 
ATOM     11  C   UNL     1      -2.189  12.755  22.555  0.00  0.00    +0.000 A 
ATOM     12  C   UNL     1      -1.899  11.512  23.137  0.00  0.00    +0.000 A 
ATOM     13  C   UNL     1      -0.889  10.636  22.619  0.00  0.00    +0.000 A 
ATOM     14  C   UNL     1      -0.213  10.960  21.427  0.00  0.00    +0.000 A 
ATOM     15  H   UNL     1       0.443  13.113  19.409  0.00  0.00    +0.000 HD
ENDBRANCH   2   3
BRANCH   1  18
ATOM     16  C   UNL     1       3.417   4.175  17.305  0.00  0.00    +0.000 A 
ATOM     17  C   UNL     1       2.777   5.042  18.252  0.00  0.00    +0.000 A 
ATOM     18  C   UNL     1       3.279   6.314  18.567  0.00  0.00    +0.000 A 
ATOM     19  C   UNL     1       4.445   6.699  17.872  0.00  0.00    +0.000 A 
ATOM     20  C   UNL     1       5.076   5.865  16.894  0.00  0.00    +0.000 A 
ATOM     21  C   UNL     1       4.583   4.577  16.610  0.00  0.00    +0.000 A 
BRANCH  16  23
ATOM     22  C   UNL     1       3.311   1.901  18.044  0.00  0.00    +0.000 C 
ATOM     23  O   UNL     1       2.993   2.883  17.074  0.00  0.00    +0.000 OA
ENDBRANCH  16  23
BRANCH  20  24
ATOM     24  O   UNL     1       6.218   6.436  16.354  0.00  0.00    +0.000 OA
ATOM     25  C   UNL     1       7.225   6.944  17.232  0.00  0.00    +0.000 C 
ENDBRANCH  20  24
BRANCH  21  26
ATOM     26  O   UNL     1       5.306   3.866  15.694  0.00  0.00    +0.000 OA
ATOM     27  C   UNL     1       5.526   4.173  14.328  0.00  0.00    +0.000 C 
ENDBRANCH  21  26
ENDBRANCH   1  18
TORSDOF 5
ENDMDL
