MODEL 1
REMARK VINA RESULT:      -8.1      0.000      0.000
REMARK  Name = 
REMARK  3 active torsions:
REMARK  status: ('A' for Active; 'I' for Inactive)
REMARK    1  A    between atoms: C_2  and  C_9
REMARK    2  A    between atoms: C_13  and  S_14
REMARK    3  A    between atoms: S_14  and  N_17
REMARK                            x       y       z     vdW  Elec       q    Type
REMARK                         _______ _______ _______ _____ _____    ______ ____
ROOT
ATOM      1  C   UNL     1       7.998   7.913  18.267  0.00  0.00    +0.000 A 
ATOM      2  C   UNL     1       8.515   7.003  19.198  0.00  0.00    +0.000 A 
ATOM      3  C   UNL     1       8.096   5.672  19.160  0.00  0.00    +0.000 A 
ATOM      4  C   UNL     1       7.171   5.252  18.202  0.00  0.00    +0.000 A 
ATOM      5  C   UNL     1       6.643   6.166  17.285  0.00  0.00    +0.000 A 
ATOM      6  C   UNL     1       7.061   7.498  17.310  0.00  0.00    +0.000 A 
ENDROOT
BRANCH   1   8
ATOM      7  O   UNL     1       7.973  10.031  17.334  0.00  0.00    +0.000 OA
ATOM      8  C   UNL     1       8.389   9.344  18.261  0.00  0.00    +0.000 C 
ATOM      9  N   UNL     1       9.252   9.734  19.265  0.00  0.00    +0.000 N 
ATOM     10  C   UNL     1       9.743  11.025  19.350  0.00  0.00    +0.000 A 
ATOM     11  C   UNL     1      10.871  11.419  20.112  0.00  0.00    +0.000 A 
ATOM     12  C   UNL     1      10.982  12.767  19.882  0.00  0.00    +0.000 A 
ATOM     13  O   UNL     1       9.990  13.167  19.055  0.00  0.00    +0.000 OA
ATOM     14  N   UNL     1       9.215  12.079  18.723  0.00  0.00    +0.000 NA
ATOM     15  H   UNL     1       9.667   9.044  19.875  0.00  0.00    +0.000 HD
ENDBRANCH   1   8
BRANCH   5  16
ATOM     16  S   UNL     1       5.544   5.589  16.002  0.00  0.00    +0.000 S 
ATOM     17  O   UNL     1       5.151   6.740  15.219  0.00  0.00    +0.000 OA
ATOM     18  O   UNL     1       6.197   4.453  15.372  0.00  0.00    +0.000 OA
BRANCH  16  19
ATOM     19  N   UNL     1       4.178   5.021  16.860  0.00  0.00    +0.000 NA
ATOM     20  C   UNL     1       4.144   3.577  17.179  0.00  0.00    +0.000 C 
ATOM     21  C   UNL     1       2.739   2.988  17.063  0.00  0.00    +0.000 C 
ATOM     22  C   UNL     1       1.874   3.196  18.302  0.00  0.00    +0.000 C 
ATOM     23  C   UNL     1       1.577   4.657  18.606  0.00  0.00    +0.000 C 
ATOM     24  C   UNL     1       2.824   5.441  18.989  0.00  0.00    +0.000 C 
ATOM     25  C   UNL     1       3.581   6.006  17.797  0.00  0.00    +0.000 C 
ENDBRANCH  16  19
ENDBRANCH   5  16
TORSDOF 3
ENDMDL
MODEL 2
REMARK VINA RESULT:      -7.8      5.668      7.641
REMARK  Name = 
REMARK  3 active torsions:
REMARK  status: ('A' for Active; 'I' for Inactive)
REMARK    1  A    between atoms: C_2  and  C_9
REMARK    2  A    between atoms: C_13  and  S_14
REMARK    3  A    between atoms: S_14  and  N_17
REMARK                            x       y       z     vdW  Elec       q    Type
REMARK                         _______ _______ _______ _____ _____    ______ ____
ROOT
ATOM      1  C   UNL     1       1.383   8.977  19.900  0.00  0.00    +0.000 A 
ATOM      2  C   UNL     1       1.608   9.647  18.691  0.00  0.00    +0.000 A 
ATOM      3  C   UNL     1       2.227   8.970  17.638  0.00  0.00    +0.000 A 
ATOM      4  C   UNL     1       2.617   7.638  17.790  0.00  0.00    +0.000 A 
ATOM      5  C   UNL     1       2.407   6.978  19.005  0.00  0.00    +0.000 A 
ATOM      6  C   UNL     1       1.783   7.643  20.061  0.00  0.00    +0.000 A 
ENDROOT
BRANCH   1   8
ATOM      7  O   UNL     1       0.950   9.148  22.168  0.00  0.00    +0.000 OA
ATOM      8  C   UNL     1       0.744   9.640  21.064  0.00  0.00    +0.000 C 
ATOM      9  N   UNL     1      -0.086  10.703  20.766  0.00  0.00    +0.000 N 
ATOM     10  C   UNL     1      -0.790  11.380  21.746  0.00  0.00    +0.000 A 
ATOM     11  C   UNL     1      -1.902  12.227  21.513  0.00  0.00    +0.000 A 
ATOM     12  C   UNL     1      -2.270  12.657  22.762  0.00  0.00    +0.000 A 
ATOM     13  O   UNL     1      -1.439  12.123  23.686  0.00  0.00    +0.000 OA
ATOM     14  N   UNL     1      -0.514  11.326  23.052  0.00  0.00    +0.000 NA
ATOM     15  H   UNL     1      -0.318  10.913  19.807  0.00  0.00    +0.000 HD
ENDBRANCH   1   8
BRANCH   5  16
ATOM     16  S   UNL     1       2.816   5.245  19.145  0.00  0.00    +0.000 S 
ATOM     17  O   UNL     1       2.969   4.949  20.553  0.00  0.00    +0.000 OA
ATOM     18  O   UNL     1       1.848   4.521  18.337  0.00  0.00    +0.000 OA
BRANCH  16  19
ATOM     19  N   UNL     1       4.347   5.124  18.392  0.00  0.00    +0.000 NA
ATOM     20  C   UNL     1       5.491   4.767  19.259  0.00  0.00    +0.000 C 
ATOM     21  C   UNL     1       6.768   5.513  18.874  0.00  0.00    +0.000 C 
ATOM     22  C   UNL     1       7.542   4.868  17.729  0.00  0.00    +0.000 C 
ATOM     23  C   UNL     1       6.785   4.845  16.411  0.00  0.00    +0.000 C 
ATOM     24  C   UNL     1       5.550   3.956  16.460  0.00  0.00    +0.000 C 
ATOM     25  C   UNL     1       4.308   4.664  16.981  0.00  0.00    +0.000 C 
ENDBRANCH  16  19
ENDBRANCH   5  16
TORSDOF 3
ENDMDL
MODEL 3
REMARK VINA RESULT:      -7.8      4.666      6.448
REMARK  Name = 
REMARK  3 active torsions:
REMARK  status: ('A' for Active; 'I' for Inactive)
REMARK    1  A    between atoms: C_2  and  C_9
REMARK    2  A    between atoms: C_13  and  S_14
REMARK    3  A    between atoms: S_14  and  N_17
REMARK                            x       y       z     vdW  Elec       q    Type
REMARK                         _______ _______ _______ _____ _____    ______ ____
ROOT
ATOM      1  C   UNL     1       3.334   6.112  18.181  0.00  0.00    +0.000 A 
ATOM      2  C   UNL     1       2.802   4.835  18.397  0.00  0.00    +0.000 A 
ATOM      3  C   UNL     1       3.535   3.712  18.008  0.00  0.00    +0.000 A 
ATOM      4  C   UNL     1       4.788   3.863  17.409  0.00  0.00    +0.000 A 
ATOM      5  C   UNL     1       5.309   5.140  17.179  0.00  0.00    +0.000 A 
ATOM      6  C   UNL     1       4.587   6.268  17.571  0.00  0.00    +0.000 A 
ENDROOT
BRANCH   1   8
ATOM      7  O   UNL     1       2.561   8.245  17.723  0.00  0.00    +0.000 OA
ATOM      8  C   UNL     1       2.602   7.346  18.556  0.00  0.00    +0.000 C 
ATOM      9  N   UNL     1       2.110   7.383  19.846  0.00  0.00    +0.000 N 
ATOM     10  C   UNL     1       1.455   8.493  20.350  0.00  0.00    +0.000 A 
ATOM     11  C   UNL     1       1.231   8.752  21.725  0.00  0.00    +0.000 A 
ATOM     12  C   UNL     1       0.567   9.952  21.741  0.00  0.00    +0.000 A 
ATOM     13  O   UNL     1       0.388  10.385  20.472  0.00  0.00    +0.000 OA
ATOM     14  N   UNL     1       0.941   9.474  19.603  0.00  0.00    +0.000 NA
ATOM     15  H   UNL     1       2.351   6.655  20.503  0.00  0.00    +0.000 HD
ENDBRANCH   1   8
BRANCH   5  16
ATOM     16  S   UNL     1       6.956   5.309  16.510  0.00  0.00    +0.000 S 
ATOM     17  O   UNL     1       7.267   6.722  16.479  0.00  0.00    +0.000 OA
ATOM     18  O   UNL     1       7.801   4.381  17.243  0.00  0.00    +0.000 OA
BRANCH  16  19
ATOM     19  N   UNL     1       6.804   4.748  14.902  0.00  0.00    +0.000 NA
ATOM     20  C   UNL     1       5.433   4.659  14.353  0.00  0.00    +0.000 C 
ATOM     21  C   UNL     1       5.242   3.435  13.458  0.00  0.00    +0.000 C 
ATOM     22  C   UNL     1       5.714   3.636  12.022  0.00  0.00    +0.000 C 
ATOM     23  C   UNL     1       7.209   3.886  11.895  0.00  0.00    +0.000 C 
ATOM     24  C   UNL     1       7.638   5.203  12.527  0.00  0.00    +0.000 C 
ATOM     25  C   UNL     1       7.941   5.097  14.014  0.00  0.00    +0.000 C 
ENDBRANCH  16  19
ENDBRANCH   5  16
TORSDOF 3
ENDMDL
MODEL 4
REMARK VINA RESULT:      -7.8      2.347      3.490
REMARK  Name = 
REMARK  3 active torsions:
REMARK  status: ('A' for Active; 'I' for Inactive)
REMARK    1  A    between atoms: C_2  and  C_9
REMARK    2  A    between atoms: C_13  and  S_14
REMARK    3  A    between atoms: S_14  and  N_17
REMARK                            x       y       z     vdW  Elec       q    Type
REMARK                         _______ _______ _______ _____ _____    ______ ____
ROOT
ATOM      1  C   UNL     1       6.753   5.651  17.032  0.00  0.00    +0.000 A 
ATOM      2  C   UNL     1       7.155   5.335  15.729  0.00  0.00    +0.000 A 
ATOM      3  C   UNL     1       6.445   4.374  15.007  0.00  0.00    +0.000 A 
ATOM      4  C   UNL     1       5.343   3.734  15.581  0.00  0.00    +0.000 A 
ATOM      5  C   UNL     1       4.956   4.038  16.889  0.00  0.00    +0.000 A 
ATOM      6  C   UNL     1       5.655   5.003  17.616  0.00  0.00    +0.000 A 
ENDROOT
BRANCH   1   8
ATOM      7  O   UNL     1       7.774   6.316  19.000  0.00  0.00    +0.000 OA
ATOM      8  C   UNL     1       7.471   6.651  17.860  0.00  0.00    +0.000 C 
ATOM      9  N   UNL     1       7.653   7.890  17.279  0.00  0.00    +0.000 N 
ATOM     10  C   UNL     1       8.257   8.936  17.955  0.00  0.00    +0.000 A 
ATOM     11  C   UNL     1       8.175  10.301  17.585  0.00  0.00    +0.000 A 
ATOM     12  C   UNL     1       8.908  10.957  18.541  0.00  0.00    +0.000 A 
ATOM     13  O   UNL     1       9.410  10.059  19.419  0.00  0.00    +0.000 OA
ATOM     14  N   UNL     1       9.004   8.797  19.054  0.00  0.00    +0.000 NA
ATOM     15  H   UNL     1       7.210   8.109  16.399  0.00  0.00    +0.000 HD
ENDBRANCH   1   8
BRANCH   5  16
ATOM     16  S   UNL     1       3.484   3.288  17.566  0.00  0.00    +0.000 S 
ATOM     17  O   UNL     1       2.537   3.137  16.483  0.00  0.00    +0.000 OA
ATOM     18  O   UNL     1       3.920   2.134  18.335  0.00  0.00    +0.000 OA
BRANCH  16  19
ATOM     19  N   UNL     1       2.888   4.467  18.652  0.00  0.00    +0.000 NA
ATOM     20  C   UNL     1       2.350   5.710  18.058  0.00  0.00    +0.000 C 
ATOM     21  C   UNL     1       2.692   6.948  18.887  0.00  0.00    +0.000 C 
ATOM     22  C   UNL     1       1.743   7.194  20.055  0.00  0.00    +0.000 C 
ATOM     23  C   UNL     1       1.764   6.097  21.108  0.00  0.00    +0.000 C 
ATOM     24  C   UNL     1       1.235   4.770  20.581  0.00  0.00    +0.000 C 
ATOM     25  C   UNL     1       2.294   3.919  19.897  0.00  0.00    +0.000 C 
ENDBRANCH  16  19
ENDBRANCH   5  16
TORSDOF 3
ENDMDL
MODEL 5
REMARK VINA RESULT:      -7.8      4.772      6.364
REMARK  Name = 
REMARK  3 active torsions:
REMARK  status: ('A' for Active; 'I' for Inactive)
REMARK    1  A    between atoms: C_2  and  C_9
REMARK    2  A    between atoms: C_13  and  S_14
REMARK    3  A    between atoms: S_14  and  N_17
REMARK                            x       y       z     vdW  Elec       q    Type
REMARK                         _______ _______ _______ _____ _____    ______ ____
ROOT
ATOM      1  C   UNL     1       2.073   6.540  19.544  0.00  0.00    +0.000 A 
ATOM      2  C   UNL     1       1.771   6.139  20.851  0.00  0.00    +0.000 A 
ATOM      3  C   UNL     1       1.847   4.785  21.187  0.00  0.00    +0.000 A 
ATOM      4  C   UNL     1       2.220   3.842  20.228  0.00  0.00    +0.000 A 
ATOM      5  C   UNL     1       2.504   4.243  18.919  0.00  0.00    +0.000 A 
ATOM      6  C   UNL     1       2.438   5.595  18.575  0.00  0.00    +0.000 A 
ENDROOT
BRANCH   1   8
ATOM      7  O   UNL     1       2.672   8.284  18.145  0.00  0.00    +0.000 OA
ATOM      8  C   UNL     1       1.998   7.958  19.116  0.00  0.00    +0.000 C 
ATOM      9  N   UNL     1       1.234   8.785  19.915  0.00  0.00    +0.000 N 
ATOM     10  C   UNL     1       1.119  10.142  19.668  0.00  0.00    +0.000 A 
ATOM     11  C   UNL     1       0.659  11.104  20.601  0.00  0.00    +0.000 A 
ATOM     12  C   UNL     1       0.729  12.295  19.924  0.00  0.00    +0.000 A 
ATOM     13  O   UNL     1       1.185  12.075  18.670  0.00  0.00    +0.000 OA
ATOM     14  N   UNL     1       1.428  10.731  18.509  0.00  0.00    +0.000 NA
ATOM     15  H   UNL     1       0.862   8.446  20.789  0.00  0.00    +0.000 HD
ENDBRANCH   1   8
BRANCH   5  16
ATOM     16  S   UNL     1       3.082   3.038  17.735  0.00  0.00    +0.000 S 
ATOM     17  O   UNL     1       3.221   1.778  18.433  0.00  0.00    +0.000 OA
ATOM     18  O   UNL     1       2.217   3.148  16.572  0.00  0.00    +0.000 OA
BRANCH  16  19
ATOM     19  N   UNL     1       4.639   3.600  17.307  0.00  0.00    +0.000 NA
ATOM     20  C   UNL     1       4.773   4.255  15.988  0.00  0.00    +0.000 C 
ATOM     21  C   UNL     1       6.091   3.910  15.297  0.00  0.00    +0.000 C 
ATOM     22  C   UNL     1       7.271   4.765  15.748  0.00  0.00    +0.000 C 
ATOM     23  C   UNL     1       7.632   4.591  17.215  0.00  0.00    +0.000 C 
ATOM     24  C   UNL     1       6.539   5.091  18.150  0.00  0.00    +0.000 C 
ATOM     25  C   UNL     1       5.471   4.051  18.451  0.00  0.00    +0.000 C 
ENDBRANCH  16  19
ENDBRANCH   5  16
TORSDOF 3
ENDMDL
MODEL 6
REMARK VINA RESULT:      -7.8      4.979      6.836
REMARK  Name = 
REMARK  3 active torsions:
REMARK  status: ('A' for Active; 'I' for Inactive)
REMARK    1  A    between atoms: C_2  and  C_9
REMARK    2  A    between atoms: C_13  and  S_14
REMARK    3  A    between atoms: S_14  and  N_17
REMARK                            x       y       z     vdW  Elec       q    Type
REMARK                         _______ _______ _______ _____ _____    ______ ____
ROOT
ATOM      1  C   UNL     1       2.040   5.602  20.332  0.00  0.00    +0.000 A 
ATOM      2  C   UNL     1       1.938   4.899  21.539  0.00  0.00    +0.000 A 
ATOM      3  C   UNL     1       2.198   3.527  21.557  0.00  0.00    +0.000 A 
ATOM      4  C   UNL     1       2.557   2.864  20.382  0.00  0.00    +0.000 A 
ATOM      5  C   UNL     1       2.640   3.565  19.175  0.00  0.00    +0.000 A 
ATOM      6  C   UNL     1       2.389   4.937  19.148  0.00  0.00    +0.000 A 
ENDROOT
BRANCH   1   8
ATOM      7  O   UNL     1       2.348   7.681  19.361  0.00  0.00    +0.000 OA
ATOM      8  C   UNL     1       1.763   7.056  20.240  0.00  0.00    +0.000 C 
ATOM      9  N   UNL     1       0.930   7.571  21.213  0.00  0.00    +0.000 N 
ATOM     10  C   UNL     1       0.629   8.920  21.283  0.00  0.00    +0.000 A 
ATOM     11  C   UNL     1       0.086   9.576  22.416  0.00  0.00    +0.000 A 
ATOM     12  C   UNL     1      -0.028  10.886  22.027  0.00  0.00    +0.000 A 
ATOM     13  O   UNL     1       0.401  11.018  20.751  0.00  0.00    +0.000 OA
ATOM     14  N   UNL     1       0.810   9.790  20.286  0.00  0.00    +0.000 NA
ATOM     15  H   UNL     1       0.642   6.996  21.992  0.00  0.00    +0.000 HD
ENDBRANCH   1   8
BRANCH   5  16
ATOM     16  S   UNL     1       3.202   2.721  17.705  0.00  0.00    +0.000 S 
ATOM     17  O   UNL     1       3.457   1.344  18.067  0.00  0.00    +0.000 OA
ATOM     18  O   UNL     1       2.256   3.046  16.650  0.00  0.00    +0.000 OA
BRANCH  16  19
ATOM     19  N   UNL     1       4.694   3.476  17.347  0.00  0.00    +0.000 NA
ATOM     20  C   UNL     1       4.774   4.224  16.073  0.00  0.00    +0.000 C 
ATOM     21  C   UNL     1       6.133   4.070  15.391  0.00  0.00    +0.000 C 
ATOM     22  C   UNL     1       7.204   5.018  15.919  0.00  0.00    +0.000 C 
ATOM     23  C   UNL     1       7.560   4.791  17.380  0.00  0.00    +0.000 C 
ATOM     24  C   UNL     1       6.406   5.109  18.320  0.00  0.00    +0.000 C 
ATOM     25  C   UNL     1       5.454   3.941  18.534  0.00  0.00    +0.000 C 
ENDBRANCH  16  19
ENDBRANCH   5  16
TORSDOF 3
ENDMDL
MODEL 7
REMARK VINA RESULT:      -7.7      5.498      7.313
REMARK  Name = 
REMARK  3 active torsions:
REMARK  status: ('A' for Active; 'I' for Inactive)
REMARK    1  A    between atoms: C_2  and  C_9
REMARK    2  A    between atoms: C_13  and  S_14
REMARK    3  A    between atoms: S_14  and  N_17
REMARK                            x       y       z     vdW  Elec       q    Type
REMARK                         _______ _______ _______ _____ _____    ______ ____
ROOT
ATOM      1  C   UNL     1       1.443   8.632  19.799  0.00  0.00    +0.000 A 
ATOM      2  C   UNL     1       1.784   9.323  18.629  0.00  0.00    +0.000 A 
ATOM      3  C   UNL     1       2.505   8.665  17.631  0.00  0.00    +0.000 A 
ATOM      4  C   UNL     1       2.882   7.330  17.798  0.00  0.00    +0.000 A 
ATOM      5  C   UNL     1       2.557   6.650  18.975  0.00  0.00    +0.000 A 
ATOM      6  C   UNL     1       1.829   7.296  19.976  0.00  0.00    +0.000 A 
ENDROOT
BRANCH   1   8
ATOM      7  O   UNL     1       0.148   8.532  21.715  0.00  0.00    +0.000 OA
ATOM      8  C   UNL     1       0.692   9.275  20.905  0.00  0.00    +0.000 C 
ATOM      9  N   UNL     1       0.617  10.653  20.857  0.00  0.00    +0.000 N 
ATOM     10  C   UNL     1      -0.098  11.381  21.792  0.00  0.00    +0.000 A 
ATOM     11  C   UNL     1      -0.513  12.727  21.632  0.00  0.00    +0.000 A 
ATOM     12  C   UNL     1      -1.189  13.014  22.791  0.00  0.00    +0.000 A 
ATOM     13  O   UNL     1      -1.176  11.931  23.600  0.00  0.00    +0.000 OA
ATOM     14  N   UNL     1      -0.494  10.911  22.978  0.00  0.00    +0.000 NA
ATOM     15  H   UNL     1       0.956  11.152  20.049  0.00  0.00    +0.000 HD
ENDBRANCH   1   8
BRANCH   5  16
ATOM     16  S   UNL     1       2.955   4.916  19.126  0.00  0.00    +0.000 S 
ATOM     17  O   UNL     1       3.087   4.622  20.536  0.00  0.00    +0.000 OA
ATOM     18  O   UNL     1       1.995   4.194  18.306  0.00  0.00    +0.000 OA
BRANCH  16  19
ATOM     19  N   UNL     1       4.495   4.785  18.395  0.00  0.00    +0.000 NA
ATOM     20  C   UNL     1       4.546   4.893  16.921  0.00  0.00    +0.000 C 
ATOM     21  C   UNL     1       5.572   3.944  16.302  0.00  0.00    +0.000 C 
ATOM     22  C   UNL     1       6.999   4.482  16.307  0.00  0.00    +0.000 C 
ATOM     23  C   UNL     1       7.571   4.695  17.700  0.00  0.00    +0.000 C 
ATOM     24  C   UNL     1       6.846   5.792  18.469  0.00  0.00    +0.000 C 
ATOM     25  C   UNL     1       5.618   5.301  19.220  0.00  0.00    +0.000 C 
ENDBRANCH  16  19
ENDBRANCH   5  16
TORSDOF 3
ENDMDL
MODEL 8
REMARK VINA RESULT:      -7.6      4.720      7.024
REMARK  Name = 
REMARK  3 active torsions:
REMARK  status: ('A' for Active; 'I' for Inactive)
REMARK    1  A    between atoms: C_2  and  C_9
REMARK    2  A    between atoms: C_13  and  S_14
REMARK    3  A    between atoms: S_14  and  N_17
REMARK                            x       y       z     vdW  Elec       q    Type
REMARK                         _______ _______ _______ _____ _____    ______ ____
ROOT
ATOM      1  C   UNL     1       1.948   5.641  20.397  0.00  0.00    +0.000 A 
ATOM      2  C   UNL     1       1.837   4.837  21.538  0.00  0.00    +0.000 A 
ATOM      3  C   UNL     1       2.149   3.479  21.453  0.00  0.00    +0.000 A 
ATOM      4  C   UNL     1       2.568   2.928  20.239  0.00  0.00    +0.000 A 
ATOM      5  C   UNL     1       2.660   3.730  19.098  0.00  0.00    +0.000 A 
ATOM      6  C   UNL     1       2.357   5.090  19.175  0.00  0.00    +0.000 A 
ENDROOT
BRANCH   1   8
ATOM      7  O   UNL     1       2.203   7.803  19.608  0.00  0.00    +0.000 OA
ATOM      8  C   UNL     1       1.618   7.087  20.415  0.00  0.00    +0.000 C 
ATOM      9  N   UNL     1       0.738   7.489  21.400  0.00  0.00    +0.000 N 
ATOM     10  C   UNL     1       0.383   8.816  21.570  0.00  0.00    +0.000 A 
ATOM     11  C   UNL     1      -0.217   9.356  22.734  0.00  0.00    +0.000 A 
ATOM     12  C   UNL     1      -0.370  10.689  22.450  0.00  0.00    +0.000 A 
ATOM     13  O   UNL     1       0.090  10.941  21.204  0.00  0.00    +0.000 OA
ATOM     14  N   UNL     1       0.560   9.771  20.653  0.00  0.00    +0.000 NA
ATOM     15  H   UNL     1       0.450   6.842  22.119  0.00  0.00    +0.000 HD
ENDBRANCH   1   8
BRANCH   5  16
ATOM     16  S   UNL     1       3.298   3.031  17.583  0.00  0.00    +0.000 S 
ATOM     17  O   UNL     1       3.760   1.694  17.883  0.00  0.00    +0.000 OA
ATOM     18  O   UNL     1       2.286   3.254  16.562  0.00  0.00    +0.000 OA
BRANCH  16  19
ATOM     19  N   UNL     1       4.654   4.009  17.222  0.00  0.00    +0.000 NA
ATOM     20  C   UNL     1       5.625   4.232  18.315  0.00  0.00    +0.000 C 
ATOM     21  C   UNL     1       6.190   5.653  18.311  0.00  0.00    +0.000 C 
ATOM     22  C   UNL     1       7.354   5.855  17.347  0.00  0.00    +0.000 C 
ATOM     23  C   UNL     1       6.983   5.662  15.884  0.00  0.00    +0.000 C 
ATOM     24  C   UNL     1       6.590   4.226  15.565  0.00  0.00    +0.000 C 
ATOM     25  C   UNL     1       5.121   3.925  15.815  0.00  0.00    +0.000 C 
ENDBRANCH  16  19
ENDBRANCH   5  16
TORSDOF 3
ENDMDL
MODEL 9
REMARK VINA RESULT:      -7.5      4.755      6.498
REMARK  Name = 
REMARK  3 active torsions:
REMARK  status: ('A' for Active; 'I' for Inactive)
REMARK    1  A    between atoms: C_2  and  C_9
REMARK    2  A    between atoms: C_13  and  S_14
REMARK    3  A    between atoms: S_14  and  N_17
REMARK                            x       y       z     vdW  Elec       q    Type
REMARK                         _______ _______ _______ _____ _____    ______ ____
ROOT
ATOM      1  C   UNL     1       3.360   5.414  18.420  0.00  0.00    +0.000 A 
ATOM      2  C   UNL     1       2.934   4.080  18.433  0.00  0.00    +0.000 A 
ATOM      3  C   UNL     1       3.706   3.108  17.795  0.00  0.00    +0.000 A 
ATOM      4  C   UNL     1       4.893   3.464  17.150  0.00  0.00    +0.000 A 
ATOM      5  C   UNL     1       5.306   4.799  17.123  0.00  0.00    +0.000 A 
ATOM      6  C   UNL     1       4.545   5.777  17.764  0.00  0.00    +0.000 A 
ENDROOT
BRANCH   1   8
ATOM      7  O   UNL     1       2.042   6.237  20.136  0.00  0.00    +0.000 OA
ATOM      8  C   UNL     1       2.580   6.499  19.065  0.00  0.00    +0.000 C 
ATOM      9  N   UNL     1       2.475   7.672  18.345  0.00  0.00    +0.000 N 
ATOM     10  C   UNL     1       1.731   8.747  18.799  0.00  0.00    +0.000 A 
ATOM     11  C   UNL     1       1.289   9.828  17.997  0.00  0.00    +0.000 A 
ATOM     12  C   UNL     1       0.591  10.631  18.863  0.00  0.00    +0.000 A 
ATOM     13  O   UNL     1       0.618  10.088  20.101  0.00  0.00    +0.000 OA
ATOM     14  N   UNL     1       1.330   8.912  20.062  0.00  0.00    +0.000 NA
ATOM     15  H   UNL     1       2.814   7.717  17.395  0.00  0.00    +0.000 HD
ENDBRANCH   1   8
BRANCH   5  16
ATOM     16  S   UNL     1       6.878   5.218  16.386  0.00  0.00    +0.000 S 
ATOM     17  O   UNL     1       6.978   6.661  16.371  0.00  0.00    +0.000 OA
ATOM     18  O   UNL     1       7.883   4.413  17.061  0.00  0.00    +0.000 OA
BRANCH  16  19
ATOM     19  N   UNL     1       6.734   4.664  14.775  0.00  0.00    +0.000 NA
ATOM     20  C   UNL     1       5.365   4.561  14.224  0.00  0.00    +0.000 C 
ATOM     21  C   UNL     1       5.190   3.339  13.322  0.00  0.00    +0.000 C 
ATOM     22  C   UNL     1       5.661   3.555  11.888  0.00  0.00    +0.000 C 
ATOM     23  C   UNL     1       7.153   3.824  11.763  0.00  0.00    +0.000 C 
ATOM     24  C   UNL     1       7.564   5.143  12.403  0.00  0.00    +0.000 C 
ATOM     25  C   UNL     1       7.868   5.032  13.889  0.00  0.00    +0.000 C 
ENDBRANCH  16  19
ENDBRANCH   5  16
TORSDOF 3
ENDMDL
