MODEL 1
REMARK VINA RESULT:      -7.4      0.000      0.000
REMARK  Name = 
REMARK  3 active torsions:
REMARK  status: ('A' for Active; 'I' for Inactive)
REMARK    1  A    between atoms: C_2  and  O_3
REMARK    2  A    between atoms: C_2  and  C_4
REMARK    3  A    between atoms: C_4  and  C_5
REMARK                            x       y       z     vdW  Elec       q    Type
REMARK                         _______ _______ _______ _____ _____    ______ ____
ROOT
ATOM      1  C   UNL     1       6.076   5.025  16.148  0.00  0.00    +0.000 A 
ATOM      2  C   UNL     1       5.902   6.203  16.881  0.00  0.00    +0.000 A 
ATOM      3  C   UNL     1       4.711   6.433  17.569  0.00  0.00    +0.000 A 
ATOM      4  C   UNL     1       3.681   5.484  17.552  0.00  0.00    +0.000 A 
ATOM      5  C   UNL     1       3.858   4.268  16.867  0.00  0.00    +0.000 A 
ATOM      6  C   UNL     1       5.057   4.057  16.161  0.00  0.00    +0.000 A 
ATOM      7  C   UNL     1       2.825   3.217  16.787  0.00  0.00    +0.000 C 
ATOM      8  C   UNL     1       2.055   2.764  17.791  0.00  0.00    +0.000 C 
ATOM      9  C   UNL     1       2.090   3.211  19.195  0.00  0.00    +0.000 A 
ATOM     10  C   UNL     1       2.039   2.224  20.191  0.00  0.00    +0.000 A 
ATOM     11  C   UNL     1       2.090   2.568  21.544  0.00  0.00    +0.000 A 
ATOM     12  C   UNL     1       2.176   3.905  21.920  0.00  0.00    +0.000 A 
ATOM     13  C   UNL     1       2.192   4.899  20.945  0.00  0.00    +0.000 A 
ATOM     14  C   UNL     1       2.145   4.562  19.584  0.00  0.00    +0.000 A 
ATOM     15  S   UNL     1       2.170   5.906  18.408  0.00  0.00    +0.000 S 
ENDROOT
BRANCH   1  16
ATOM     16  C   UNL     1       7.338   4.806  15.344  0.00  0.00    +0.000 C 
BRANCH  16  18
ATOM     17  O   UNL     1       6.457   4.010  13.261  0.00  0.00    +0.000 OA
ATOM     18  C   UNL     1       7.210   4.790  13.836  0.00  0.00    +0.000 C 
BRANCH  18  19
ATOM     19  O   UNL     1       7.966   5.666  13.144  0.00  0.00    +0.000 OA
ATOM     20  H   UNL     1       8.299   6.423  13.662  0.00  0.00    +0.000 HD
ENDBRANCH  18  19
ENDBRANCH  16  18
ENDBRANCH   1  16
TORSDOF 3
ENDMDL
MODEL 2
REMARK VINA RESULT:      -7.3      1.914      2.668
REMARK  Name = 
REMARK  3 active torsions:
REMARK  status: ('A' for Active; 'I' for Inactive)
REMARK    1  A    between atoms: C_2  and  O_3
REMARK    2  A    between atoms: C_2  and  C_4
REMARK    3  A    between atoms: C_4  and  C_5
REMARK                            x       y       z     vdW  Elec       q    Type
REMARK                         _______ _______ _______ _____ _____    ______ ____
ROOT
ATOM      1  C   UNL     1       6.366   4.809  14.710  0.00  0.00    +0.000 A 
ATOM      2  C   UNL     1       7.095   4.055  15.635  0.00  0.00    +0.000 A 
ATOM      3  C   UNL     1       6.869   4.211  17.002  0.00  0.00    +0.000 A 
ATOM      4  C   UNL     1       5.899   5.108  17.469  0.00  0.00    +0.000 A 
ATOM      5  C   UNL     1       5.117   5.834  16.554  0.00  0.00    +0.000 A 
ATOM      6  C   UNL     1       5.368   5.681  15.178  0.00  0.00    +0.000 A 
ATOM      7  C   UNL     1       4.081   6.806  16.954  0.00  0.00    +0.000 C 
ATOM      8  C   UNL     1       3.158   6.651  17.919  0.00  0.00    +0.000 C 
ATOM      9  C   UNL     1       2.974   5.465  18.775  0.00  0.00    +0.000 A 
ATOM     10  C   UNL     1       1.660   5.018  18.988  0.00  0.00    +0.000 A 
ATOM     11  C   UNL     1       1.406   3.889  19.769  0.00  0.00    +0.000 A 
ATOM     12  C   UNL     1       2.460   3.199  20.360  0.00  0.00    +0.000 A 
ATOM     13  C   UNL     1       3.766   3.650  20.188  0.00  0.00    +0.000 A 
ATOM     14  C   UNL     1       4.031   4.781  19.402  0.00  0.00    +0.000 A 
ATOM     15  S   UNL     1       5.737   5.283  19.240  0.00  0.00    +0.000 S 
ENDROOT
BRANCH   1  16
ATOM     16  C   UNL     1       6.659   4.694  13.231  0.00  0.00    +0.000 C 
BRANCH  16  18
ATOM     17  O   UNL     1       4.798   3.540  12.256  0.00  0.00    +0.000 OA
ATOM     18  C   UNL     1       6.005   3.557  12.477  0.00  0.00    +0.000 C 
BRANCH  18  19
ATOM     19  O   UNL     1       6.802   2.552  12.063  0.00  0.00    +0.000 OA
ATOM     20  H   UNL     1       6.337   1.800  11.649  0.00  0.00    +0.000 HD
ENDBRANCH  18  19
ENDBRANCH  16  18
ENDBRANCH   1  16
TORSDOF 3
ENDMDL
MODEL 3
REMARK VINA RESULT:      -7.2      1.684      2.407
REMARK  Name = 
REMARK  3 active torsions:
REMARK  status: ('A' for Active; 'I' for Inactive)
REMARK    1  A    between atoms: C_2  and  O_3
REMARK    2  A    between atoms: C_2  and  C_4
REMARK    3  A    between atoms: C_4  and  C_5
REMARK                            x       y       z     vdW  Elec       q    Type
REMARK                         _______ _______ _______ _____ _____    ______ ____
ROOT
ATOM      1  C   UNL     1       6.666   5.119  15.239  0.00  0.00    +0.000 A 
ATOM      2  C   UNL     1       7.338   4.388  16.223  0.00  0.00    +0.000 A 
ATOM      3  C   UNL     1       6.855   4.361  17.531  0.00  0.00    +0.000 A 
ATOM      4  C   UNL     1       5.683   5.048  17.875  0.00  0.00    +0.000 A 
ATOM      5  C   UNL     1       4.962   5.743  16.887  0.00  0.00    +0.000 A 
ATOM      6  C   UNL     1       5.471   5.778  15.576  0.00  0.00    +0.000 A 
ATOM      7  C   UNL     1       3.726   6.501  17.160  0.00  0.00    +0.000 C 
ATOM      8  C   UNL     1       2.688   6.108  17.918  0.00  0.00    +0.000 C 
ATOM      9  C   UNL     1       2.557   4.823  18.628  0.00  0.00    +0.000 A 
ATOM     10  C   UNL     1       1.320   4.165  18.554  0.00  0.00    +0.000 A 
ATOM     11  C   UNL     1       1.125   2.932  19.183  0.00  0.00    +0.000 A 
ATOM     12  C   UNL     1       2.160   2.349  19.907  0.00  0.00    +0.000 A 
ATOM     13  C   UNL     1       3.382   3.005  20.020  0.00  0.00    +0.000 A 
ATOM     14  C   UNL     1       3.588   4.241  19.389  0.00  0.00    +0.000 A 
ATOM     15  S   UNL     1       5.189   5.007  19.591  0.00  0.00    +0.000 S 
ENDROOT
BRANCH   1  16
ATOM     16  C   UNL     1       7.227   5.208  13.837  0.00  0.00    +0.000 C 
BRANCH  16  18
ATOM     17  O   UNL     1       7.232   4.122  11.700  0.00  0.00    +0.000 OA
ATOM     18  C   UNL     1       6.870   4.098  12.872  0.00  0.00    +0.000 C 
BRANCH  18  19
ATOM     19  O   UNL     1       6.127   3.080  13.350  0.00  0.00    +0.000 OA
ATOM     20  H   UNL     1       6.154   2.969  14.319  0.00  0.00    +0.000 HD
ENDBRANCH  18  19
ENDBRANCH  16  18
ENDBRANCH   1  16
TORSDOF 3
ENDMDL
MODEL 4
REMARK VINA RESULT:      -7.1      5.074      6.510
REMARK  Name = 
REMARK  3 active torsions:
REMARK  status: ('A' for Active; 'I' for Inactive)
REMARK    1  A    between atoms: C_2  and  O_3
REMARK    2  A    between atoms: C_2  and  C_4
REMARK    3  A    between atoms: C_4  and  C_5
REMARK                            x       y       z     vdW  Elec       q    Type
REMARK                         _______ _______ _______ _____ _____    ______ ____
ROOT
ATOM      1  C   UNL     1       0.805   9.821  18.872  0.00  0.00    +0.000 A 
ATOM      2  C   UNL     1       1.566   9.581  17.724  0.00  0.00    +0.000 A 
ATOM      3  C   UNL     1       2.425   8.484  17.668  0.00  0.00    +0.000 A 
ATOM      4  C   UNL     1       2.524   7.597  18.747  0.00  0.00    +0.000 A 
ATOM      5  C   UNL     1       1.726   7.789  19.889  0.00  0.00    +0.000 A 
ATOM      6  C   UNL     1       0.878   8.910  19.941  0.00  0.00    +0.000 A 
ATOM      7  C   UNL     1       1.771   6.913  21.075  0.00  0.00    +0.000 C 
ATOM      8  C   UNL     1       1.806   5.569  21.086  0.00  0.00    +0.000 C 
ATOM      9  C   UNL     1       1.789   4.681  19.910  0.00  0.00    +0.000 A 
ATOM     10  C   UNL     1       0.955   3.553  19.961  0.00  0.00    +0.000 A 
ATOM     11  C   UNL     1       0.869   2.676  18.877  0.00  0.00    +0.000 A 
ATOM     12  C   UNL     1       1.626   2.907  17.733  0.00  0.00    +0.000 A 
ATOM     13  C   UNL     1       2.485   4.001  17.679  0.00  0.00    +0.000 A 
ATOM     14  C   UNL     1       2.576   4.889  18.761  0.00  0.00    +0.000 A 
ATOM     15  S   UNL     1       3.705   6.263  18.600  0.00  0.00    +0.000 S 
ENDROOT
BRANCH   1  16
ATOM     16  C   UNL     1      -0.073  11.049  18.963  0.00  0.00    +0.000 C 
BRANCH  16  18
ATOM     17  O   UNL     1      -1.987  10.166  17.821  0.00  0.00    +0.000 OA
ATOM     18  C   UNL     1      -1.256  11.131  18.024  0.00  0.00    +0.000 C 
BRANCH  18  19
ATOM     19  O   UNL     1      -1.473  12.310  17.407  0.00  0.00    +0.000 OA
ATOM     20  H   UNL     1      -0.888  13.038  17.692  0.00  0.00    +0.000 HD
ENDBRANCH  18  19
ENDBRANCH  16  18
ENDBRANCH   1  16
TORSDOF 3
ENDMDL
MODEL 5
REMARK VINA RESULT:      -7.1      4.728      7.211
REMARK  Name = 
REMARK  3 active torsions:
REMARK  status: ('A' for Active; 'I' for Inactive)
REMARK    1  A    between atoms: C_2  and  O_3
REMARK    2  A    between atoms: C_2  and  C_4
REMARK    3  A    between atoms: C_4  and  C_5
REMARK                            x       y       z     vdW  Elec       q    Type
REMARK                         _______ _______ _______ _____ _____    ______ ____
ROOT
ATOM      1  C   UNL     1       1.216   7.808  20.648  0.00  0.00    +0.000 A 
ATOM      2  C   UNL     1       1.431   6.511  21.125  0.00  0.00    +0.000 A 
ATOM      3  C   UNL     1       2.160   5.596  20.365  0.00  0.00    +0.000 A 
ATOM      4  C   UNL     1       2.701   5.965  19.127  0.00  0.00    +0.000 A 
ATOM      5  C   UNL     1       2.543   7.281  18.656  0.00  0.00    +0.000 A 
ATOM      6  C   UNL     1       1.790   8.188  19.423  0.00  0.00    +0.000 A 
ATOM      7  C   UNL     1       3.069   7.754  17.361  0.00  0.00    +0.000 C 
ATOM      8  C   UNL     1       4.286   7.508  16.846  0.00  0.00    +0.000 C 
ATOM      9  C   UNL     1       5.363   6.722  17.474  0.00  0.00    +0.000 A 
ATOM     10  C   UNL     1       6.665   7.242  17.413  0.00  0.00    +0.000 A 
ATOM     11  C   UNL     1       7.736   6.567  18.004  0.00  0.00    +0.000 A 
ATOM     12  C   UNL     1       7.521   5.353  18.651  0.00  0.00    +0.000 A 
ATOM     13  C   UNL     1       6.242   4.806  18.689  0.00  0.00    +0.000 A 
ATOM     14  C   UNL     1       5.161   5.479  18.102  0.00  0.00    +0.000 A 
ATOM     15  S   UNL     1       3.558   4.698  18.202  0.00  0.00    +0.000 S 
ENDROOT
BRANCH   1  16
ATOM     16  C   UNL     1       0.366   8.779  21.437  0.00  0.00    +0.000 C 
BRANCH  16  18
ATOM     17  O   UNL     1       0.237   9.752  23.624  0.00  0.00    +0.000 OA
ATOM     18  C   UNL     1       0.951   9.338  22.715  0.00  0.00    +0.000 C 
BRANCH  18  19
ATOM     19  O   UNL     1       2.295   9.373  22.815  0.00  0.00    +0.000 OA
ATOM     20  H   UNL     1       2.767   9.522  21.974  0.00  0.00    +0.000 HD
ENDBRANCH  18  19
ENDBRANCH  16  18
ENDBRANCH   1  16
TORSDOF 3
ENDMDL
MODEL 6
REMARK VINA RESULT:      -7.1      2.484      2.716
REMARK  Name = 
REMARK  3 active torsions:
REMARK  status: ('A' for Active; 'I' for Inactive)
REMARK    1  A    between atoms: C_2  and  O_3
REMARK    2  A    between atoms: C_2  and  C_4
REMARK    3  A    between atoms: C_4  and  C_5
REMARK                            x       y       z     vdW  Elec       q    Type
REMARK                         _______ _______ _______ _____ _____    ______ ____
ROOT
ATOM      1  C   UNL     1       5.979   6.301  17.185  0.00  0.00    +0.000 A 
ATOM      2  C   UNL     1       4.903   7.165  17.414  0.00  0.00    +0.000 A 
ATOM      3  C   UNL     1       3.621   6.652  17.605  0.00  0.00    +0.000 A 
ATOM      4  C   UNL     1       3.393   5.270  17.590  0.00  0.00    +0.000 A 
ATOM      5  C   UNL     1       4.471   4.383  17.417  0.00  0.00    +0.000 A 
ATOM      6  C   UNL     1       5.757   4.914  17.207  0.00  0.00    +0.000 A 
ATOM      7  C   UNL     1       4.323   2.915  17.378  0.00  0.00    +0.000 C 
ATOM      8  C   UNL     1       3.577   2.156  18.199  0.00  0.00    +0.000 C 
ATOM      9  C   UNL     1       2.756   2.630  19.327  0.00  0.00    +0.000 A 
ATOM     10  C   UNL     1       2.820   1.903  20.526  0.00  0.00    +0.000 A 
ATOM     11  C   UNL     1       2.088   2.301  21.647  0.00  0.00    +0.000 A 
ATOM     12  C   UNL     1       1.269   3.424  21.580  0.00  0.00    +0.000 A 
ATOM     13  C   UNL     1       1.166   4.137  20.388  0.00  0.00    +0.000 A 
ATOM     14  C   UNL     1       1.900   3.745  19.259  0.00  0.00    +0.000 A 
ATOM     15  S   UNL     1       1.702   4.721  17.776  0.00  0.00    +0.000 S 
ENDROOT
BRANCH   1  16
ATOM     16  C   UNL     1       7.357   6.857  16.907  0.00  0.00    +0.000 C 
BRANCH  16  18
ATOM     17  O   UNL     1       7.832   9.048  17.756  0.00  0.00    +0.000 OA
ATOM     18  C   UNL     1       7.931   7.835  17.910  0.00  0.00    +0.000 C 
BRANCH  18  19
ATOM     19  O   UNL     1       8.566   7.318  18.981  0.00  0.00    +0.000 OA
ATOM     20  H   UNL     1       8.111   7.450  19.834  0.00  0.00    +0.000 HD
ENDBRANCH  18  19
ENDBRANCH  16  18
ENDBRANCH   1  16
TORSDOF 3
ENDMDL
MODEL 7
REMARK VINA RESULT:      -7.0      4.329      5.748
REMARK  Name = 
REMARK  3 active torsions:
REMARK  status: ('A' for Active; 'I' for Inactive)
REMARK    1  A    between atoms: C_2  and  O_3
REMARK    2  A    between atoms: C_2  and  C_4
REMARK    3  A    between atoms: C_4  and  C_5
REMARK                            x       y       z     vdW  Elec       q    Type
REMARK                         _______ _______ _______ _____ _____    ______ ____
ROOT
ATOM      1  C   UNL     1       1.706   9.090  18.471  0.00  0.00    +0.000 A 
ATOM      2  C   UNL     1       2.667   8.728  17.522  0.00  0.00    +0.000 A 
ATOM      3  C   UNL     1       3.424   7.569  17.696  0.00  0.00    +0.000 A 
ATOM      4  C   UNL     1       3.221   6.743  18.809  0.00  0.00    +0.000 A 
ATOM      5  C   UNL     1       2.221   7.061  19.746  0.00  0.00    +0.000 A 
ATOM      6  C   UNL     1       1.478   8.242  19.569  0.00  0.00    +0.000 A 
ATOM      7  C   UNL     1       1.945   6.255  20.951  0.00  0.00    +0.000 C 
ATOM      8  C   UNL     1       1.864   4.916  21.026  0.00  0.00    +0.000 C 
ATOM      9  C   UNL     1       2.018   3.963  19.912  0.00  0.00    +0.000 A 
ATOM     10  C   UNL     1       1.100   2.905  19.833  0.00  0.00    +0.000 A 
ATOM     11  C   UNL     1       1.168   1.973  18.794  0.00  0.00    +0.000 A 
ATOM     12  C   UNL     1       2.164   2.079  17.828  0.00  0.00    +0.000 A 
ATOM     13  C   UNL     1       3.104   3.103  17.911  0.00  0.00    +0.000 A 
ATOM     14  C   UNL     1       3.041   4.044  18.949  0.00  0.00    +0.000 A 
ATOM     15  S   UNL     1       4.290   5.321  18.973  0.00  0.00    +0.000 S 
ENDROOT
BRANCH   1  16
ATOM     16  C   UNL     1       0.936  10.382  18.321  0.00  0.00    +0.000 C 
BRANCH  16  18
ATOM     17  O   UNL     1       1.624  12.194  19.733  0.00  0.00    +0.000 OA
ATOM     18  C   UNL     1       1.669  11.671  18.624  0.00  0.00    +0.000 C 
BRANCH  18  19
ATOM     19  O   UNL     1       2.371  12.231  17.619  0.00  0.00    +0.000 OA
ATOM     20  H   UNL     1       2.087  13.130  17.368  0.00  0.00    +0.000 HD
ENDBRANCH  18  19
ENDBRANCH  16  18
ENDBRANCH   1  16
TORSDOF 3
ENDMDL
MODEL 8
REMARK VINA RESULT:      -6.9      4.782      6.217
REMARK  Name = 
REMARK  3 active torsions:
REMARK  status: ('A' for Active; 'I' for Inactive)
REMARK    1  A    between atoms: C_2  and  O_3
REMARK    2  A    between atoms: C_2  and  C_4
REMARK    3  A    between atoms: C_4  and  C_5
REMARK                            x       y       z     vdW  Elec       q    Type
REMARK                         _______ _______ _______ _____ _____    ______ ____
ROOT
ATOM      1  C   UNL     1       1.469   9.253  18.608  0.00  0.00    +0.000 A 
ATOM      2  C   UNL     1       2.394   8.948  17.605  0.00  0.00    +0.000 A 
ATOM      3  C   UNL     1       3.191   7.808  17.707  0.00  0.00    +0.000 A 
ATOM      4  C   UNL     1       3.065   6.944  18.802  0.00  0.00    +0.000 A 
ATOM      5  C   UNL     1       2.102   7.203  19.794  0.00  0.00    +0.000 A 
ATOM      6  C   UNL     1       1.318   8.367  19.688  0.00  0.00    +0.000 A 
ATOM      7  C   UNL     1       1.907   6.355  20.986  0.00  0.00    +0.000 C 
ATOM      8  C   UNL     1       1.868   5.012  21.023  0.00  0.00    +0.000 C 
ATOM      9  C   UNL     1       1.996   4.098  19.874  0.00  0.00    +0.000 A 
ATOM     10  C   UNL     1       1.107   3.015  19.805  0.00  0.00    +0.000 A 
ATOM     11  C   UNL     1       1.152   2.117  18.736  0.00  0.00    +0.000 A 
ATOM     12  C   UNL     1       2.097   2.281  17.728  0.00  0.00    +0.000 A 
ATOM     13  C   UNL     1       3.010   3.330  17.799  0.00  0.00    +0.000 A 
ATOM     14  C   UNL     1       2.970   4.238  18.868  0.00  0.00    +0.000 A 
ATOM     15  S   UNL     1       4.181   5.550  18.873  0.00  0.00    +0.000 S 
ENDROOT
BRANCH   1  16
ATOM     16  C   UNL     1       0.655  10.525  18.534  0.00  0.00    +0.000 C 
BRANCH  16  18
ATOM     17  O   UNL     1      -1.704  10.101  18.472  0.00  0.00    +0.000 OA
ATOM     18  C   UNL     1      -0.740  10.496  19.120  0.00  0.00    +0.000 C 
BRANCH  18  19
ATOM     19  O   UNL     1      -0.885  10.931  20.388  0.00  0.00    +0.000 OA
ATOM     20  H   UNL     1      -1.407  10.345  20.968  0.00  0.00    +0.000 HD
ENDBRANCH  18  19
ENDBRANCH  16  18
ENDBRANCH   1  16
TORSDOF 3
ENDMDL
MODEL 9
REMARK VINA RESULT:      -6.8      5.423      6.914
REMARK  Name = 
REMARK  3 active torsions:
REMARK  status: ('A' for Active; 'I' for Inactive)
REMARK    1  A    between atoms: C_2  and  O_3
REMARK    2  A    between atoms: C_2  and  C_4
REMARK    3  A    between atoms: C_4  and  C_5
REMARK                            x       y       z     vdW  Elec       q    Type
REMARK                         _______ _______ _______ _____ _____    ______ ____
ROOT
ATOM      1  C   UNL     1       0.264  10.165  19.139  0.00  0.00    +0.000 A 
ATOM      2  C   UNL     1       0.848   9.965  17.884  0.00  0.00    +0.000 A 
ATOM      3  C   UNL     1       1.762   8.929  17.693  0.00  0.00    +0.000 A 
ATOM      4  C   UNL     1       2.095   8.065  18.744  0.00  0.00    +0.000 A 
ATOM      5  C   UNL     1       1.476   8.215  19.998  0.00  0.00    +0.000 A 
ATOM      6  C   UNL     1       0.570   9.275  20.183  0.00  0.00    +0.000 A 
ATOM      7  C   UNL     1       1.772   7.359  21.163  0.00  0.00    +0.000 C 
ATOM      8  C   UNL     1       1.903   6.021  21.169  0.00  0.00    +0.000 C 
ATOM      9  C   UNL     1       1.762   5.120  20.012  0.00  0.00    +0.000 A 
ATOM     10  C   UNL     1       1.028   3.937  20.197  0.00  0.00    +0.000 A 
ATOM     11  C   UNL     1       0.832   3.043  19.142  0.00  0.00    +0.000 A 
ATOM     12  C   UNL     1       1.380   3.311  17.891  0.00  0.00    +0.000 A 
ATOM     13  C   UNL     1       2.140   4.462  17.700  0.00  0.00    +0.000 A 
ATOM     14  C   UNL     1       2.338   5.367  18.753  0.00  0.00    +0.000 A 
ATOM     15  S   UNL     1       3.328   6.814  18.412  0.00  0.00    +0.000 S 
ENDROOT
BRANCH   1  16
ATOM     16  C   UNL     1      -0.672  11.330  19.367  0.00  0.00    +0.000 C 
BRANCH  16  18
ATOM     17  O   UNL     1       0.069  13.386  18.381  0.00  0.00    +0.000 OA
ATOM     18  C   UNL     1      -0.691  12.424  18.322  0.00  0.00    +0.000 C 
BRANCH  18  19
ATOM     19  O   UNL     1      -1.587  12.306  17.322  0.00  0.00    +0.000 OA
ATOM     20  H   UNL     1      -1.365  11.639  16.646  0.00  0.00    +0.000 HD
ENDBRANCH  18  19
ENDBRANCH  16  18
ENDBRANCH   1  16
TORSDOF 3
ENDMDL
