MODEL 1
REMARK VINA RESULT:      -6.3      0.000      0.000
REMARK  Name = 
REMARK  6 active torsions:
REMARK  status: ('A' for Active; 'I' for Inactive)
REMARK    1  A    between atoms: C_1  and  C_2
REMARK    2  A    between atoms: C_2  and  O_3
REMARK    3  A    between atoms: O_3  and  C_4
REMARK    4  A    between atoms: C_4  and  C_6
REMARK    5  A    between atoms: C_6  and  C_7
REMARK    6  A    between atoms: C_12  and  C_14
REMARK                            x       y       z     vdW  Elec       q    Type
REMARK                         _______ _______ _______ _____ _____    ______ ____
ROOT
ATOM      1  C   UNL     1       6.502   4.867  17.530  0.00  0.00    +0.000 A 
ATOM      2  N   UNL     1       7.136   4.524  18.634  0.00  0.00    +0.000 NA
ATOM      3  N   UNL     1       7.878   5.570  19.147  0.00  0.00    +0.000 NA
ATOM      4  C   UNL     1       7.768   6.660  18.420  0.00  0.00    +0.000 A 
ATOM      5  N   UNL     1       8.408   7.828  18.737  0.00  0.00    +0.000 N 
ATOM      6  C   UNL     1       8.273   9.042  18.110  0.00  0.00    +0.000 C 
ATOM      7  O   UNL     1       7.534   9.288  17.163  0.00  0.00    +0.000 OA
ATOM      8  S   UNL     1       6.806   6.478  17.027  0.00  0.00    +0.000 S 
ATOM      9  H   UNL     1       8.999   7.784  19.557  0.00  0.00    +0.000 HD
ENDROOT
BRANCH   6  10
ATOM     10  C   UNL     1       9.107  10.072  18.700  0.00  0.00    +0.000 A 
ATOM     11  C   UNL     1       9.899  11.042  18.113  0.00  0.00    +0.000 A 
ATOM     12  C   UNL     1      10.502  11.770  19.167  0.00  0.00    +0.000 A 
ATOM     13  C   UNL     1      10.045  11.201  20.333  0.00  0.00    +0.000 A 
ATOM     14  O   UNL     1       9.197  10.174  20.064  0.00  0.00    +0.000 OA
ENDBRANCH   6  10
BRANCH   1  15
ATOM     15  C   UNL     1       5.624   3.971  16.737  0.00  0.00    +0.000 C 
BRANCH  15  16
ATOM     16  C   UNL     1       4.238   3.954  17.328  0.00  0.00    +0.000 C 
ATOM     17  O   UNL     1       3.537   4.924  17.577  0.00  0.00    +0.000 OA
BRANCH  16  18
ATOM     18  O   UNL     1       3.896   2.658  17.597  0.00  0.00    +0.000 OA
BRANCH  18  20
ATOM     19  C   UNL     1       4.418   2.420  19.911  0.00  0.00    +0.000 C 
ATOM     20  C   UNL     1       3.301   2.438  18.884  0.00  0.00    +0.000 C 
ENDBRANCH  18  20
ENDBRANCH  16  18
ENDBRANCH  15  16
ENDBRANCH   1  15
TORSDOF 5
ENDMDL
MODEL 2
REMARK VINA RESULT:      -6.2      1.152      1.378
REMARK  Name = 
REMARK  6 active torsions:
REMARK  status: ('A' for Active; 'I' for Inactive)
REMARK    1  A    between atoms: C_1  and  C_2
REMARK    2  A    between atoms: C_2  and  O_3
REMARK    3  A    between atoms: O_3  and  C_4
REMARK    4  A    between atoms: C_4  and  C_6
REMARK    5  A    between atoms: C_6  and  C_7
REMARK    6  A    between atoms: C_12  and  C_14
REMARK                            x       y       z     vdW  Elec       q    Type
REMARK                         _______ _______ _______ _____ _____    ______ ____
ROOT
ATOM      1  C   UNL     1       6.387   5.029  17.842  0.00  0.00    +0.000 A 
ATOM      2  N   UNL     1       7.214   4.625  18.787  0.00  0.00    +0.000 NA
ATOM      3  N   UNL     1       8.063   5.636  19.194  0.00  0.00    +0.000 NA
ATOM      4  C   UNL     1       7.838   6.761  18.552  0.00  0.00    +0.000 A 
ATOM      5  N   UNL     1       8.552   7.905  18.790  0.00  0.00    +0.000 N 
ATOM      6  C   UNL     1       8.324   9.149  18.256  0.00  0.00    +0.000 C 
ATOM      7  O   UNL     1       7.423   9.450  17.482  0.00  0.00    +0.000 OA
ATOM      8  S   UNL     1       6.623   6.658  17.363  0.00  0.00    +0.000 S 
ATOM      9  H   UNL     1       9.288   7.815  19.479  0.00  0.00    +0.000 HD
ENDROOT
BRANCH   6  10
ATOM     10  C   UNL     1       9.278  10.140  18.720  0.00  0.00    +0.000 A 
ATOM     11  C   UNL     1       9.617  10.542  19.999  0.00  0.00    +0.000 A 
ATOM     12  C   UNL     1      10.598  11.553  19.862  0.00  0.00    +0.000 A 
ATOM     13  C   UNL     1      10.800  11.709  18.511  0.00  0.00    +0.000 A 
ATOM     14  O   UNL     1      10.009  10.857  17.808  0.00  0.00    +0.000 OA
ENDBRANCH   6  10
BRANCH   1  15
ATOM     15  C   UNL     1       5.355   4.182  17.195  0.00  0.00    +0.000 C 
BRANCH  15  16
ATOM     16  C   UNL     1       4.045   4.316  17.928  0.00  0.00    +0.000 C 
ATOM     17  O   UNL     1       3.832   4.985  18.928  0.00  0.00    +0.000 OA
BRANCH  16  18
ATOM     18  O   UNL     1       3.122   3.513  17.317  0.00  0.00    +0.000 OA
BRANCH  18  20
ATOM     19  C   UNL     1       1.364   2.459  18.535  0.00  0.00    +0.000 C 
ATOM     20  C   UNL     1       1.768   3.697  17.756  0.00  0.00    +0.000 C 
ENDBRANCH  18  20
ENDBRANCH  16  18
ENDBRANCH  15  16
ENDBRANCH   1  15
TORSDOF 5
ENDMDL
MODEL 3
REMARK VINA RESULT:      -6.2      4.812      6.557
REMARK  Name = 
REMARK  6 active torsions:
REMARK  status: ('A' for Active; 'I' for Inactive)
REMARK    1  A    between atoms: C_1  and  C_2
REMARK    2  A    between atoms: C_2  and  O_3
REMARK    3  A    between atoms: O_3  and  C_4
REMARK    4  A    between atoms: C_4  and  C_6
REMARK    5  A    between atoms: C_6  and  C_7
REMARK    6  A    between atoms: C_12  and  C_14
REMARK                            x       y       z     vdW  Elec       q    Type
REMARK                         _______ _______ _______ _____ _____    ______ ____
ROOT
ATOM      1  C   UNL     1       4.699   5.380  17.462  0.00  0.00    +0.000 A 
ATOM      2  N   UNL     1       4.579   4.615  18.529  0.00  0.00    +0.000 NA
ATOM      3  N   UNL     1       3.775   5.197  19.490  0.00  0.00    +0.000 NA
ATOM      4  C   UNL     1       3.312   6.367  19.109  0.00  0.00    +0.000 A 
ATOM      5  N   UNL     1       2.487   7.127  19.893  0.00  0.00    +0.000 N 
ATOM      6  C   UNL     1       1.867   8.302  19.546  0.00  0.00    +0.000 C 
ATOM      7  O   UNL     1       1.936   8.862  18.457  0.00  0.00    +0.000 OA
ATOM      8  S   UNL     1       3.869   6.876  17.582  0.00  0.00    +0.000 S 
ATOM      9  H   UNL     1       2.281   6.737  20.804  0.00  0.00    +0.000 HD
ENDROOT
BRANCH   6  10
ATOM     10  C   UNL     1       1.066   8.852  20.624  0.00  0.00    +0.000 A 
ATOM     11  C   UNL     1       1.070   8.587  21.981  0.00  0.00    +0.000 A 
ATOM     12  C   UNL     1       0.068   9.403  22.559  0.00  0.00    +0.000 A 
ATOM     13  C   UNL     1      -0.489  10.115  21.523  0.00  0.00    +0.000 A 
ATOM     14  O   UNL     1       0.108   9.793  20.346  0.00  0.00    +0.000 OA
ENDBRANCH   6  10
BRANCH   1  15
ATOM     15  C   UNL     1       5.495   5.042  16.256  0.00  0.00    +0.000 C 
BRANCH  15  16
ATOM     16  C   UNL     1       6.956   5.311  16.511  0.00  0.00    +0.000 C 
ATOM     17  O   UNL     1       7.846   4.480  16.609  0.00  0.00    +0.000 OA
BRANCH  16  18
ATOM     18  O   UNL     1       7.128   6.658  16.673  0.00  0.00    +0.000 OA
BRANCH  18  20
ATOM     19  C   UNL     1       8.028   8.542  17.823  0.00  0.00    +0.000 C 
ATOM     20  C   UNL     1       7.767   7.049  17.896  0.00  0.00    +0.000 C 
ENDBRANCH  18  20
ENDBRANCH  16  18
ENDBRANCH  15  16
ENDBRANCH   1  15
TORSDOF 5
ENDMDL
MODEL 4
REMARK VINA RESULT:      -6.2      1.272      1.699
REMARK  Name = 
REMARK  6 active torsions:
REMARK  status: ('A' for Active; 'I' for Inactive)
REMARK    1  A    between atoms: C_1  and  C_2
REMARK    2  A    between atoms: C_2  and  O_3
REMARK    3  A    between atoms: O_3  and  C_4
REMARK    4  A    between atoms: C_4  and  C_6
REMARK    5  A    between atoms: C_6  and  C_7
REMARK    6  A    between atoms: C_12  and  C_14
REMARK                            x       y       z     vdW  Elec       q    Type
REMARK                         _______ _______ _______ _____ _____    ______ ____
ROOT
ATOM      1  C   UNL     1       6.462   5.016  17.709  0.00  0.00    +0.000 A 
ATOM      2  N   UNL     1       7.232   4.609  18.698  0.00  0.00    +0.000 NA
ATOM      3  N   UNL     1       8.047   5.621  19.166  0.00  0.00    +0.000 NA
ATOM      4  C   UNL     1       7.853   6.751  18.522  0.00  0.00    +0.000 A 
ATOM      5  N   UNL     1       8.543   7.897  18.816  0.00  0.00    +0.000 N 
ATOM      6  C   UNL     1       8.339   9.145  18.281  0.00  0.00    +0.000 C 
ATOM      7  O   UNL     1       7.484   9.447  17.455  0.00  0.00    +0.000 OA
ATOM      8  S   UNL     1       6.714   6.652  17.260  0.00  0.00    +0.000 S 
ATOM      9  H   UNL     1       9.236   7.805  19.547  0.00  0.00    +0.000 HD
ENDROOT
BRANCH   6  10
ATOM     10  C   UNL     1       9.255  10.137  18.811  0.00  0.00    +0.000 A 
ATOM     11  C   UNL     1       9.509  10.532  20.112  0.00  0.00    +0.000 A 
ATOM     12  C   UNL     1      10.491  11.549  20.046  0.00  0.00    +0.000 A 
ATOM     13  C   UNL     1      10.777  11.717  18.712  0.00  0.00    +0.000 A 
ATOM     14  O   UNL     1      10.038  10.866  17.953  0.00  0.00    +0.000 OA
ENDBRANCH   6  10
BRANCH   1  15
ATOM     15  C   UNL     1       5.477   4.169  16.991  0.00  0.00    +0.000 C 
BRANCH  15  16
ATOM     16  C   UNL     1       4.317   3.846  17.897  0.00  0.00    +0.000 C 
ATOM     17  O   UNL     1       4.019   2.747  18.340  0.00  0.00    +0.000 OA
BRANCH  16  18
ATOM     18  O   UNL     1       3.602   4.991  18.111  0.00  0.00    +0.000 OA
BRANCH  18  20
ATOM     19  C   UNL     1       2.520   6.541  19.565  0.00  0.00    +0.000 C 
ATOM     20  C   UNL     1       3.037   5.122  19.424  0.00  0.00    +0.000 C 
ENDBRANCH  18  20
ENDBRANCH  16  18
ENDBRANCH  15  16
ENDBRANCH   1  15
TORSDOF 5
ENDMDL
MODEL 5
REMARK VINA RESULT:      -6.0      4.910      6.152
REMARK  Name = 
REMARK  6 active torsions:
REMARK  status: ('A' for Active; 'I' for Inactive)
REMARK    1  A    between atoms: C_1  and  C_2
REMARK    2  A    between atoms: C_2  and  O_3
REMARK    3  A    between atoms: O_3  and  C_4
REMARK    4  A    between atoms: C_4  and  C_6
REMARK    5  A    between atoms: C_6  and  C_7
REMARK    6  A    between atoms: C_12  and  C_14
REMARK                            x       y       z     vdW  Elec       q    Type
REMARK                         _______ _______ _______ _____ _____    ______ ____
ROOT
ATOM      1  C   UNL     1       4.893   4.282  17.342  0.00  0.00    +0.000 A 
ATOM      2  N   UNL     1       4.597   3.645  18.459  0.00  0.00    +0.000 NA
ATOM      3  N   UNL     1       3.819   4.416  19.300  0.00  0.00    +0.000 NA
ATOM      4  C   UNL     1       3.548   5.595  18.784  0.00  0.00    +0.000 A 
ATOM      5  N   UNL     1       2.786   6.529  19.432  0.00  0.00    +0.000 N 
ATOM      6  C   UNL     1       2.358   7.736  18.937  0.00  0.00    +0.000 C 
ATOM      7  O   UNL     1       2.576   8.175  17.813  0.00  0.00    +0.000 OA
ATOM      8  S   UNL     1       4.271   5.878  17.268  0.00  0.00    +0.000 S 
ATOM      9  H   UNL     1       2.468   6.258  20.354  0.00  0.00    +0.000 HD
ENDROOT
BRANCH   6  10
ATOM     10  C   UNL     1       1.570   8.487  19.897  0.00  0.00    +0.000 A 
ATOM     11  C   UNL     1       0.763   9.598  19.735  0.00  0.00    +0.000 A 
ATOM     12  C   UNL     1       0.247   9.918  21.014  0.00  0.00    +0.000 A 
ATOM     13  C   UNL     1       0.769   8.986  21.880  0.00  0.00    +0.000 A 
ATOM     14  O   UNL     1       1.570   8.112  21.216  0.00  0.00    +0.000 OA
ENDBRANCH   6  10
BRANCH   1  15
ATOM     15  C   UNL     1       5.713   3.728  16.237  0.00  0.00    +0.000 C 
BRANCH  15  16
ATOM     16  C   UNL     1       7.054   4.416  16.195  0.00  0.00    +0.000 C 
ATOM     17  O   UNL     1       7.777   4.665  17.148  0.00  0.00    +0.000 OA
BRANCH  16  18
ATOM     18  O   UNL     1       7.318   4.774  14.903  0.00  0.00    +0.000 OA
BRANCH  18  20
ATOM     19  C   UNL     1       6.910   4.004  12.683  0.00  0.00    +0.000 C 
ATOM     20  C   UNL     1       6.267   4.499  13.966  0.00  0.00    +0.000 C 
ENDBRANCH  18  20
ENDBRANCH  16  18
ENDBRANCH  15  16
ENDBRANCH   1  15
TORSDOF 5
ENDMDL
MODEL 6
REMARK VINA RESULT:      -6.0      4.564      6.246
REMARK  Name = 
REMARK  6 active torsions:
REMARK  status: ('A' for Active; 'I' for Inactive)
REMARK    1  A    between atoms: C_1  and  C_2
REMARK    2  A    between atoms: C_2  and  O_3
REMARK    3  A    between atoms: O_3  and  C_4
REMARK    4  A    between atoms: C_4  and  C_6
REMARK    5  A    between atoms: C_6  and  C_7
REMARK    6  A    between atoms: C_12  and  C_14
REMARK                            x       y       z     vdW  Elec       q    Type
REMARK                         _______ _______ _______ _____ _____    ______ ____
ROOT
ATOM      1  C   UNL     1       5.288   4.645  17.678  0.00  0.00    +0.000 A 
ATOM      2  N   UNL     1       5.031   4.039  18.821  0.00  0.00    +0.000 NA
ATOM      3  N   UNL     1       4.140   4.756  19.595  0.00  0.00    +0.000 NA
ATOM      4  C   UNL     1       3.751   5.865  19.005  0.00  0.00    +0.000 A 
ATOM      5  N   UNL     1       2.863   6.735  19.578  0.00  0.00    +0.000 N 
ATOM      6  C   UNL     1       2.314   7.854  19.003  0.00  0.00    +0.000 C 
ATOM      7  O   UNL     1       2.516   8.255  17.862  0.00  0.00    +0.000 OA
ATOM      8  S   UNL     1       4.486   6.150  17.495  0.00  0.00    +0.000 S 
ATOM      9  H   UNL     1       2.548   6.478  20.505  0.00  0.00    +0.000 HD
ENDROOT
BRANCH   6  10
ATOM     10  C   UNL     1       1.411   8.557  19.896  0.00  0.00    +0.000 A 
ATOM     11  C   UNL     1       1.137   8.368  21.239  0.00  0.00    +0.000 A 
ATOM     12  C   UNL     1       0.163   9.331  21.596  0.00  0.00    +0.000 A 
ATOM     13  C   UNL     1      -0.100  10.049  20.453  0.00  0.00    +0.000 A 
ATOM     14  O   UNL     1       0.651   9.592  19.417  0.00  0.00    +0.000 OA
ENDBRANCH   6  10
BRANCH   1  15
ATOM     15  C   UNL     1       6.204   4.134  16.629  0.00  0.00    +0.000 C 
BRANCH  15  16
ATOM     16  C   UNL     1       6.797   5.285  15.858  0.00  0.00    +0.000 C 
ATOM     17  O   UNL     1       7.494   6.184  16.306  0.00  0.00    +0.000 OA
BRANCH  16  18
ATOM     18  O   UNL     1       6.383   5.196  14.558  0.00  0.00    +0.000 OA
BRANCH  18  20
ATOM     19  C   UNL     1       6.400   3.944  12.528  0.00  0.00    +0.000 C 
ATOM     20  C   UNL     1       6.284   3.862  14.040  0.00  0.00    +0.000 C 
ENDBRANCH  18  20
ENDBRANCH  16  18
ENDBRANCH  15  16
ENDBRANCH   1  15
TORSDOF 5
ENDMDL
MODEL 7
REMARK VINA RESULT:      -6.0      5.276      7.354
REMARK  Name = 
REMARK  6 active torsions:
REMARK  status: ('A' for Active; 'I' for Inactive)
REMARK    1  A    between atoms: C_1  and  C_2
REMARK    2  A    between atoms: C_2  and  O_3
REMARK    3  A    between atoms: O_3  and  C_4
REMARK    4  A    between atoms: C_4  and  C_6
REMARK    5  A    between atoms: C_6  and  C_7
REMARK    6  A    between atoms: C_12  and  C_14
REMARK                            x       y       z     vdW  Elec       q    Type
REMARK                         _______ _______ _______ _____ _____    ______ ____
ROOT
ATOM      1  C   UNL     1       6.617   4.526  14.603  0.00  0.00    +0.000 A 
ATOM      2  N   UNL     1       7.531   4.570  15.553  0.00  0.00    +0.000 NA
ATOM      3  N   UNL     1       6.985   4.351  16.802  0.00  0.00    +0.000 NA
ATOM      4  C   UNL     1       5.688   4.139  16.747  0.00  0.00    +0.000 A 
ATOM      5  N   UNL     1       4.931   3.892  17.861  0.00  0.00    +0.000 N 
ATOM      6  C   UNL     1       3.601   3.553  17.899  0.00  0.00    +0.000 C 
ATOM      7  O   UNL     1       2.867   3.398  16.930  0.00  0.00    +0.000 OA
ATOM      8  S   UNL     1       5.026   4.254  15.183  0.00  0.00    +0.000 S 
ATOM      9  H   UNL     1       5.438   3.912  18.737  0.00  0.00    +0.000 HD
ENDROOT
BRANCH   6  10
ATOM     10  C   UNL     1       3.110   3.367  19.252  0.00  0.00    +0.000 A 
ATOM     11  C   UNL     1       3.604   2.611  20.299  0.00  0.00    +0.000 A 
ATOM     12  C   UNL     1       2.715   2.790  21.386  0.00  0.00    +0.000 A 
ATOM     13  C   UNL     1       1.732   3.642  20.939  0.00  0.00    +0.000 A 
ATOM     14  O   UNL     1       1.961   4.002  19.649  0.00  0.00    +0.000 OA
ENDBRANCH   6  10
BRANCH   1  15
ATOM     15  C   UNL     1       6.880   4.723  13.156  0.00  0.00    +0.000 C 
BRANCH  15  16
ATOM     16  C   UNL     1       6.261   3.602  12.362  0.00  0.00    +0.000 C 
ATOM     17  O   UNL     1       6.763   2.514  12.119  0.00  0.00    +0.000 OA
BRANCH  16  18
ATOM     18  O   UNL     1       5.044   4.018  11.900  0.00  0.00    +0.000 OA
BRANCH  18  20
ATOM     19  C   UNL     1       3.311   3.669  10.299  0.00  0.00    +0.000 C 
ATOM     20  C   UNL     1       4.240   2.996  11.293  0.00  0.00    +0.000 C 
ENDBRANCH  18  20
ENDBRANCH  16  18
ENDBRANCH  15  16
ENDBRANCH   1  15
TORSDOF 5
ENDMDL
MODEL 8
REMARK VINA RESULT:      -6.0      4.800      7.413
REMARK  Name = 
REMARK  6 active torsions:
REMARK  status: ('A' for Active; 'I' for Inactive)
REMARK    1  A    between atoms: C_1  and  C_2
REMARK    2  A    between atoms: C_2  and  O_3
REMARK    3  A    between atoms: O_3  and  C_4
REMARK    4  A    between atoms: C_4  and  C_6
REMARK    5  A    between atoms: C_6  and  C_7
REMARK    6  A    between atoms: C_12  and  C_14
REMARK                            x       y       z     vdW  Elec       q    Type
REMARK                         _______ _______ _______ _____ _____    ______ ____
ROOT
ATOM      1  C   UNL     1       6.488   5.325  15.799  0.00  0.00    +0.000 A 
ATOM      2  N   UNL     1       5.506   6.195  15.661  0.00  0.00    +0.000 NA
ATOM      3  N   UNL     1       4.474   5.950  16.546  0.00  0.00    +0.000 NA
ATOM      4  C   UNL     1       4.720   4.918  17.322  0.00  0.00    +0.000 A 
ATOM      5  N   UNL     1       3.845   4.489  18.283  0.00  0.00    +0.000 N 
ATOM      6  C   UNL     1       4.053   3.498  19.210  0.00  0.00    +0.000 C 
ATOM      7  O   UNL     1       5.077   2.836  19.343  0.00  0.00    +0.000 OA
ATOM      8  S   UNL     1       6.194   4.129  16.992  0.00  0.00    +0.000 S 
ATOM      9  H   UNL     1       2.977   5.008  18.335  0.00  0.00    +0.000 HD
ENDROOT
BRANCH   6  10
ATOM     10  C   UNL     1       2.909   3.294  20.078  0.00  0.00    +0.000 A 
ATOM     11  C   UNL     1       2.818   2.738  21.341  0.00  0.00    +0.000 A 
ATOM     12  C   UNL     1       1.452   2.783  21.710  0.00  0.00    +0.000 A 
ATOM     13  C   UNL     1       0.790   3.362  20.652  0.00  0.00    +0.000 A 
ATOM     14  O   UNL     1       1.661   3.679  19.659  0.00  0.00    +0.000 OA
ENDBRANCH   6  10
BRANCH   1  15
ATOM     15  C   UNL     1       7.737   5.315  14.998  0.00  0.00    +0.000 C 
BRANCH  15  16
ATOM     16  C   UNL     1       7.424   4.987  13.560  0.00  0.00    +0.000 C 
ATOM     17  O   UNL     1       7.832   5.577  12.571  0.00  0.00    +0.000 OA
BRANCH  16  18
ATOM     18  O   UNL     1       6.552   3.935  13.535  0.00  0.00    +0.000 OA
BRANCH  18  20
ATOM     19  C   UNL     1       4.879   3.421  11.916  0.00  0.00    +0.000 C 
ATOM     20  C   UNL     1       6.357   3.334  12.247  0.00  0.00    +0.000 C 
ENDBRANCH  18  20
ENDBRANCH  16  18
ENDBRANCH  15  16
ENDBRANCH   1  15
TORSDOF 5
ENDMDL
MODEL 9
REMARK VINA RESULT:      -6.0      0.954      1.221
REMARK  Name = 
REMARK  6 active torsions:
REMARK  status: ('A' for Active; 'I' for Inactive)
REMARK    1  A    between atoms: C_1  and  C_2
REMARK    2  A    between atoms: C_2  and  O_3
REMARK    3  A    between atoms: O_3  and  C_4
REMARK    4  A    between atoms: C_4  and  C_6
REMARK    5  A    between atoms: C_6  and  C_7
REMARK    6  A    between atoms: C_12  and  C_14
REMARK                            x       y       z     vdW  Elec       q    Type
REMARK                         _______ _______ _______ _____ _____    ______ ____
ROOT
ATOM      1  C   UNL     1       6.444   5.025  17.861  0.00  0.00    +0.000 A 
ATOM      2  N   UNL     1       7.308   4.635  18.778  0.00  0.00    +0.000 NA
ATOM      3  N   UNL     1       8.146   5.662  19.165  0.00  0.00    +0.000 NA
ATOM      4  C   UNL     1       7.876   6.785  18.537  0.00  0.00    +0.000 A 
ATOM      5  N   UNL     1       8.571   7.943  18.761  0.00  0.00    +0.000 N 
ATOM      6  C   UNL     1       8.300   9.185  18.242  0.00  0.00    +0.000 C 
ATOM      7  O   UNL     1       7.368   9.470  17.498  0.00  0.00    +0.000 OA
ATOM      8  S   UNL     1       6.628   6.662  17.385  0.00  0.00    +0.000 S 
ATOM      9  H   UNL     1       9.331   7.866  19.426  0.00  0.00    +0.000 HD
ENDROOT
BRANCH   6  10
ATOM     10  C   UNL     1       9.245  10.194  18.683  0.00  0.00    +0.000 A 
ATOM     11  C   UNL     1      10.077  11.032  17.962  0.00  0.00    +0.000 A 
ATOM     12  C   UNL     1      10.794  11.806  18.906  0.00  0.00    +0.000 A 
ATOM     13  C   UNL     1      10.360  11.395  20.145  0.00  0.00    +0.000 A 
ATOM     14  O   UNL     1       9.420  10.422  20.024  0.00  0.00    +0.000 OA
ENDBRANCH   6  10
BRANCH   1  15
ATOM     15  C   UNL     1       5.411   4.159  17.240  0.00  0.00    +0.000 C 
BRANCH  15  16
ATOM     16  C   UNL     1       4.528   3.564  18.306  0.00  0.00    +0.000 C 
ATOM     17  O   UNL     1       4.654   3.692  19.515  0.00  0.00    +0.000 OA
BRANCH  16  18
ATOM     18  O   UNL     1       3.572   2.797  17.700  0.00  0.00    +0.000 OA
BRANCH  18  20
ATOM     19  C   UNL     1       1.418   3.719  18.143  0.00  0.00    +0.000 C 
ATOM     20  C   UNL     1       2.498   3.529  17.093  0.00  0.00    +0.000 C 
ENDBRANCH  18  20
ENDBRANCH  16  18
ENDBRANCH  15  16
ENDBRANCH   1  15
TORSDOF 5
ENDMDL
