MODEL 1
REMARK VINA RESULT:      -8.5      0.000      0.000
REMARK  Name = 
REMARK  7 active torsions:
REMARK  status: ('A' for Active; 'I' for Inactive)
REMARK    1  A    between atoms: C_1  and  C_2
REMARK    2  A    between atoms: C_2  and  C_3
REMARK    3  A    between atoms: C_6  and  N_7
REMARK    4  A    between atoms: C_9  and  C_10
REMARK    5  A    between atoms: N_12  and  C_13
REMARK    6  A    between atoms: C_16  and  S_17
REMARK    7  A    between atoms: S_17  and  N_20
REMARK                            x       y       z     vdW  Elec       q    Type
REMARK                         _______ _______ _______ _____ _____    ______ ____
ROOT
ATOM      1  C   UNL     1       0.870  10.028  18.906  0.00  0.00    +0.000 C 
ATOM      2  O   UNL     1       0.400   9.674  17.826  0.00  0.00    +0.000 OA
ATOM      3  N   UNL     1       1.571   9.215  19.785  0.00  0.00    +0.000 N 
ATOM      4  H   UNL     1       1.726   9.554  20.730  0.00  0.00    +0.000 HD
ENDROOT
BRANCH   1   7
ATOM      5  N   UNL     1      -1.623  11.855  19.623  0.00  0.00    +0.000 N 
ATOM      6  C   UNL     1      -0.545  12.096  18.689  0.00  0.00    +0.000 C 
ATOM      7  C   UNL     1       0.659  11.472  19.350  0.00  0.00    +0.000 C 
ATOM      8  C   UNL     1       0.387  11.602  20.837  0.00  0.00    +0.000 C 
ATOM      9  C   UNL     1      -1.120  11.614  20.915  0.00  0.00    +0.000 C 
ATOM     10  O   UNL     1      -1.722  11.415  21.957  0.00  0.00    +0.000 OA
BRANCH   5  14
ATOM     11  C   UNL     1      -5.718  12.187  18.488  0.00  0.00    +0.000 A 
ATOM     12  C   UNL     1      -4.833  11.412  17.739  0.00  0.00    +0.000 A 
ATOM     13  C   UNL     1      -3.489  11.297  18.113  0.00  0.00    +0.000 A 
ATOM     14  C   UNL     1      -2.993  11.943  19.251  0.00  0.00    +0.000 A 
ATOM     15  C   UNL     1      -3.898  12.702  20.009  0.00  0.00    +0.000 A 
ATOM     16  C   UNL     1      -5.240  12.827  19.633  0.00  0.00    +0.000 A 
BRANCH  11  18
ATOM     17  C   UNL     1      -7.818  13.545  18.674  0.00  0.00    +0.000 C 
ATOM     18  C   UNL     1      -7.163  12.304  18.086  0.00  0.00    +0.000 C 
ENDBRANCH  11  18
ENDBRANCH   5  14
ENDBRANCH   1   7
BRANCH   3  19
ATOM     19  C   UNL     1       1.986   7.886  19.540  0.00  0.00    +0.000 A 
ATOM     20  C   UNL     1       1.830   6.856  20.476  0.00  0.00    +0.000 A 
ATOM     21  C   UNL     1       2.247   5.559  20.191  0.00  0.00    +0.000 A 
ATOM     22  C   UNL     1       2.808   5.262  18.950  0.00  0.00    +0.000 A 
ATOM     23  C   UNL     1       2.993   6.277  18.007  0.00  0.00    +0.000 A 
ATOM     24  C   UNL     1       2.565   7.582  18.300  0.00  0.00    +0.000 A 
BRANCH  22  25
ATOM     25  S   UNL     1       3.355   3.592  18.624  0.00  0.00    +0.000 S 
ATOM     26  O   UNL     1       3.582   2.958  19.908  0.00  0.00    +0.000 OA
ATOM     27  O   UNL     1       2.438   3.019  17.661  0.00  0.00    +0.000 OA
BRANCH  25  28
ATOM     28  N   UNL     1       4.876   3.804  17.850  0.00  0.00    +0.000 NA
ATOM     29  C   UNL     1       4.809   3.993  16.376  0.00  0.00    +0.000 C 
ATOM     30  C   UNL     1       6.196   4.021  15.745  0.00  0.00    +0.000 C 
ATOM     31  C   UNL     1       7.087   5.048  16.428  0.00  0.00    +0.000 C 
ATOM     32  C   UNL     1       7.191   4.713  17.907  0.00  0.00    +0.000 C 
ATOM     33  C   UNL     1       5.816   4.701  18.565  0.00  0.00    +0.000 C 
ENDBRANCH  25  28
ENDBRANCH  22  25
ENDBRANCH   3  19
TORSDOF 6
ENDMDL
MODEL 2
REMARK VINA RESULT:      -8.5      2.975      3.594
REMARK  Name = 
REMARK  7 active torsions:
REMARK  status: ('A' for Active; 'I' for Inactive)
REMARK    1  A    between atoms: C_1  and  C_2
REMARK    2  A    between atoms: C_2  and  C_3
REMARK    3  A    between atoms: C_6  and  N_7
REMARK    4  A    between atoms: C_9  and  C_10
REMARK    5  A    between atoms: N_12  and  C_13
REMARK    6  A    between atoms: C_16  and  S_17
REMARK    7  A    between atoms: S_17  and  N_20
REMARK                            x       y       z     vdW  Elec       q    Type
REMARK                         _______ _______ _______ _____ _____    ______ ____
ROOT
ATOM      1  C   UNL     1       1.828  12.368  18.544  0.00  0.00    +0.000 C 
ATOM      2  O   UNL     1       2.946  12.283  18.039  0.00  0.00    +0.000 OA
ATOM      3  N   UNL     1       1.036  11.297  18.932  0.00  0.00    +0.000 N 
ATOM      4  H   UNL     1       0.058  11.476  19.139  0.00  0.00    +0.000 HD
ENDROOT
BRANCH   1   7
ATOM      5  N   UNL     1      -0.023  13.753  20.717  0.00  0.00    +0.000 N 
ATOM      6  C   UNL     1      -0.182  13.689  19.280  0.00  0.00    +0.000 C 
ATOM      7  C   UNL     1       1.231  13.755  18.753  0.00  0.00    +0.000 C 
ATOM      8  C   UNL     1       1.983  14.577  19.783  0.00  0.00    +0.000 C 
ATOM      9  C   UNL     1       1.217  14.321  21.058  0.00  0.00    +0.000 C 
ATOM     10  O   UNL     1       1.679  14.572  22.160  0.00  0.00    +0.000 OA
BRANCH   5  14
ATOM     11  C   UNL     1      -3.054  12.569  23.469  0.00  0.00    +0.000 A 
ATOM     12  C   UNL     1      -3.095  13.825  22.864  0.00  0.00    +0.000 A 
ATOM     13  C   UNL     1      -2.103  14.214  21.956  0.00  0.00    +0.000 A 
ATOM     14  C   UNL     1      -1.050  13.357  21.617  0.00  0.00    +0.000 A 
ATOM     15  C   UNL     1      -1.033  12.087  22.216  0.00  0.00    +0.000 A 
ATOM     16  C   UNL     1      -2.018  11.698  23.132  0.00  0.00    +0.000 A 
BRANCH  11  18
ATOM     17  C   UNL     1      -5.472  12.773  24.103  0.00  0.00    +0.000 C 
ATOM     18  C   UNL     1      -4.126  12.153  24.442  0.00  0.00    +0.000 C 
ENDBRANCH  11  18
ENDBRANCH   5  14
ENDBRANCH   1   7
BRANCH   3  19
ATOM     19  C   UNL     1       1.421   9.937  18.944  0.00  0.00    +0.000 A 
ATOM     20  C   UNL     1       1.879   9.267  17.803  0.00  0.00    +0.000 A 
ATOM     21  C   UNL     1       2.255   7.927  17.860  0.00  0.00    +0.000 A 
ATOM     22  C   UNL     1       2.202   7.238  19.071  0.00  0.00    +0.000 A 
ATOM     23  C   UNL     1       1.729   7.879  20.218  0.00  0.00    +0.000 A 
ATOM     24  C   UNL     1       1.357   9.232  20.154  0.00  0.00    +0.000 A 
BRANCH  22  25
ATOM     25  S   UNL     1       2.669   5.513  19.106  0.00  0.00    +0.000 S 
ATOM     26  O   UNL     1       2.837   5.145  20.498  0.00  0.00    +0.000 OA
ATOM     27  O   UNL     1       1.743   4.799  18.252  0.00  0.00    +0.000 OA
BRANCH  25  28
ATOM     28  N   UNL     1       4.215   5.492  18.352  0.00  0.00    +0.000 NA
ATOM     29  C   UNL     1       5.361   5.295  19.279  0.00  0.00    +0.000 C 
ATOM     30  C   UNL     1       6.699   5.440  18.563  0.00  0.00    +0.000 C 
ATOM     31  C   UNL     1       6.768   4.532  17.343  0.00  0.00    +0.000 C 
ATOM     32  C   UNL     1       5.628   4.878  16.399  0.00  0.00    +0.000 C 
ATOM     33  C   UNL     1       4.277   4.719  17.088  0.00  0.00    +0.000 C 
ENDBRANCH  25  28
ENDBRANCH  22  25
ENDBRANCH   3  19
TORSDOF 6
ENDMDL
MODEL 3
REMARK VINA RESULT:      -8.5      2.067      2.618
REMARK  Name = 
REMARK  7 active torsions:
REMARK  status: ('A' for Active; 'I' for Inactive)
REMARK    1  A    between atoms: C_1  and  C_2
REMARK    2  A    between atoms: C_2  and  C_3
REMARK    3  A    between atoms: C_6  and  N_7
REMARK    4  A    between atoms: C_9  and  C_10
REMARK    5  A    between atoms: N_12  and  C_13
REMARK    6  A    between atoms: C_16  and  S_17
REMARK    7  A    between atoms: S_17  and  N_20
REMARK                            x       y       z     vdW  Elec       q    Type
REMARK                         _______ _______ _______ _____ _____    ______ ____
ROOT
ATOM      1  C   UNL     1       0.218  10.592  18.502  0.00  0.00    +0.000 C 
ATOM      2  O   UNL     1      -0.696   9.902  18.056  0.00  0.00    +0.000 OA
ATOM      3  N   UNL     1       1.413  10.112  19.019  0.00  0.00    +0.000 N 
ATOM      4  H   UNL     1       1.998  10.752  19.546  0.00  0.00    +0.000 HD
ENDROOT
BRANCH   1   7
ATOM      5  N   UNL     1      -1.032  12.719  20.497  0.00  0.00    +0.000 N 
ATOM      6  C   UNL     1      -1.298  12.511  19.090  0.00  0.00    +0.000 C 
ATOM      7  C   UNL     1       0.040  12.107  18.521  0.00  0.00    +0.000 C 
ATOM      8  C   UNL     1       1.055  12.814  19.399  0.00  0.00    +0.000 C 
ATOM      9  C   UNL     1       0.336  12.956  20.718  0.00  0.00    +0.000 C 
ATOM     10  O   UNL     1       0.922  13.212  21.757  0.00  0.00    +0.000 OA
BRANCH   5  14
ATOM     11  C   UNL     1      -4.169  12.775  23.382  0.00  0.00    +0.000 A 
ATOM     12  C   UNL     1      -2.994  12.064  23.624  0.00  0.00    +0.000 A 
ATOM     13  C   UNL     1      -1.961  12.048  22.680  0.00  0.00    +0.000 A 
ATOM     14  C   UNL     1      -2.066  12.751  21.474  0.00  0.00    +0.000 A 
ATOM     15  C   UNL     1      -3.244  13.481  21.252  0.00  0.00    +0.000 A 
ATOM     16  C   UNL     1      -4.283  13.491  22.190  0.00  0.00    +0.000 A 
BRANCH  11  18
ATOM     17  C   UNL     1      -6.650  12.797  23.749  0.00  0.00    +0.000 C 
ATOM     18  C   UNL     1      -5.277  12.793  24.402  0.00  0.00    +0.000 C 
ENDBRANCH  11  18
ENDBRANCH   5  14
ENDBRANCH   1   7
BRANCH   3  19
ATOM     19  C   UNL     1       1.848   8.767  18.999  0.00  0.00    +0.000 A 
ATOM     20  C   UNL     1       1.712   7.908  20.097  0.00  0.00    +0.000 A 
ATOM     21  C   UNL     1       2.148   6.587  20.033  0.00  0.00    +0.000 A 
ATOM     22  C   UNL     1       2.708   6.093  18.856  0.00  0.00    +0.000 A 
ATOM     23  C   UNL     1       2.873   6.936  17.754  0.00  0.00    +0.000 A 
ATOM     24  C   UNL     1       2.426   8.266  17.824  0.00  0.00    +0.000 A 
BRANCH  22  25
ATOM     25  S   UNL     1       3.280   4.400  18.814  0.00  0.00    +0.000 S 
ATOM     26  O   UNL     1       3.151   3.872  20.158  0.00  0.00    +0.000 OA
ATOM     27  O   UNL     1       2.629   3.754  17.693  0.00  0.00    +0.000 OA
BRANCH  25  28
ATOM     28  N   UNL     1       4.954   4.543  18.448  0.00  0.00    +0.000 NA
ATOM     29  C   UNL     1       5.276   4.595  16.996  0.00  0.00    +0.000 C 
ATOM     30  C   UNL     1       6.779   4.568  16.749  0.00  0.00    +0.000 C 
ATOM     31  C   UNL     1       7.485   5.655  17.546  0.00  0.00    +0.000 C 
ATOM     32  C   UNL     1       7.194   5.458  19.025  0.00  0.00    +0.000 C 
ATOM     33  C   UNL     1       5.695   5.504  19.300  0.00  0.00    +0.000 C 
ENDBRANCH  25  28
ENDBRANCH  22  25
ENDBRANCH   3  19
TORSDOF 6
ENDMDL
MODEL 4
REMARK VINA RESULT:      -8.5      2.606     10.626
REMARK  Name = 
REMARK  7 active torsions:
REMARK  status: ('A' for Active; 'I' for Inactive)
REMARK    1  A    between atoms: C_1  and  C_2
REMARK    2  A    between atoms: C_2  and  C_3
REMARK    3  A    between atoms: C_6  and  N_7
REMARK    4  A    between atoms: C_9  and  C_10
REMARK    5  A    between atoms: N_12  and  C_13
REMARK    6  A    between atoms: C_16  and  S_17
REMARK    7  A    between atoms: S_17  and  N_20
REMARK                            x       y       z     vdW  Elec       q    Type
REMARK                         _______ _______ _______ _____ _____    ______ ____
ROOT
ATOM      1  C   UNL     1       2.728   5.678  18.800  0.00  0.00    +0.000 C 
ATOM      2  O   UNL     1       1.819   5.439  18.008  0.00  0.00    +0.000 OA
ATOM      3  N   UNL     1       2.907   6.871  19.485  0.00  0.00    +0.000 N 
ATOM      4  H   UNL     1       3.798   7.031  19.944  0.00  0.00    +0.000 HD
ENDROOT
BRANCH   1   7
ATOM      5  N   UNL     1       5.279   4.571  17.271  0.00  0.00    +0.000 N 
ATOM      6  C   UNL     1       4.133   3.854  17.787  0.00  0.00    +0.000 C 
ATOM      7  C   UNL     1       3.774   4.597  19.051  0.00  0.00    +0.000 C 
ATOM      8  C   UNL     1       5.094   5.153  19.552  0.00  0.00    +0.000 C 
ATOM      9  C   UNL     1       5.908   5.307  18.291  0.00  0.00    +0.000 C 
ATOM     10  O   UNL     1       6.917   5.992  18.244  0.00  0.00    +0.000 OA
BRANCH   5  14
ATOM     11  C   UNL     1       6.625   4.146  13.250  0.00  0.00    +0.000 A 
ATOM     12  C   UNL     1       5.308   3.842  13.595  0.00  0.00    +0.000 A 
ATOM     13  C   UNL     1       4.863   3.986  14.913  0.00  0.00    +0.000 A 
ATOM     14  C   UNL     1       5.714   4.448  15.923  0.00  0.00    +0.000 A 
ATOM     15  C   UNL     1       7.031   4.773  15.559  0.00  0.00    +0.000 A 
ATOM     16  C   UNL     1       7.482   4.621  14.243  0.00  0.00    +0.000 A 
BRANCH  11  18
ATOM     17  C   UNL     1       7.249   2.535  11.432  0.00  0.00    +0.000 C 
ATOM     18  C   UNL     1       7.099   3.995  11.829  0.00  0.00    +0.000 C 
ENDBRANCH  11  18
ENDBRANCH   5  14
ENDBRANCH   1   7
BRANCH   3  19
ATOM     19  C   UNL     1       2.010   7.964  19.503  0.00  0.00    +0.000 A 
ATOM     20  C   UNL     1       1.242   8.298  20.626  0.00  0.00    +0.000 A 
ATOM     21  C   UNL     1       0.375   9.388  20.603  0.00  0.00    +0.000 A 
ATOM     22  C   UNL     1       0.279  10.180  19.460  0.00  0.00    +0.000 A 
ATOM     23  C   UNL     1       1.020   9.855  18.321  0.00  0.00    +0.000 A 
ATOM     24  C   UNL     1       1.896   8.757  18.353  0.00  0.00    +0.000 A 
BRANCH  22  25
ATOM     25  S   UNL     1      -0.860  11.558  19.455  0.00  0.00    +0.000 S 
ATOM     26  O   UNL     1      -1.310  11.745  20.820  0.00  0.00    +0.000 OA
ATOM     27  O   UNL     1      -0.228  12.636  18.723  0.00  0.00    +0.000 OA
BRANCH  25  28
ATOM     28  N   UNL     1      -2.188  10.987  18.523  0.00  0.00    +0.000 NA
ATOM     29  C   UNL     1      -3.476  11.688  18.772  0.00  0.00    +0.000 C 
ATOM     30  C   UNL     1      -4.632  11.031  18.027  0.00  0.00    +0.000 C 
ATOM     31  C   UNL     1      -4.318  10.890  16.545  0.00  0.00    +0.000 C 
ATOM     32  C   UNL     1      -3.051  10.065  16.379  0.00  0.00    +0.000 C 
ATOM     33  C   UNL     1      -1.875  10.716  17.099  0.00  0.00    +0.000 C 
ENDBRANCH  25  28
ENDBRANCH  22  25
ENDBRANCH   3  19
TORSDOF 6
ENDMDL
MODEL 5
REMARK VINA RESULT:      -8.5      2.614     10.679
REMARK  Name = 
REMARK  7 active torsions:
REMARK  status: ('A' for Active; 'I' for Inactive)
REMARK    1  A    between atoms: C_1  and  C_2
REMARK    2  A    between atoms: C_2  and  C_3
REMARK    3  A    between atoms: C_6  and  N_7
REMARK    4  A    between atoms: C_9  and  C_10
REMARK    5  A    between atoms: N_12  and  C_13
REMARK    6  A    between atoms: C_16  and  S_17
REMARK    7  A    between atoms: S_17  and  N_20
REMARK                            x       y       z     vdW  Elec       q    Type
REMARK                         _______ _______ _______ _____ _____    ______ ____
ROOT
ATOM      1  C   UNL     1       2.794   5.709  18.763  0.00  0.00    +0.000 C 
ATOM      2  O   UNL     1       1.907   5.474  17.944  0.00  0.00    +0.000 OA
ATOM      3  N   UNL     1       2.951   6.896  19.463  0.00  0.00    +0.000 N 
ATOM      4  H   UNL     1       3.829   7.053  19.947  0.00  0.00    +0.000 HD
ENDROOT
BRANCH   1   7
ATOM      5  N   UNL     1       5.339   4.564  17.253  0.00  0.00    +0.000 N 
ATOM      6  C   UNL     1       4.190   3.860  17.782  0.00  0.00    +0.000 C 
ATOM      7  C   UNL     1       3.836   4.627  19.032  0.00  0.00    +0.000 C 
ATOM      8  C   UNL     1       5.158   5.186  19.523  0.00  0.00    +0.000 C 
ATOM      9  C   UNL     1       5.972   5.315  18.259  0.00  0.00    +0.000 C 
ATOM     10  O   UNL     1       6.984   5.994  18.199  0.00  0.00    +0.000 OA
BRANCH   5  14
ATOM     11  C   UNL     1       6.598   4.170  13.200  0.00  0.00    +0.000 A 
ATOM     12  C   UNL     1       7.472   4.659  14.172  0.00  0.00    +0.000 A 
ATOM     13  C   UNL     1       7.061   4.784  15.504  0.00  0.00    +0.000 A 
ATOM     14  C   UNL     1       5.773   4.414  15.906  0.00  0.00    +0.000 A 
ATOM     15  C   UNL     1       4.911   3.903  14.924  0.00  0.00    +0.000 A 
ATOM     16  C   UNL     1       5.315   3.785  13.588  0.00  0.00    +0.000 A 
BRANCH  11  18
ATOM     17  C   UNL     1       7.241   2.577  11.372  0.00  0.00    +0.000 C 
ATOM     18  C   UNL     1       7.045   4.032  11.769  0.00  0.00    +0.000 C 
ENDBRANCH  11  18
ENDBRANCH   5  14
ENDBRANCH   1   7
BRANCH   3  19
ATOM     19  C   UNL     1       2.052   7.986  19.466  0.00  0.00    +0.000 A 
ATOM     20  C   UNL     1       1.895   8.846  18.371  0.00  0.00    +0.000 A 
ATOM     21  C   UNL     1       0.993   9.905  18.414  0.00  0.00    +0.000 A 
ATOM     22  C   UNL     1       0.208  10.109  19.548  0.00  0.00    +0.000 A 
ATOM     23  C   UNL     1       0.361   9.277  20.661  0.00  0.00    +0.000 A 
ATOM     24  C   UNL     1       1.270   8.208  20.609  0.00  0.00    +0.000 A 
BRANCH  22  25
ATOM     25  S   UNL     1      -0.924  11.491  19.581  0.00  0.00    +0.000 S 
ATOM     26  O   UNL     1      -1.389  11.631  20.947  0.00  0.00    +0.000 OA
ATOM     27  O   UNL     1      -0.279  12.593  18.896  0.00  0.00    +0.000 OA
BRANCH  25  28
ATOM     28  N   UNL     1      -2.244  10.961  18.613  0.00  0.00    +0.000 NA
ATOM     29  C   UNL     1      -3.495  11.749  18.775  0.00  0.00    +0.000 C 
ATOM     30  C   UNL     1      -4.656  11.131  18.005  0.00  0.00    +0.000 C 
ATOM     31  C   UNL     1      -4.288  10.907  16.546  0.00  0.00    +0.000 C 
ATOM     32  C   UNL     1      -3.069  10.002  16.471  0.00  0.00    +0.000 C 
ATOM     33  C   UNL     1      -1.887  10.612  17.217  0.00  0.00    +0.000 C 
ENDBRANCH  25  28
ENDBRANCH  22  25
ENDBRANCH   3  19
TORSDOF 6
ENDMDL
MODEL 6
REMARK VINA RESULT:      -8.4      0.524      1.006
REMARK  Name = 
REMARK  7 active torsions:
REMARK  status: ('A' for Active; 'I' for Inactive)
REMARK    1  A    between atoms: C_1  and  C_2
REMARK    2  A    between atoms: C_2  and  C_3
REMARK    3  A    between atoms: C_6  and  N_7
REMARK    4  A    between atoms: C_9  and  C_10
REMARK    5  A    between atoms: N_12  and  C_13
REMARK    6  A    between atoms: C_16  and  S_17
REMARK    7  A    between atoms: S_17  and  N_20
REMARK                            x       y       z     vdW  Elec       q    Type
REMARK                         _______ _______ _______ _____ _____    ______ ____
ROOT
ATOM      1  C   UNL     1       0.572  10.264  18.995  0.00  0.00    +0.000 C 
ATOM      2  O   UNL     1      -0.158   9.888  18.080  0.00  0.00    +0.000 OA
ATOM      3  N   UNL     1       1.502   9.477  19.659  0.00  0.00    +0.000 N 
ATOM      4  H   UNL     1       1.893   9.828  20.528  0.00  0.00    +0.000 HD
ENDROOT
BRANCH   1   7
ATOM      5  N   UNL     1      -1.788  12.156  19.952  0.00  0.00    +0.000 N 
ATOM      6  C   UNL     1      -0.787  12.379  18.930  0.00  0.00    +0.000 C 
ATOM      7  C   UNL     1       0.448  11.706  19.475  0.00  0.00    +0.000 C 
ATOM      8  C   UNL     1       0.310  11.821  20.982  0.00  0.00    +0.000 C 
ATOM      9  C   UNL     1      -1.184  11.878  21.191  0.00  0.00    +0.000 C 
ATOM     10  O   UNL     1      -1.699  11.682  22.279  0.00  0.00    +0.000 OA
BRANCH   5  14
ATOM     11  C   UNL     1      -5.953  12.637  19.184  0.00  0.00    +0.000 A 
ATOM     12  C   UNL     1      -5.157  11.868  18.334  0.00  0.00    +0.000 A 
ATOM     13  C   UNL     1      -3.791  11.704  18.588  0.00  0.00    +0.000 A 
ATOM     14  C   UNL     1      -3.181  12.294  19.701  0.00  0.00    +0.000 A 
ATOM     15  C   UNL     1      -3.996  13.048  20.561  0.00  0.00    +0.000 A 
ATOM     16  C   UNL     1      -5.362  13.221  20.305  0.00  0.00    +0.000 A 
BRANCH  11  18
ATOM     17  C   UNL     1      -7.677  13.596  17.635  0.00  0.00    +0.000 C 
ATOM     18  C   UNL     1      -7.423  12.807  18.910  0.00  0.00    +0.000 C 
ENDBRANCH  11  18
ENDBRANCH   5  14
ENDBRANCH   1   7
BRANCH   3  19
ATOM     19  C   UNL     1       1.873   8.157  19.316  0.00  0.00    +0.000 A 
ATOM     20  C   UNL     1       2.300   7.797  18.031  0.00  0.00    +0.000 A 
ATOM     21  C   UNL     1       2.663   6.485  17.737  0.00  0.00    +0.000 A 
ATOM     22  C   UNL     1       2.629   5.511  18.734  0.00  0.00    +0.000 A 
ATOM     23  C   UNL     1       2.187   5.841  20.017  0.00  0.00    +0.000 A 
ATOM     24  C   UNL     1       1.827   7.167  20.308  0.00  0.00    +0.000 A 
BRANCH  22  25
ATOM     25  S   UNL     1       3.078   3.832  18.319  0.00  0.00    +0.000 S 
ATOM     26  O   UNL     1       3.094   3.076  19.555  0.00  0.00    +0.000 OA
ATOM     27  O   UNL     1       2.244   3.425  17.206  0.00  0.00    +0.000 OA
BRANCH  25  28
ATOM     28  N   UNL     1       4.695   3.970  17.750  0.00  0.00    +0.000 NA
ATOM     29  C   UNL     1       4.829   4.146  16.279  0.00  0.00    +0.000 C 
ATOM     30  C   UNL     1       6.287   4.109  15.835  0.00  0.00    +0.000 C 
ATOM     31  C   UNL     1       7.125   5.104  16.623  0.00  0.00    +0.000 C 
ATOM     32  C   UNL     1       7.020   4.781  18.105  0.00  0.00    +0.000 C 
ATOM     33  C   UNL     1       5.572   4.835  18.577  0.00  0.00    +0.000 C 
ENDBRANCH  25  28
ENDBRANCH  22  25
ENDBRANCH   3  19
TORSDOF 6
ENDMDL
MODEL 7
REMARK VINA RESULT:      -8.4      2.466     10.483
REMARK  Name = 
REMARK  7 active torsions:
REMARK  status: ('A' for Active; 'I' for Inactive)
REMARK    1  A    between atoms: C_1  and  C_2
REMARK    2  A    between atoms: C_2  and  C_3
REMARK    3  A    between atoms: C_6  and  N_7
REMARK    4  A    between atoms: C_9  and  C_10
REMARK    5  A    between atoms: N_12  and  C_13
REMARK    6  A    between atoms: C_16  and  S_17
REMARK    7  A    between atoms: S_17  and  N_20
REMARK                            x       y       z     vdW  Elec       q    Type
REMARK                         _______ _______ _______ _____ _____    ______ ____
ROOT
ATOM      1  C   UNL     1       2.372   4.961  18.941  0.00  0.00    +0.000 C 
ATOM      2  O   UNL     1       1.168   4.771  18.776  0.00  0.00    +0.000 OA
ATOM      3  N   UNL     1       2.987   6.200  19.041  0.00  0.00    +0.000 N 
ATOM      4  H   UNL     1       3.998   6.240  18.964  0.00  0.00    +0.000 HD
ENDROOT
BRANCH   1   7
ATOM      5  N   UNL     1       5.120   4.085  17.620  0.00  0.00    +0.000 N 
ATOM      6  C   UNL     1       3.860   3.376  17.676  0.00  0.00    +0.000 C 
ATOM      7  C   UNL     1       3.291   3.746  19.023  0.00  0.00    +0.000 C 
ATOM      8  C   UNL     1       4.509   3.981  19.898  0.00  0.00    +0.000 C 
ATOM      9  C   UNL     1       5.567   4.413  18.912  0.00  0.00    +0.000 C 
ATOM     10  O   UNL     1       6.597   4.967  19.260  0.00  0.00    +0.000 OA
BRANCH   5  14
ATOM     11  C   UNL     1       7.137   4.822  13.938  0.00  0.00    +0.000 A 
ATOM     12  C   UNL     1       7.542   5.460  15.111  0.00  0.00    +0.000 A 
ATOM     13  C   UNL     1       6.884   5.215  16.321  0.00  0.00    +0.000 A 
ATOM     14  C   UNL     1       5.812   4.319  16.399  0.00  0.00    +0.000 A 
ATOM     15  C   UNL     1       5.428   3.667  15.217  0.00  0.00    +0.000 A 
ATOM     16  C   UNL     1       6.078   3.917  14.002  0.00  0.00    +0.000 A 
BRANCH  11  18
ATOM     17  C   UNL     1       7.262   4.274  11.494  0.00  0.00    +0.000 C 
ATOM     18  C   UNL     1       7.850   5.084  12.638  0.00  0.00    +0.000 C 
ENDBRANCH  11  18
ENDBRANCH   5  14
ENDBRANCH   1   7
BRANCH   3  19
ATOM     19  C   UNL     1       2.333   7.451  19.111  0.00  0.00    +0.000 A 
ATOM     20  C   UNL     1       2.285   8.344  18.032  0.00  0.00    +0.000 A 
ATOM     21  C   UNL     1       1.624   9.565  18.141  0.00  0.00    +0.000 A 
ATOM     22  C   UNL     1       0.974   9.905  19.327  0.00  0.00    +0.000 A 
ATOM     23  C   UNL     1       1.025   9.039  20.423  0.00  0.00    +0.000 A 
ATOM     24  C   UNL     1       1.690   7.808  20.304  0.00  0.00    +0.000 A 
BRANCH  22  25
ATOM     25  S   UNL     1       0.154  11.488  19.442  0.00  0.00    +0.000 S 
ATOM     26  O   UNL     1      -0.245  11.663  20.824  0.00  0.00    +0.000 OA
ATOM     27  O   UNL     1       1.001  12.461  18.781  0.00  0.00    +0.000 OA
BRANCH  25  28
ATOM     28  N   UNL     1      -1.265  11.284  18.492  0.00  0.00    +0.000 NA
ATOM     29  C   UNL     1      -1.386   9.961  17.823  0.00  0.00    +0.000 C 
ATOM     30  C   UNL     1      -2.584   9.910  16.883  0.00  0.00    +0.000 C 
ATOM     31  C   UNL     1      -3.861  10.324  17.600  0.00  0.00    +0.000 C 
ATOM     32  C   UNL     1      -3.689  11.729  18.155  0.00  0.00    +0.000 C 
ATOM     33  C   UNL     1      -2.508  11.799  19.116  0.00  0.00    +0.000 C 
ENDBRANCH  25  28
ENDBRANCH  22  25
ENDBRANCH   3  19
TORSDOF 6
ENDMDL
MODEL 8
REMARK VINA RESULT:      -8.3      2.773      4.498
REMARK  Name = 
REMARK  7 active torsions:
REMARK  status: ('A' for Active; 'I' for Inactive)
REMARK    1  A    between atoms: C_1  and  C_2
REMARK    2  A    between atoms: C_2  and  C_3
REMARK    3  A    between atoms: C_6  and  N_7
REMARK    4  A    between atoms: C_9  and  C_10
REMARK    5  A    between atoms: N_12  and  C_13
REMARK    6  A    between atoms: C_16  and  S_17
REMARK    7  A    between atoms: S_17  and  N_20
REMARK                            x       y       z     vdW  Elec       q    Type
REMARK                         _______ _______ _______ _____ _____    ______ ____
ROOT
ATOM      1  C   UNL     1       1.006   9.481  21.406  0.00  0.00    +0.000 C 
ATOM      2  O   UNL     1       1.819   9.291  22.309  0.00  0.00    +0.000 OA
ATOM      3  N   UNL     1       0.957   8.787  20.206  0.00  0.00    +0.000 N 
ATOM      4  H   UNL     1       0.385   9.165  19.457  0.00  0.00    +0.000 HD
ENDROOT
BRANCH   1   7
ATOM      5  N   UNL     1       0.390  12.285  20.056  0.00  0.00    +0.000 N 
ATOM      6  C   UNL     1       0.570  11.957  21.454  0.00  0.00    +0.000 C 
ATOM      7  C   UNL     1      -0.034  10.581  21.588  0.00  0.00    +0.000 C 
ATOM      8  C   UNL     1      -1.129  10.543  20.538  0.00  0.00    +0.000 C 
ATOM      9  C   UNL     1      -0.640  11.513  19.490  0.00  0.00    +0.000 C 
ATOM     10  O   UNL     1      -1.099  11.541  18.360  0.00  0.00    +0.000 OA
BRANCH   5  14
ATOM     11  C   UNL     1       2.614  15.404  18.188  0.00  0.00    +0.000 A 
ATOM     12  C   UNL     1       3.095  14.095  18.196  0.00  0.00    +0.000 A 
ATOM     13  C   UNL     1       2.364  13.069  18.805  0.00  0.00    +0.000 A 
ATOM     14  C   UNL     1       1.128  13.317  19.412  0.00  0.00    +0.000 A 
ATOM     15  C   UNL     1       0.643  14.634  19.377  0.00  0.00    +0.000 A 
ATOM     16  C   UNL     1       1.377  15.665  18.777  0.00  0.00    +0.000 A 
BRANCH  11  18
ATOM     17  C   UNL     1       2.507  17.446  16.734  0.00  0.00    +0.000 C 
ATOM     18  C   UNL     1       3.401  16.505  17.528  0.00  0.00    +0.000 C 
ENDBRANCH  11  18
ENDBRANCH   5  14
ENDBRANCH   1   7
BRANCH   3  19
ATOM     19  C   UNL     1       1.736   7.658  19.864  0.00  0.00    +0.000 A 
ATOM     20  C   UNL     1       1.756   6.487  20.634  0.00  0.00    +0.000 A 
ATOM     21  C   UNL     1       2.533   5.395  20.258  0.00  0.00    +0.000 A 
ATOM     22  C   UNL     1       3.287   5.444  19.086  0.00  0.00    +0.000 A 
ATOM     23  C   UNL     1       3.300   6.608  18.313  0.00  0.00    +0.000 A 
ATOM     24  C   UNL     1       2.510   7.704  18.696  0.00  0.00    +0.000 A 
BRANCH  22  25
ATOM     25  S   UNL     1       4.292   4.034  18.643  0.00  0.00    +0.000 S 
ATOM     26  O   UNL     1       5.244   3.833  19.718  0.00  0.00    +0.000 OA
ATOM     27  O   UNL     1       3.392   2.975  18.236  0.00  0.00    +0.000 OA
BRANCH  25  28
ATOM     28  N   UNL     1       5.153   4.566  17.253  0.00  0.00    +0.000 NA
ATOM     29  C   UNL     1       6.595   4.849  17.479  0.00  0.00    +0.000 C 
ATOM     30  C   UNL     1       7.253   5.457  16.246  0.00  0.00    +0.000 C 
ATOM     31  C   UNL     1       7.010   4.596  15.015  0.00  0.00    +0.000 C 
ATOM     32  C   UNL     1       5.513   4.452  14.794  0.00  0.00    +0.000 C 
ATOM     33  C   UNL     1       4.836   3.825  16.007  0.00  0.00    +0.000 C 
ENDBRANCH  25  28
ENDBRANCH  22  25
ENDBRANCH   3  19
TORSDOF 6
ENDMDL
MODEL 9
REMARK VINA RESULT:      -8.3      0.943      1.594
REMARK  Name = 
REMARK  7 active torsions:
REMARK  status: ('A' for Active; 'I' for Inactive)
REMARK    1  A    between atoms: C_1  and  C_2
REMARK    2  A    between atoms: C_2  and  C_3
REMARK    3  A    between atoms: C_6  and  N_7
REMARK    4  A    between atoms: C_9  and  C_10
REMARK    5  A    between atoms: N_12  and  C_13
REMARK    6  A    between atoms: C_16  and  S_17
REMARK    7  A    between atoms: S_17  and  N_20
REMARK                            x       y       z     vdW  Elec       q    Type
REMARK                         _______ _______ _______ _____ _____    ______ ____
ROOT
ATOM      1  C   UNL     1       1.269  11.286  19.354  0.00  0.00    +0.000 C 
ATOM      2  O   UNL     1       1.878  11.398  18.291  0.00  0.00    +0.000 OA
ATOM      3  N   UNL     1       1.016  10.094  20.016  0.00  0.00    +0.000 N 
ATOM      4  H   UNL     1       0.331  10.099  20.765  0.00  0.00    +0.000 HD
ENDROOT
BRANCH   1   7
ATOM      5  N   UNL     1      -1.607  12.398  20.100  0.00  0.00    +0.000 N 
ATOM      6  C   UNL     1      -0.548  13.025  19.338  0.00  0.00    +0.000 C 
ATOM      7  C   UNL     1       0.717  12.548  20.008  0.00  0.00    +0.000 C 
ATOM      8  C   UNL     1       0.324  12.342  21.459  0.00  0.00    +0.000 C 
ATOM      9  C   UNL     1      -1.151  12.030  21.379  0.00  0.00    +0.000 C 
ATOM     10  O   UNL     1      -1.762  11.522  22.304  0.00  0.00    +0.000 OA
BRANCH   5  14
ATOM     11  C   UNL     1      -5.585  12.090  18.603  0.00  0.00    +0.000 A 
ATOM     12  C   UNL     1      -4.520  11.509  17.916  0.00  0.00    +0.000 A 
ATOM     13  C   UNL     1      -3.214  11.605  18.409  0.00  0.00    +0.000 A 
ATOM     14  C   UNL     1      -2.934  12.273  19.606  0.00  0.00    +0.000 A 
ATOM     15  C   UNL     1      -4.018  12.834  20.300  0.00  0.00    +0.000 A 
ATOM     16  C   UNL     1      -5.324  12.749  19.805  0.00  0.00    +0.000 A 
BRANCH  11  18
ATOM     17  C   UNL     1      -7.332  13.125  17.132  0.00  0.00    +0.000 C 
ATOM     18  C   UNL     1      -6.990  11.981  18.073  0.00  0.00    +0.000 C 
ENDBRANCH  11  18
ENDBRANCH   5  14
ENDBRANCH   1   7
BRANCH   3  19
ATOM     19  C   UNL     1       1.524   8.822  19.666  0.00  0.00    +0.000 A 
ATOM     20  C   UNL     1       2.054   8.537  18.400  0.00  0.00    +0.000 A 
ATOM     21  C   UNL     1       2.550   7.272  18.099  0.00  0.00    +0.000 A 
ATOM     22  C   UNL     1       2.550   6.272  19.070  0.00  0.00    +0.000 A 
ATOM     23  C   UNL     1       2.009   6.526  20.333  0.00  0.00    +0.000 A 
ATOM     24  C   UNL     1       1.514   7.806  20.632  0.00  0.00    +0.000 A 
BRANCH  22  25
ATOM     25  S   UNL     1       3.173   4.652  18.645  0.00  0.00    +0.000 S 
ATOM     26  O   UNL     1       3.245   3.885  19.873  0.00  0.00    +0.000 OA
ATOM     27  O   UNL     1       2.403   4.177  17.514  0.00  0.00    +0.000 OA
BRANCH  25  28
ATOM     28  N   UNL     1       4.777   4.959  18.106  0.00  0.00    +0.000 NA
ATOM     29  C   UNL     1       5.769   5.186  19.190  0.00  0.00    +0.000 C 
ATOM     30  C   UNL     1       7.128   5.600  18.637  0.00  0.00    +0.000 C 
ATOM     31  C   UNL     1       7.618   4.609  17.591  0.00  0.00    +0.000 C 
ATOM     32  C   UNL     1       6.597   4.524  16.467  0.00  0.00    +0.000 C 
ATOM     33  C   UNL     1       5.235   4.089  16.995  0.00  0.00    +0.000 C 
ENDBRANCH  25  28
ENDBRANCH  22  25
ENDBRANCH   3  19
TORSDOF 6
ENDMDL
