MODEL 1
REMARK VINA RESULT:      -8.0      0.000      0.000
REMARK  Name = 
REMARK  9 active torsions:
REMARK  status: ('A' for Active; 'I' for Inactive)
REMARK    1  A    between atoms: C_1  and  C_2
REMARK    2  A    between atoms: C_8  and  N_9
REMARK    3  A    between atoms: N_9  and  C_10
REMARK    4  A    between atoms: N_9  and  S_22
REMARK    5  A    between atoms: C_10  and  C_11
REMARK    6  A    between atoms: N_13  and  C_14
REMARK    7  A    between atoms: C_14  and  C_15
REMARK    8  A    between atoms: C_14  and  C_16
REMARK    9  A    between atoms: S_22  and  C_23
REMARK                            x       y       z     vdW  Elec       q    Type
REMARK                         _______ _______ _______ _____ _____    ______ ____
ROOT
ATOM      1  N   UNL     1       3.865   4.155  18.363  0.00  0.00    +0.000 N 
ENDROOT
BRANCH   1   9
ATOM      2  C   UNL     1       6.335   5.396  19.371  0.00  0.00    +0.000 C 
ATOM      3  C   UNL     1       6.208   4.817  17.990  0.00  0.00    +0.000 A 
ATOM      4  C   UNL     1       7.351   4.791  17.171  0.00  0.00    +0.000 A 
ATOM      5  C   UNL     1       7.261   4.404  15.837  0.00  0.00    +0.000 A 
ATOM      6  C   UNL     1       6.018   4.085  15.301  0.00  0.00    +0.000 A 
ATOM      7 CL   UNL     1       5.902   3.688  13.629  0.00  0.00    +0.000 Cl
ATOM      8  C   UNL     1       4.877   4.067  16.107  0.00  0.00    +0.000 A 
ATOM      9  C   UNL     1       4.978   4.370  17.472  0.00  0.00    +0.000 A 
ENDBRANCH   1   9
BRANCH   1  10
ATOM     10  S   UNL     1       3.780   2.670  19.177  0.00  0.00    +0.000 S 
ATOM     11  C   UNL     1       2.333   2.899  20.176  0.00  0.00    +0.000 C 
ATOM     12  O   UNL     1       3.449   1.655  18.193  0.00  0.00    +0.000 OA
ATOM     13  O   UNL     1       4.934   2.507  20.039  0.00  0.00    +0.000 OA
ENDBRANCH   1  10
BRANCH   1  14
ATOM     14  C   UNL     1       2.587   4.873  18.159  0.00  0.00    +0.000 C 
BRANCH  14  15
ATOM     15  C   UNL     1       2.789   6.390  18.212  0.00  0.00    +0.000 C 
ATOM     16  O   UNL     1       3.696   6.933  17.585  0.00  0.00    +0.000 OA
ATOM     17  N   UNL     1       1.884   7.110  18.972  0.00  0.00    +0.000 N 
ATOM     18  H   UNL     1       1.291   6.599  19.623  0.00  0.00    +0.000 HD
BRANCH  17  19
ATOM     19  C   UNL     1       1.989   8.563  19.103  0.00  0.00    +0.000 C 
ATOM     20  C   UNL     1       1.623   9.286  17.804  0.00  0.00    +0.000 C 
BRANCH  19  21
ATOM     21  C   UNL     1       1.172   9.109  20.264  0.00  0.00    +0.000 A 
ATOM     22  C   UNL     1       0.260  10.153  20.030  0.00  0.00    +0.000 A 
ATOM     23  C   UNL     1      -0.547  10.645  21.057  0.00  0.00    +0.000 A 
ATOM     24  C   UNL     1      -0.455  10.101  22.335  0.00  0.00    +0.000 A 
ATOM     25  C   UNL     1       0.448   9.066  22.584  0.00  0.00    +0.000 A 
ATOM     26  C   UNL     1       1.250   8.567  21.556  0.00  0.00    +0.000 A 
ENDBRANCH  19  21
ENDBRANCH  17  19
ENDBRANCH  14  15
ENDBRANCH   1  14
TORSDOF 6
ENDMDL
MODEL 2
REMARK VINA RESULT:      -7.6      0.593      1.130
REMARK  Name = 
REMARK  9 active torsions:
REMARK  status: ('A' for Active; 'I' for Inactive)
REMARK    1  A    between atoms: C_1  and  C_2
REMARK    2  A    between atoms: C_8  and  N_9
REMARK    3  A    between atoms: N_9  and  C_10
REMARK    4  A    between atoms: N_9  and  S_22
REMARK    5  A    between atoms: C_10  and  C_11
REMARK    6  A    between atoms: N_13  and  C_14
REMARK    7  A    between atoms: C_14  and  C_15
REMARK    8  A    between atoms: C_14  and  C_16
REMARK    9  A    between atoms: S_22  and  C_23
REMARK                            x       y       z     vdW  Elec       q    Type
REMARK                         _______ _______ _______ _____ _____    ______ ____
ROOT
ATOM      1  N   UNL     1       3.764   4.141  18.250  0.00  0.00    +0.000 N 
ENDROOT
BRANCH   1   9
ATOM      2  C   UNL     1       6.334   5.147  19.273  0.00  0.00    +0.000 C 
ATOM      3  C   UNL     1       6.139   4.668  17.862  0.00  0.00    +0.000 A 
ATOM      4  C   UNL     1       7.261   4.620  17.015  0.00  0.00    +0.000 A 
ATOM      5  C   UNL     1       7.117   4.327  15.661  0.00  0.00    +0.000 A 
ATOM      6  C   UNL     1       5.845   4.127  15.138  0.00  0.00    +0.000 A 
ATOM      7 CL   UNL     1       5.668   3.848  13.447  0.00  0.00    +0.000 Cl
ATOM      8  C   UNL     1       4.722   4.132  15.969  0.00  0.00    +0.000 A 
ATOM      9  C   UNL     1       4.871   4.339  17.347  0.00  0.00    +0.000 A 
ENDBRANCH   1   9
BRANCH   1  10
ATOM     10  S   UNL     1       3.565   2.601  18.930  0.00  0.00    +0.000 S 
ATOM     11  C   UNL     1       1.868   2.659  19.441  0.00  0.00    +0.000 C 
ATOM     12  O   UNL     1       3.640   1.636  17.846  0.00  0.00    +0.000 OA
ATOM     13  O   UNL     1       4.411   2.456  20.098  0.00  0.00    +0.000 OA
ENDBRANCH   1  10
BRANCH   1  14
ATOM     14  C   UNL     1       2.553   4.985  18.153  0.00  0.00    +0.000 C 
BRANCH  14  15
ATOM     15  C   UNL     1       2.792   6.371  18.757  0.00  0.00    +0.000 C 
ATOM     16  O   UNL     1       3.661   6.553  19.607  0.00  0.00    +0.000 OA
ATOM     17  N   UNL     1       2.004   7.402  18.276  0.00  0.00    +0.000 N 
ATOM     18  H   UNL     1       1.177   7.160  17.734  0.00  0.00    +0.000 HD
BRANCH  17  19
ATOM     19  C   UNL     1       2.139   8.764  18.790  0.00  0.00    +0.000 C 
ATOM     20  C   UNL     1       2.024   9.813  17.681  0.00  0.00    +0.000 C 
BRANCH  19  21
ATOM     21  C   UNL     1       1.158   9.067  19.913  0.00  0.00    +0.000 A 
ATOM     22  C   UNL     1       1.255   8.354  21.121  0.00  0.00    +0.000 A 
ATOM     23  C   UNL     1       0.409   8.641  22.194  0.00  0.00    +0.000 A 
ATOM     24  C   UNL     1      -0.549   9.643  22.075  0.00  0.00    +0.000 A 
ATOM     25  C   UNL     1      -0.660  10.358  20.881  0.00  0.00    +0.000 A 
ATOM     26  C   UNL     1       0.190  10.079  19.810  0.00  0.00    +0.000 A 
ENDBRANCH  19  21
ENDBRANCH  17  19
ENDBRANCH  14  15
ENDBRANCH   1  14
TORSDOF 6
ENDMDL
MODEL 3
REMARK VINA RESULT:      -7.4      2.879      7.228
REMARK  Name = 
REMARK  9 active torsions:
REMARK  status: ('A' for Active; 'I' for Inactive)
REMARK    1  A    between atoms: C_1  and  C_2
REMARK    2  A    between atoms: C_8  and  N_9
REMARK    3  A    between atoms: N_9  and  C_10
REMARK    4  A    between atoms: N_9  and  S_22
REMARK    5  A    between atoms: C_10  and  C_11
REMARK    6  A    between atoms: N_13  and  C_14
REMARK    7  A    between atoms: C_14  and  C_15
REMARK    8  A    between atoms: C_14  and  C_16
REMARK    9  A    between atoms: S_22  and  C_23
REMARK                            x       y       z     vdW  Elec       q    Type
REMARK                         _______ _______ _______ _____ _____    ______ ____
ROOT
ATOM      1  N   UNL     1       3.035   5.106  18.983  0.00  0.00    +0.000 N 
ENDROOT
BRANCH   1   9
ATOM      2  C   UNL     1       3.690   7.135  16.954  0.00  0.00    +0.000 C 
ATOM      3  C   UNL     1       2.776   7.397  18.118  0.00  0.00    +0.000 A 
ATOM      4  C   UNL     1       2.136   8.648  18.192  0.00  0.00    +0.000 A 
ATOM      5  C   UNL     1       1.398   9.002  19.317  0.00  0.00    +0.000 A 
ATOM      6  C   UNL     1       1.333   8.126  20.395  0.00  0.00    +0.000 A 
ATOM      7 CL   UNL     1       0.486   8.606  21.817  0.00  0.00    +0.000 Cl
ATOM      8  C   UNL     1       1.928   6.864  20.326  0.00  0.00    +0.000 A 
ATOM      9  C   UNL     1       2.598   6.468  19.160  0.00  0.00    +0.000 A 
ENDBRANCH   1   9
BRANCH   1  10
ATOM     10  S   UNL     1       1.898   3.977  18.429  0.00  0.00    +0.000 S 
ATOM     11  C   UNL     1       0.901   3.743  19.877  0.00  0.00    +0.000 C 
ATOM     12  O   UNL     1       1.060   4.650  17.452  0.00  0.00    +0.000 OA
ATOM     13  O   UNL     1       2.555   2.729  18.094  0.00  0.00    +0.000 OA
ENDBRANCH   1  10
BRANCH   1  14
ATOM     14  C   UNL     1       4.173   4.572  19.764  0.00  0.00    +0.000 C 
BRANCH  14  15
ATOM     15  C   UNL     1       5.510   4.922  19.106  0.00  0.00    +0.000 C 
ATOM     16  O   UNL     1       6.462   5.320  19.774  0.00  0.00    +0.000 OA
ATOM     17  N   UNL     1       5.596   4.737  17.737  0.00  0.00    +0.000 N 
ATOM     18  H   UNL     1       4.730   4.605  17.217  0.00  0.00    +0.000 HD
BRANCH  17  19
ATOM     19  C   UNL     1       6.821   5.050  17.004  0.00  0.00    +0.000 C 
ATOM     20  C   UNL     1       8.042   4.338  17.592  0.00  0.00    +0.000 C 
BRANCH  19  21
ATOM     21  C   UNL     1       6.704   4.763  15.515  0.00  0.00    +0.000 A 
ATOM     22  C   UNL     1       7.652   5.313  14.633  0.00  0.00    +0.000 A 
ATOM     23  C   UNL     1       7.610   5.029  13.267  0.00  0.00    +0.000 A 
ATOM     24  C   UNL     1       6.620   4.193  12.760  0.00  0.00    +0.000 A 
ATOM     25  C   UNL     1       5.670   3.643  13.622  0.00  0.00    +0.000 A 
ATOM     26  C   UNL     1       5.714   3.918  14.989  0.00  0.00    +0.000 A 
ENDBRANCH  19  21
ENDBRANCH  17  19
ENDBRANCH  14  15
ENDBRANCH   1  14
TORSDOF 6
ENDMDL
MODEL 4
REMARK VINA RESULT:      -7.4      1.827      2.516
REMARK  Name = 
REMARK  9 active torsions:
REMARK  status: ('A' for Active; 'I' for Inactive)
REMARK    1  A    between atoms: C_1  and  C_2
REMARK    2  A    between atoms: C_8  and  N_9
REMARK    3  A    between atoms: N_9  and  C_10
REMARK    4  A    between atoms: N_9  and  S_22
REMARK    5  A    between atoms: C_10  and  C_11
REMARK    6  A    between atoms: N_13  and  C_14
REMARK    7  A    between atoms: C_14  and  C_15
REMARK    8  A    between atoms: C_14  and  C_16
REMARK    9  A    between atoms: S_22  and  C_23
REMARK                            x       y       z     vdW  Elec       q    Type
REMARK                         _______ _______ _______ _____ _____    ______ ____
ROOT
ATOM      1  N   UNL     1       3.251   4.958  19.167  0.00  0.00    +0.000 N 
ENDROOT
BRANCH   1   9
ATOM      2  C   UNL     1       3.639   3.342  16.739  0.00  0.00    +0.000 C 
ATOM      3  C   UNL     1       4.736   4.149  17.376  0.00  0.00    +0.000 A 
ATOM      4  C   UNL     1       5.985   4.200  16.732  0.00  0.00    +0.000 A 
ATOM      5  C   UNL     1       7.077   4.807  17.346  0.00  0.00    +0.000 A 
ATOM      6  C   UNL     1       6.937   5.324  18.629  0.00  0.00    +0.000 A 
ATOM      7 CL   UNL     1       8.314   5.999  19.415  0.00  0.00    +0.000 Cl
ATOM      8  C   UNL     1       5.696   5.318  19.270  0.00  0.00    +0.000 A 
ATOM      9  C   UNL     1       4.574   4.788  18.620  0.00  0.00    +0.000 A 
ENDBRANCH   1   9
BRANCH   1  10
ATOM     10  S   UNL     1       2.706   3.809  20.288  0.00  0.00    +0.000 S 
ATOM     11  C   UNL     1       1.247   3.200  19.486  0.00  0.00    +0.000 C 
ATOM     12  O   UNL     1       3.665   2.719  20.291  0.00  0.00    +0.000 OA
ATOM     13  O   UNL     1       2.332   4.460  21.529  0.00  0.00    +0.000 OA
ENDBRANCH   1  10
BRANCH   1  14
ATOM     14  C   UNL     1       2.212   5.692  18.411  0.00  0.00    +0.000 C 
BRANCH  14  15
ATOM     15  C   UNL     1       2.370   7.206  18.577  0.00  0.00    +0.000 C 
ATOM     16  O   UNL     1       3.273   7.817  18.009  0.00  0.00    +0.000 OA
ATOM     17  N   UNL     1       1.431   7.845  19.367  0.00  0.00    +0.000 N 
ATOM     18  H   UNL     1       0.840   7.272  19.967  0.00  0.00    +0.000 HD
BRANCH  17  19
ATOM     19  C   UNL     1       1.492   9.287  19.604  0.00  0.00    +0.000 C 
ATOM     20  C   UNL     1       1.102  10.092  18.361  0.00  0.00    +0.000 C 
BRANCH  19  21
ATOM     21  C   UNL     1       0.662   9.721  20.802  0.00  0.00    +0.000 A 
ATOM     22  C   UNL     1       0.801   9.032  22.020  0.00  0.00    +0.000 A 
ATOM     23  C   UNL     1       0.097   9.434  23.156  0.00  0.00    +0.000 A 
ATOM     24  C   UNL     1      -0.759  10.530  23.093  0.00  0.00    +0.000 A 
ATOM     25  C   UNL     1      -0.910  11.222  21.890  0.00  0.00    +0.000 A 
ATOM     26  C   UNL     1      -0.201  10.827  20.755  0.00  0.00    +0.000 A 
ENDBRANCH  19  21
ENDBRANCH  17  19
ENDBRANCH  14  15
ENDBRANCH   1  14
TORSDOF 6
ENDMDL
MODEL 5
REMARK VINA RESULT:      -7.3      2.618      7.171
REMARK  Name = 
REMARK  9 active torsions:
REMARK  status: ('A' for Active; 'I' for Inactive)
REMARK    1  A    between atoms: C_1  and  C_2
REMARK    2  A    between atoms: C_8  and  N_9
REMARK    3  A    between atoms: N_9  and  C_10
REMARK    4  A    between atoms: N_9  and  S_22
REMARK    5  A    between atoms: C_10  and  C_11
REMARK    6  A    between atoms: N_13  and  C_14
REMARK    7  A    between atoms: C_14  and  C_15
REMARK    8  A    between atoms: C_14  and  C_16
REMARK    9  A    between atoms: S_22  and  C_23
REMARK                            x       y       z     vdW  Elec       q    Type
REMARK                         _______ _______ _______ _____ _____    ______ ____
ROOT
ATOM      1  N   UNL     1       3.090   4.457  18.562  0.00  0.00    +0.000 N 
ENDROOT
BRANCH   1   9
ATOM      2  C   UNL     1       1.731   4.534  21.171  0.00  0.00    +0.000 C 
ATOM      3  C   UNL     1       1.965   5.755  20.327  0.00  0.00    +0.000 A 
ATOM      4  C   UNL     1       1.591   7.006  20.849  0.00  0.00    +0.000 A 
ATOM      5  C   UNL     1       1.646   8.151  20.059  0.00  0.00    +0.000 A 
ATOM      6  C   UNL     1       2.031   8.043  18.727  0.00  0.00    +0.000 A 
ATOM      7 CL   UNL     1       2.016   9.451  17.734  0.00  0.00    +0.000 Cl
ATOM      8  C   UNL     1       2.443   6.817  18.200  0.00  0.00    +0.000 A 
ATOM      9  C   UNL     1       2.474   5.678  19.017  0.00  0.00    +0.000 A 
ENDBRANCH   1   9
BRANCH   1  10
ATOM     10  S   UNL     1       2.103   3.314  17.790  0.00  0.00    +0.000 S 
ATOM     11  C   UNL     1       2.331   1.895  18.829  0.00  0.00    +0.000 C 
ATOM     12  O   UNL     1       0.726   3.741  17.967  0.00  0.00    +0.000 OA
ATOM     13  O   UNL     1       2.616   3.024  16.466  0.00  0.00    +0.000 OA
ENDBRANCH   1  10
BRANCH   1  14
ATOM     14  C   UNL     1       4.315   3.943  19.214  0.00  0.00    +0.000 C 
BRANCH  14  15
ATOM     15  C   UNL     1       5.573   4.417  18.482  0.00  0.00    +0.000 C 
ATOM     16  O   UNL     1       6.645   4.538  19.072  0.00  0.00    +0.000 OA
ATOM     17  N   UNL     1       5.445   4.668  17.126  0.00  0.00    +0.000 N 
ATOM     18  H   UNL     1       4.506   4.749  16.741  0.00  0.00    +0.000 HD
BRANCH  17  19
ATOM     19  C   UNL     1       6.579   5.136  16.331  0.00  0.00    +0.000 C 
ATOM     20  C   UNL     1       7.921   4.704  16.929  0.00  0.00    +0.000 C 
BRANCH  19  21
ATOM     21  C   UNL     1       6.487   4.714  14.872  0.00  0.00    +0.000 A 
ATOM     22  C   UNL     1       7.478   5.141  13.970  0.00  0.00    +0.000 A 
ATOM     23  C   UNL     1       7.459   4.732  12.636  0.00  0.00    +0.000 A 
ATOM     24  C   UNL     1       6.448   3.890  12.182  0.00  0.00    +0.000 A 
ATOM     25  C   UNL     1       5.456   3.460  13.064  0.00  0.00    +0.000 A 
ATOM     26  C   UNL     1       5.478   3.861  14.400  0.00  0.00    +0.000 A 
ENDBRANCH  19  21
ENDBRANCH  17  19
ENDBRANCH  14  15
ENDBRANCH   1  14
TORSDOF 6
ENDMDL
MODEL 6
REMARK VINA RESULT:      -7.3      1.713      2.178
REMARK  Name = 
REMARK  9 active torsions:
REMARK  status: ('A' for Active; 'I' for Inactive)
REMARK    1  A    between atoms: C_1  and  C_2
REMARK    2  A    between atoms: C_8  and  N_9
REMARK    3  A    between atoms: N_9  and  C_10
REMARK    4  A    between atoms: N_9  and  S_22
REMARK    5  A    between atoms: C_10  and  C_11
REMARK    6  A    between atoms: N_13  and  C_14
REMARK    7  A    between atoms: C_14  and  C_15
REMARK    8  A    between atoms: C_14  and  C_16
REMARK    9  A    between atoms: S_22  and  C_23
REMARK                            x       y       z     vdW  Elec       q    Type
REMARK                         _______ _______ _______ _____ _____    ______ ____
ROOT
ATOM      1  N   UNL     1       3.302   4.837  18.893  0.00  0.00    +0.000 N 
ENDROOT
BRANCH   1   9
ATOM      2  C   UNL     1       3.876   3.234  16.493  0.00  0.00    +0.000 C 
ATOM      3  C   UNL     1       4.903   4.094  17.176  0.00  0.00    +0.000 A 
ATOM      4  C   UNL     1       6.176   4.203  16.588  0.00  0.00    +0.000 A 
ATOM      5  C   UNL     1       7.209   4.862  17.248  0.00  0.00    +0.000 A 
ATOM      6  C   UNL     1       6.987   5.375  18.521  0.00  0.00    +0.000 A 
ATOM      7 CL   UNL     1       8.294   6.116  19.366  0.00  0.00    +0.000 Cl
ATOM      8  C   UNL     1       5.720   5.313  19.106  0.00  0.00    +0.000 A 
ATOM      9  C   UNL     1       4.655   4.728  18.407  0.00  0.00    +0.000 A 
ENDBRANCH   1   9
BRANCH   1  10
ATOM     10  S   UNL     1       2.714   3.590  19.880  0.00  0.00    +0.000 S 
ATOM     11  C   UNL     1       2.173   4.495  21.306  0.00  0.00    +0.000 C 
ATOM     12  O   UNL     1       1.518   3.062  19.245  0.00  0.00    +0.000 OA
ATOM     13  O   UNL     1       3.794   2.701  20.260  0.00  0.00    +0.000 OA
ENDBRANCH   1  10
BRANCH   1  14
ATOM     14  C   UNL     1       2.294   5.623  18.147  0.00  0.00    +0.000 C 
BRANCH  14  15
ATOM     15  C   UNL     1       2.494   7.126  18.359  0.00  0.00    +0.000 C 
ATOM     16  O   UNL     1       3.427   7.724  17.828  0.00  0.00    +0.000 OA
ATOM     17  N   UNL     1       1.558   7.771  19.148  0.00  0.00    +0.000 N 
ATOM     18  H   UNL     1       0.938   7.199  19.719  0.00  0.00    +0.000 HD
BRANCH  17  19
ATOM     19  C   UNL     1       1.658   9.202  19.428  0.00  0.00    +0.000 C 
ATOM     20  C   UNL     1       1.238  10.054  18.227  0.00  0.00    +0.000 C 
BRANCH  19  21
ATOM     21  C   UNL     1       0.881   9.614  20.669  0.00  0.00    +0.000 A 
ATOM     22  C   UNL     1      -0.003  10.705  20.595  0.00  0.00    +0.000 A 
ATOM     23  C   UNL     1      -0.774  11.080  21.697  0.00  0.00    +0.000 A 
ATOM     24  C   UNL     1      -0.673  10.371  22.890  0.00  0.00    +0.000 A 
ATOM     25  C   UNL     1       0.203   9.288  22.980  0.00  0.00    +0.000 A 
ATOM     26  C   UNL     1       0.968   8.906  21.878  0.00  0.00    +0.000 A 
ENDBRANCH  19  21
ENDBRANCH  17  19
ENDBRANCH  14  15
ENDBRANCH   1  14
TORSDOF 6
ENDMDL
MODEL 7
REMARK VINA RESULT:      -7.2      2.282      3.037
REMARK  Name = 
REMARK  9 active torsions:
REMARK  status: ('A' for Active; 'I' for Inactive)
REMARK    1  A    between atoms: C_1  and  C_2
REMARK    2  A    between atoms: C_8  and  N_9
REMARK    3  A    between atoms: N_9  and  C_10
REMARK    4  A    between atoms: N_9  and  S_22
REMARK    5  A    between atoms: C_10  and  C_11
REMARK    6  A    between atoms: N_13  and  C_14
REMARK    7  A    between atoms: C_14  and  C_15
REMARK    8  A    between atoms: C_14  and  C_16
REMARK    9  A    between atoms: S_22  and  C_23
REMARK                            x       y       z     vdW  Elec       q    Type
REMARK                         _______ _______ _______ _____ _____    ______ ____
ROOT
ATOM      1  N   UNL     1       3.212   5.106  19.087  0.00  0.00    +0.000 N 
ENDROOT
BRANCH   1   9
ATOM      2  C   UNL     1       3.550   3.486  16.654  0.00  0.00    +0.000 C 
ATOM      3  C   UNL     1       4.675   4.242  17.304  0.00  0.00    +0.000 A 
ATOM      4  C   UNL     1       5.930   4.243  16.670  0.00  0.00    +0.000 A 
ATOM      5  C   UNL     1       7.042   4.799  17.296  0.00  0.00    +0.000 A 
ATOM      6  C   UNL     1       6.915   5.316  18.580  0.00  0.00    +0.000 A 
ATOM      7 CL   UNL     1       8.313   5.927  19.381  0.00  0.00    +0.000 Cl
ATOM      8  C   UNL     1       5.669   5.360  19.212  0.00  0.00    +0.000 A 
ATOM      9  C   UNL     1       4.531   4.881  18.550  0.00  0.00    +0.000 A 
ENDBRANCH   1   9
BRANCH   1  10
ATOM     10  S   UNL     1       2.591   3.953  20.164  0.00  0.00    +0.000 S 
ATOM     11  C   UNL     1       1.093   3.476  19.343  0.00  0.00    +0.000 C 
ATOM     12  O   UNL     1       3.474   2.800  20.121  0.00  0.00    +0.000 OA
ATOM     13  O   UNL     1       2.263   4.578  21.431  0.00  0.00    +0.000 OA
ENDBRANCH   1  10
BRANCH   1  14
ATOM     14  C   UNL     1       2.224   5.919  18.344  0.00  0.00    +0.000 C 
BRANCH  14  15
ATOM     15  C   UNL     1       2.067   7.309  18.966  0.00  0.00    +0.000 C 
ATOM     16  O   UNL     1       2.289   7.499  20.160  0.00  0.00    +0.000 OA
ATOM     17  N   UNL     1       1.697   8.333  18.113  0.00  0.00    +0.000 N 
ATOM     18  H   UNL     1       1.333   8.084  17.195  0.00  0.00    +0.000 HD
BRANCH  17  19
ATOM     19  C   UNL     1       1.507   9.698  18.602  0.00  0.00    +0.000 C 
ATOM     20  C   UNL     1       2.402  10.702  17.871  0.00  0.00    +0.000 C 
BRANCH  19  21
ATOM     21  C   UNL     1       0.054  10.144  18.549  0.00  0.00    +0.000 A 
ATOM     22  C   UNL     1      -0.410  11.084  19.485  0.00  0.00    +0.000 A 
ATOM     23  C   UNL     1      -1.722  11.559  19.436  0.00  0.00    +0.000 A 
ATOM     24  C   UNL     1      -2.591  11.100  18.451  0.00  0.00    +0.000 A 
ATOM     25  C   UNL     1      -2.146  10.164  17.516  0.00  0.00    +0.000 A 
ATOM     26  C   UNL     1      -0.833   9.694  17.558  0.00  0.00    +0.000 A 
ENDBRANCH  19  21
ENDBRANCH  17  19
ENDBRANCH  14  15
ENDBRANCH   1  14
TORSDOF 6
ENDMDL
MODEL 8
REMARK VINA RESULT:      -7.2      1.610      2.127
REMARK  Name = 
REMARK  9 active torsions:
REMARK  status: ('A' for Active; 'I' for Inactive)
REMARK    1  A    between atoms: C_1  and  C_2
REMARK    2  A    between atoms: C_8  and  N_9
REMARK    3  A    between atoms: N_9  and  C_10
REMARK    4  A    between atoms: N_9  and  S_22
REMARK    5  A    between atoms: C_10  and  C_11
REMARK    6  A    between atoms: N_13  and  C_14
REMARK    7  A    between atoms: C_14  and  C_15
REMARK    8  A    between atoms: C_14  and  C_16
REMARK    9  A    between atoms: S_22  and  C_23
REMARK                            x       y       z     vdW  Elec       q    Type
REMARK                         _______ _______ _______ _____ _____    ______ ____
ROOT
ATOM      1  N   UNL     1       3.433   4.939  18.127  0.00  0.00    +0.000 N 
ENDROOT
BRANCH   1   9
ATOM      2  C   UNL     1       5.980   5.640  19.426  0.00  0.00    +0.000 C 
ATOM      3  C   UNL     1       5.891   5.066  18.039  0.00  0.00    +0.000 A 
ATOM      4  C   UNL     1       7.090   4.770  17.364  0.00  0.00    +0.000 A 
ATOM      5  C   UNL     1       7.075   4.377  16.029  0.00  0.00    +0.000 A 
ATOM      6  C   UNL     1       5.864   4.322  15.348  0.00  0.00    +0.000 A 
ATOM      7 CL   UNL     1       5.862   3.915  13.674  0.00  0.00    +0.000 Cl
ATOM      8  C   UNL     1       4.660   4.573  16.010  0.00  0.00    +0.000 A 
ATOM      9  C   UNL     1       4.663   4.883  17.377  0.00  0.00    +0.000 A 
ENDBRANCH   1   9
BRANCH   1  10
ATOM     10  S   UNL     1       3.021   3.592  19.070  0.00  0.00    +0.000 S 
ATOM     11  C   UNL     1       1.363   3.276  18.525  0.00  0.00    +0.000 C 
ATOM     12  O   UNL     1       3.830   2.477  18.608  0.00  0.00    +0.000 OA
ATOM     13  O   UNL     1       3.003   3.951  20.474  0.00  0.00    +0.000 OA
ENDBRANCH   1  10
BRANCH   1  14
ATOM     14  C   UNL     1       2.318   5.803  17.681  0.00  0.00    +0.000 C 
BRANCH  14  15
ATOM     15  C   UNL     1       2.280   7.113  18.471  0.00  0.00    +0.000 C 
ATOM     16  O   UNL     1       2.831   7.212  19.565  0.00  0.00    +0.000 OA
ATOM     17  N   UNL     1       1.625   8.178  17.876  0.00  0.00    +0.000 N 
ATOM     18  H   UNL     1       1.022   7.984  17.079  0.00  0.00    +0.000 HD
BRANCH  17  19
ATOM     19  C   UNL     1       1.518   9.473  18.546  0.00  0.00    +0.000 C 
ATOM     20  C   UNL     1       2.512  10.495  17.987  0.00  0.00    +0.000 C 
BRANCH  19  21
ATOM     21  C   UNL     1       0.105  10.035  18.515  0.00  0.00    +0.000 A 
ATOM     22  C   UNL     1      -0.240  11.075  19.397  0.00  0.00    +0.000 A 
ATOM     23  C   UNL     1      -1.510  11.654  19.363  0.00  0.00    +0.000 A 
ATOM     24  C   UNL     1      -2.456  11.201  18.448  0.00  0.00    +0.000 A 
ATOM     25  C   UNL     1      -2.130  10.167  17.569  0.00  0.00    +0.000 A 
ATOM     26  C   UNL     1      -0.859   9.592  17.595  0.00  0.00    +0.000 A 
ENDBRANCH  19  21
ENDBRANCH  17  19
ENDBRANCH  14  15
ENDBRANCH   1  14
TORSDOF 6
ENDMDL
MODEL 9
REMARK VINA RESULT:      -7.2      4.086      7.875
REMARK  Name = 
REMARK  9 active torsions:
REMARK  status: ('A' for Active; 'I' for Inactive)
REMARK    1  A    between atoms: C_1  and  C_2
REMARK    2  A    between atoms: C_8  and  N_9
REMARK    3  A    between atoms: N_9  and  C_10
REMARK    4  A    between atoms: N_9  and  S_22
REMARK    5  A    between atoms: C_10  and  C_11
REMARK    6  A    between atoms: N_13  and  C_14
REMARK    7  A    between atoms: C_14  and  C_15
REMARK    8  A    between atoms: C_14  and  C_16
REMARK    9  A    between atoms: S_22  and  C_23
REMARK                            x       y       z     vdW  Elec       q    Type
REMARK                         _______ _______ _______ _____ _____    ______ ____
ROOT
ATOM      1  N   UNL     1       0.290   9.660  20.124  0.00  0.00    +0.000 N 
ENDROOT
BRANCH   1   9
ATOM      2  C   UNL     1       0.788  12.559  20.006  0.00  0.00    +0.000 C 
ATOM      3  C   UNL     1      -0.239  11.863  19.157  0.00  0.00    +0.000 A 
ATOM      4  C   UNL     1      -0.935  12.622  18.199  0.00  0.00    +0.000 A 
ATOM      5  C   UNL     1      -1.997  12.069  17.489  0.00  0.00    +0.000 A 
ATOM      6  C   UNL     1      -2.398  10.767  17.765  0.00  0.00    +0.000 A 
ATOM      7 CL   UNL     1      -3.765  10.118  16.941  0.00  0.00    +0.000 Cl
ATOM      8  C   UNL     1      -1.696   9.983  18.684  0.00  0.00    +0.000 A 
ATOM      9  C   UNL     1      -0.572  10.507  19.337  0.00  0.00    +0.000 A 
ENDBRANCH   1   9
BRANCH   1  10
ATOM     10  S   UNL     1      -0.142   9.376  21.739  0.00  0.00    +0.000 S 
ATOM     11  C   UNL     1       1.450   9.250  22.511  0.00  0.00    +0.000 C 
ATOM     12  O   UNL     1      -0.753  10.593  22.244  0.00  0.00    +0.000 OA
ATOM     13  O   UNL     1      -0.832   8.107  21.856  0.00  0.00    +0.000 OA
ENDBRANCH   1  10
BRANCH   1  14
ATOM     14  C   UNL     1       1.724   9.525  19.787  0.00  0.00    +0.000 C 
BRANCH  14  15
ATOM     15  C   UNL     1       1.950   8.415  18.758  0.00  0.00    +0.000 C 
ATOM     16  O   UNL     1       1.658   8.575  17.575  0.00  0.00    +0.000 OA
ATOM     17  N   UNL     1       2.525   7.245  19.223  0.00  0.00    +0.000 N 
ATOM     18  H   UNL     1       2.555   7.094  20.230  0.00  0.00    +0.000 HD
BRANCH  17  19
ATOM     19  C   UNL     1       2.776   6.115  18.330  0.00  0.00    +0.000 C 
ATOM     20  C   UNL     1       4.270   5.908  18.067  0.00  0.00    +0.000 C 
BRANCH  19  21
ATOM     21  C   UNL     1       2.139   4.824  18.824  0.00  0.00    +0.000 A 
ATOM     22  C   UNL     1       1.820   4.694  20.187  0.00  0.00    +0.000 A 
ATOM     23  C   UNL     1       1.186   3.548  20.670  0.00  0.00    +0.000 A 
ATOM     24  C   UNL     1       0.862   2.513  19.797  0.00  0.00    +0.000 A 
ATOM     25  C   UNL     1       1.176   2.625  18.442  0.00  0.00    +0.000 A 
ATOM     26  C   UNL     1       1.803   3.774  17.956  0.00  0.00    +0.000 A 
ENDBRANCH  19  21
ENDBRANCH  17  19
ENDBRANCH  14  15
ENDBRANCH   1  14
TORSDOF 6
ENDMDL
