MODEL 1
REMARK VINA RESULT:     -10.1      0.000      0.000
REMARK  Name = 
REMARK  8 active torsions:
REMARK  status: ('A' for Active; 'I' for Inactive)
REMARK    1  A    between atoms: C_1  and  C_2
REMARK    2  A    between atoms: N_4  and  C_5
REMARK    3  A    between atoms: C_5  and  C_6
REMARK    4  A    between atoms: C_9  and  O_10
REMARK    5  A    between atoms: O_10  and  C_11
REMARK    6  A    between atoms: C_25  and  C_26
REMARK    7  A    between atoms: C_32  and  C_33
REMARK    8  A    between atoms: C_33  and  O_35
REMARK                            x       y       z     vdW  Elec       q    Type
REMARK                         _______ _______ _______ _____ _____    ______ ____
ROOT
ATOM      1  C   UNL     1      -3.756  10.424  15.899  0.00  0.00    +0.000 C 
ATOM      2  C   UNL     1      -3.120  11.022  17.103  0.00  0.00    +0.000 A 
ATOM      3  N   UNL     1      -1.779  11.073  17.160  0.00  0.00    +0.000 NA
ATOM      4  N   UNL     1      -1.528  11.670  18.346  0.00  0.00    +0.000 N 
ATOM      5  C   UNL     1      -2.652  11.969  19.060  0.00  0.00    +0.000 A 
ATOM      6  N   UNL     1      -2.695  12.521  20.292  0.00  0.00    +0.000 NA
ATOM      7  C   UNL     1      -3.944  12.659  20.789  0.00  0.00    +0.000 A 
ATOM      8  C   UNL     1      -5.105  12.325  20.099  0.00  0.00    +0.000 A 
ATOM      9  C   UNL     1      -5.014  11.786  18.807  0.00  0.00    +0.000 A 
ATOM     10  C   UNL     1      -3.730  11.568  18.272  0.00  0.00    +0.000 A 
ENDROOT
BRANCH   7  11
ATOM     11  C   UNL     1      -4.000  13.134  22.168  0.00  0.00    +0.000 A 
ATOM     12  C   UNL     1      -4.163  14.373  22.756  0.00  0.00    +0.000 A 
ATOM     13  C   UNL     1      -4.043  14.180  24.155  0.00  0.00    +0.000 A 
ATOM     14  C   UNL     1      -3.835  12.834  24.339  0.00  0.00    +0.000 A 
ATOM     15  O   UNL     1      -3.817  12.191  23.144  0.00  0.00    +0.000 OA
ENDBRANCH   7  11
BRANCH   9  16
ATOM     16  C   UNL     1      -6.236  11.356  18.096  0.00  0.00    +0.000 C 
ATOM     17  O   UNL     1      -6.918  10.411  18.447  0.00  0.00    +0.000 OA
BRANCH  16  18
ATOM     18  O   UNL     1      -6.542  12.110  17.019  0.00  0.00    +0.000 OA
ATOM     19  H   UNL     1      -6.394  11.706  16.146  0.00  0.00    +0.000 HD
ENDBRANCH  16  18
ENDBRANCH   9  16
BRANCH   4  20
ATOM     20  C   UNL     1      -0.155  11.881  18.776  0.00  0.00    +0.000 C 
BRANCH  20  21
ATOM     21  C   UNL     1       0.501  10.580  19.169  0.00  0.00    +0.000 A 
ATOM     22  C   UNL     1       1.241   9.830  18.243  0.00  0.00    +0.000 A 
ATOM     23  C   UNL     1       1.851   8.626  18.629  0.00  0.00    +0.000 A 
ATOM     24  C   UNL     1       1.713   8.169  19.939  0.00  0.00    +0.000 A 
ATOM     25  C   UNL     1       0.910   8.872  20.842  0.00  0.00    +0.000 A 
ATOM     26  C   UNL     1       0.335  10.085  20.469  0.00  0.00    +0.000 A 
BRANCH  24  27
ATOM     27  O   UNL     1       2.367   7.003  20.276  0.00  0.00    +0.000 OA
BRANCH  27  28
ATOM     28  C   UNL     1       2.798   6.163  19.256  0.00  0.00    +0.000 A 
ATOM     29  C   UNL     1       3.680   6.605  18.258  0.00  0.00    +0.000 A 
ATOM     30  C   UNL     1       4.150   5.726  17.291  0.00  0.00    +0.000 A 
ATOM     31  C   UNL     1       3.637   4.435  17.228  0.00  0.00    +0.000 A 
ATOM     32  C   UNL     1       2.641   4.016  18.122  0.00  0.00    +0.000 A 
ATOM     33  C   UNL     1       2.011   2.776  17.937  0.00  0.00    +0.000 A 
ATOM     34  C   UNL     1       1.023   2.340  18.816  0.00  0.00    +0.000 A 
ATOM     35  C   UNL     1       0.705   3.106  19.932  0.00  0.00    +0.000 A 
ATOM     36  C   UNL     1       1.317   4.348  20.125  0.00  0.00    +0.000 A 
ATOM     37  C   UNL     1       2.250   4.857  19.194  0.00  0.00    +0.000 A 
ENDBRANCH  27  28
ENDBRANCH  24  27
ENDBRANCH  20  21
ENDBRANCH   4  20
TORSDOF 7
ENDMDL
MODEL 2
REMARK VINA RESULT:     -10.0      0.529      1.052
REMARK  Name = 
REMARK  8 active torsions:
REMARK  status: ('A' for Active; 'I' for Inactive)
REMARK    1  A    between atoms: C_1  and  C_2
REMARK    2  A    between atoms: N_4  and  C_5
REMARK    3  A    between atoms: C_5  and  C_6
REMARK    4  A    between atoms: C_9  and  O_10
REMARK    5  A    between atoms: O_10  and  C_11
REMARK    6  A    between atoms: C_25  and  C_26
REMARK    7  A    between atoms: C_32  and  C_33
REMARK    8  A    between atoms: C_33  and  O_35
REMARK                            x       y       z     vdW  Elec       q    Type
REMARK                         _______ _______ _______ _____ _____    ______ ____
ROOT
ATOM      1  C   UNL     1      -3.763  10.217  15.927  0.00  0.00    +0.000 C 
ATOM      2  C   UNL     1      -3.104  10.872  17.088  0.00  0.00    +0.000 A 
ATOM      3  N   UNL     1      -1.762  10.913  17.122  0.00  0.00    +0.000 NA
ATOM      4  N   UNL     1      -1.487  11.570  18.271  0.00  0.00    +0.000 N 
ATOM      5  C   UNL     1      -2.598  11.918  18.984  0.00  0.00    +0.000 A 
ATOM      6  N   UNL     1      -2.617  12.535  20.186  0.00  0.00    +0.000 NA
ATOM      7  C   UNL     1      -3.857  12.711  20.693  0.00  0.00    +0.000 A 
ATOM      8  C   UNL     1      -5.032  12.352  20.039  0.00  0.00    +0.000 A 
ATOM      9  C   UNL     1      -4.965  11.744  18.776  0.00  0.00    +0.000 A 
ATOM     10  C   UNL     1      -3.691  11.485  18.235  0.00  0.00    +0.000 A 
ENDROOT
BRANCH   7  11
ATOM     11  C   UNL     1      -3.888  13.259  22.046  0.00  0.00    +0.000 A 
ATOM     12  C   UNL     1      -3.860  12.706  23.311  0.00  0.00    +0.000 A 
ATOM     13  C   UNL     1      -4.003  13.778  24.228  0.00  0.00    +0.000 A 
ATOM     14  C   UNL     1      -4.089  14.920  23.470  0.00  0.00    +0.000 A 
ATOM     15  O   UNL     1      -4.010  14.620  22.149  0.00  0.00    +0.000 OA
ENDBRANCH   7  11
BRANCH   9  16
ATOM     16  C   UNL     1      -6.201  11.287  18.108  0.00  0.00    +0.000 C 
ATOM     17  O   UNL     1      -6.859  10.339  18.492  0.00  0.00    +0.000 OA
BRANCH  16  18
ATOM     18  O   UNL     1      -6.549  12.023  17.030  0.00  0.00    +0.000 OA
ATOM     19  H   UNL     1      -6.277  12.957  17.032  0.00  0.00    +0.000 HD
ENDBRANCH  16  18
ENDBRANCH   9  16
BRANCH   4  20
ATOM     20  C   UNL     1      -0.106  11.792  18.669  0.00  0.00    +0.000 C 
BRANCH  20  21
ATOM     21  C   UNL     1       0.566  10.496  19.053  0.00  0.00    +0.000 A 
ATOM     22  C   UNL     1       0.506  10.009  20.368  0.00  0.00    +0.000 A 
ATOM     23  C   UNL     1       1.129   8.796  20.706  0.00  0.00    +0.000 A 
ATOM     24  C   UNL     1       1.820   8.079  19.729  0.00  0.00    +0.000 A 
ATOM     25  C   UNL     1       1.950   8.601  18.440  0.00  0.00    +0.000 A 
ATOM     26  C   UNL     1       1.300   9.785  18.096  0.00  0.00    +0.000 A 
BRANCH  24  27
ATOM     27  O   UNL     1       2.378   6.875  20.105  0.00  0.00    +0.000 OA
BRANCH  27  28
ATOM     28  C   UNL     1       2.847   6.020  19.115  0.00  0.00    +0.000 A 
ATOM     29  C   UNL     1       3.760   6.449  18.140  0.00  0.00    +0.000 A 
ATOM     30  C   UNL     1       4.266   5.556  17.204  0.00  0.00    +0.000 A 
ATOM     31  C   UNL     1       3.762   4.262  17.147  0.00  0.00    +0.000 A 
ATOM     32  C   UNL     1       2.738   3.853  18.014  0.00  0.00    +0.000 A 
ATOM     33  C   UNL     1       2.121   2.607  17.829  0.00  0.00    +0.000 A 
ATOM     34  C   UNL     1       1.106   2.181  18.682  0.00  0.00    +0.000 A 
ATOM     35  C   UNL     1       0.746   2.964  19.773  0.00  0.00    +0.000 A 
ATOM     36  C   UNL     1       1.345   4.212  19.964  0.00  0.00    +0.000 A 
ATOM     37  C   UNL     1       2.308   4.710  19.057  0.00  0.00    +0.000 A 
ENDBRANCH  27  28
ENDBRANCH  24  27
ENDBRANCH  20  21
ENDBRANCH   4  20
TORSDOF 7
ENDMDL
MODEL 3
REMARK VINA RESULT:      -9.8      1.116      2.195
REMARK  Name = 
REMARK  8 active torsions:
REMARK  status: ('A' for Active; 'I' for Inactive)
REMARK    1  A    between atoms: C_1  and  C_2
REMARK    2  A    between atoms: N_4  and  C_5
REMARK    3  A    between atoms: C_5  and  C_6
REMARK    4  A    between atoms: C_9  and  O_10
REMARK    5  A    between atoms: O_10  and  C_11
REMARK    6  A    between atoms: C_25  and  C_26
REMARK    7  A    between atoms: C_32  and  C_33
REMARK    8  A    between atoms: C_33  and  O_35
REMARK                            x       y       z     vdW  Elec       q    Type
REMARK                         _______ _______ _______ _____ _____    ______ ____
ROOT
ATOM      1  C   UNL     1      -3.402   9.596  16.318  0.00  0.00    +0.000 C 
ATOM      2  C   UNL     1      -2.725  10.409  17.362  0.00  0.00    +0.000 A 
ATOM      3  N   UNL     1      -1.386  10.350  17.451  0.00  0.00    +0.000 NA
ATOM      4  N   UNL     1      -1.091  11.193  18.465  0.00  0.00    +0.000 N 
ATOM      5  C   UNL     1      -2.189  11.759  19.046  0.00  0.00    +0.000 A 
ATOM      6  N   UNL     1      -2.191  12.597  20.106  0.00  0.00    +0.000 NA
ATOM      7  C   UNL     1      -3.426  12.966  20.511  0.00  0.00    +0.000 A 
ATOM      8  C   UNL     1      -4.607  12.581  19.884  0.00  0.00    +0.000 A 
ATOM      9  C   UNL     1      -4.554  11.736  18.764  0.00  0.00    +0.000 A 
ATOM     10  C   UNL     1      -3.291  11.278  18.343  0.00  0.00    +0.000 A 
ENDROOT
BRANCH   7  11
ATOM     11  C   UNL     1      -3.451  13.766  21.732  0.00  0.00    +0.000 A 
ATOM     12  C   UNL     1      -3.479  13.468  23.081  0.00  0.00    +0.000 A 
ATOM     13  C   UNL     1      -3.578  14.703  23.770  0.00  0.00    +0.000 A 
ATOM     14  C   UNL     1      -3.584  15.680  22.804  0.00  0.00    +0.000 A 
ATOM     15  O   UNL     1      -3.498  15.125  21.568  0.00  0.00    +0.000 OA
ENDBRANCH   7  11
BRANCH   9  16
ATOM     16  C   UNL     1      -5.804  11.258  18.138  0.00  0.00    +0.000 C 
ATOM     17  O   UNL     1      -6.495  10.376  18.610  0.00  0.00    +0.000 OA
BRANCH  16  18
ATOM     18  O   UNL     1      -6.124  11.895  16.990  0.00  0.00    +0.000 OA
ATOM     19  H   UNL     1      -6.968  12.380  16.981  0.00  0.00    +0.000 HD
ENDBRANCH  16  18
ENDBRANCH   9  16
BRANCH   4  20
ATOM     20  C   UNL     1       0.292  11.377  18.878  0.00  0.00    +0.000 C 
BRANCH  20  21
ATOM     21  C   UNL     1       0.962  10.052  19.147  0.00  0.00    +0.000 A 
ATOM     22  C   UNL     1       1.706   9.399  18.152  0.00  0.00    +0.000 A 
ATOM     23  C   UNL     1       2.331   8.171  18.422  0.00  0.00    +0.000 A 
ATOM     24  C   UNL     1       2.203   7.593  19.685  0.00  0.00    +0.000 A 
ATOM     25  C   UNL     1       1.397   8.200  20.652  0.00  0.00    +0.000 A 
ATOM     26  C   UNL     1       0.807   9.437  20.395  0.00  0.00    +0.000 A 
BRANCH  24  27
ATOM     27  O   UNL     1       2.871   6.408  19.910  0.00  0.00    +0.000 OA
BRANCH  27  28
ATOM     28  C   UNL     1       2.758   5.391  18.969  0.00  0.00    +0.000 A 
ATOM     29  C   UNL     1       1.629   4.560  18.911  0.00  0.00    +0.000 A 
ATOM     30  C   UNL     1       1.510   3.598  17.917  0.00  0.00    +0.000 A 
ATOM     31  C   UNL     1       2.578   3.363  17.058  0.00  0.00    +0.000 A 
ATOM     32  C   UNL     1       3.777   4.077  17.193  0.00  0.00    +0.000 A 
ATOM     33  C   UNL     1       4.900   3.710  16.436  0.00  0.00    +0.000 A 
ATOM     34  C   UNL     1       6.098   4.409  16.553  0.00  0.00    +0.000 A 
ATOM     35  C   UNL     1       6.166   5.530  17.373  0.00  0.00    +0.000 A 
ATOM     36  C   UNL     1       5.059   5.903  18.139  0.00  0.00    +0.000 A 
ATOM     37  C   UNL     1       3.863   5.151  18.114  0.00  0.00    +0.000 A 
ENDBRANCH  27  28
ENDBRANCH  24  27
ENDBRANCH  20  21
ENDBRANCH   4  20
TORSDOF 7
ENDMDL
MODEL 4
REMARK VINA RESULT:      -9.6      1.875      3.110
REMARK  Name = 
REMARK  8 active torsions:
REMARK  status: ('A' for Active; 'I' for Inactive)
REMARK    1  A    between atoms: C_1  and  C_2
REMARK    2  A    between atoms: N_4  and  C_5
REMARK    3  A    between atoms: C_5  and  C_6
REMARK    4  A    between atoms: C_9  and  O_10
REMARK    5  A    between atoms: O_10  and  C_11
REMARK    6  A    between atoms: C_25  and  C_26
REMARK    7  A    between atoms: C_32  and  C_33
REMARK    8  A    between atoms: C_33  and  O_35
REMARK                            x       y       z     vdW  Elec       q    Type
REMARK                         _______ _______ _______ _____ _____    ______ ____
ROOT
ATOM      1  C   UNL     1      -2.364   9.688  16.068  0.00  0.00    +0.000 C 
ATOM      2  C   UNL     1      -1.821  10.202  17.352  0.00  0.00    +0.000 A 
ATOM      3  N   UNL     1      -0.560   9.885  17.687  0.00  0.00    +0.000 NA
ATOM      4  N   UNL     1      -0.373  10.504  18.874  0.00  0.00    +0.000 N 
ATOM      5  C   UNL     1      -1.475  11.173  19.323  0.00  0.00    +0.000 A 
ATOM      6  N   UNL     1      -1.587  11.834  20.496  0.00  0.00    +0.000 NA
ATOM      7  C   UNL     1      -2.812  12.362  20.714  0.00  0.00    +0.000 A 
ATOM      8  C   UNL     1      -3.868  12.296  19.811  0.00  0.00    +0.000 A 
ATOM      9  C   UNL     1      -3.696  11.627  18.589  0.00  0.00    +0.000 A 
ATOM     10  C   UNL     1      -2.454  11.010  18.345  0.00  0.00    +0.000 A 
ENDROOT
BRANCH   7  11
ATOM     11  C   UNL     1      -2.986  12.968  22.031  0.00  0.00    +0.000 A 
ATOM     12  C   UNL     1      -2.638  14.184  22.587  0.00  0.00    +0.000 A 
ATOM     13  C   UNL     1      -3.020  14.134  23.951  0.00  0.00    +0.000 A 
ATOM     14  C   UNL     1      -3.595  12.900  24.141  0.00  0.00    +0.000 A 
ATOM     15  O   UNL     1      -3.589  12.191  22.984  0.00  0.00    +0.000 OA
ENDBRANCH   7  11
BRANCH   9  16
ATOM     16  C   UNL     1      -4.832  11.483  17.657  0.00  0.00    +0.000 C 
ATOM     17  O   UNL     1      -4.847  11.963  16.539  0.00  0.00    +0.000 OA
BRANCH  16  18
ATOM     18  O   UNL     1      -5.861  10.759  18.149  0.00  0.00    +0.000 OA
ATOM     19  H   UNL     1      -6.647  10.674  17.580  0.00  0.00    +0.000 HD
ENDBRANCH  16  18
ENDBRANCH   9  16
BRANCH   4  20
ATOM     20  C   UNL     1       0.895  10.368  19.573  0.00  0.00    +0.000 C 
BRANCH  20  21
ATOM     21  C   UNL     1       1.566   9.059  19.238  0.00  0.00    +0.000 A 
ATOM     22  C   UNL     1       1.591   7.999  20.157  0.00  0.00    +0.000 A 
ATOM     23  C   UNL     1       2.213   6.784  19.824  0.00  0.00    +0.000 A 
ATOM     24  C   UNL     1       2.817   6.636  18.575  0.00  0.00    +0.000 A 
ATOM     25  C   UNL     1       2.864   7.716  17.690  0.00  0.00    +0.000 A 
ATOM     26  C   UNL     1       2.215   8.909  18.006  0.00  0.00    +0.000 A 
BRANCH  24  27
ATOM     27  O   UNL     1       3.376   5.410  18.284  0.00  0.00    +0.000 OA
BRANCH  27  28
ATOM     28  C   UNL     1       4.760   5.302  18.240  0.00  0.00    +0.000 A 
ATOM     29  C   UNL     1       5.561   5.614  19.349  0.00  0.00    +0.000 A 
ATOM     30  C   UNL     1       6.937   5.431  19.302  0.00  0.00    +0.000 A 
ATOM     31  C   UNL     1       7.540   5.067  18.103  0.00  0.00    +0.000 A 
ATOM     32  C   UNL     1       6.776   4.897  16.939  0.00  0.00    +0.000 A 
ATOM     33  C   UNL     1       7.414   4.703  15.705  0.00  0.00    +0.000 A 
ATOM     34  C   UNL     1       6.674   4.528  14.539  0.00  0.00    +0.000 A 
ATOM     35  C   UNL     1       5.286   4.471  14.605  0.00  0.00    +0.000 A 
ATOM     36  C   UNL     1       4.636   4.672  15.825  0.00  0.00    +0.000 A 
ATOM     37  C   UNL     1       5.361   4.950  17.005  0.00  0.00    +0.000 A 
ENDBRANCH  27  28
ENDBRANCH  24  27
ENDBRANCH  20  21
ENDBRANCH   4  20
TORSDOF 7
ENDMDL
MODEL 5
REMARK VINA RESULT:      -9.6      1.061      2.325
REMARK  Name = 
REMARK  8 active torsions:
REMARK  status: ('A' for Active; 'I' for Inactive)
REMARK    1  A    between atoms: C_1  and  C_2
REMARK    2  A    between atoms: N_4  and  C_5
REMARK    3  A    between atoms: C_5  and  C_6
REMARK    4  A    between atoms: C_9  and  O_10
REMARK    5  A    between atoms: O_10  and  C_11
REMARK    6  A    between atoms: C_25  and  C_26
REMARK    7  A    between atoms: C_32  and  C_33
REMARK    8  A    between atoms: C_33  and  O_35
REMARK                            x       y       z     vdW  Elec       q    Type
REMARK                         _______ _______ _______ _____ _____    ______ ____
ROOT
ATOM      1  C   UNL     1      -3.337   9.938  16.181  0.00  0.00    +0.000 C 
ATOM      2  C   UNL     1      -2.657  10.630  17.307  0.00  0.00    +0.000 A 
ATOM      3  N   UNL     1      -1.319  10.547  17.396  0.00  0.00    +0.000 NA
ATOM      4  N   UNL     1      -1.021  11.277  18.493  0.00  0.00    +0.000 N 
ATOM      5  C   UNL     1      -2.116  11.791  19.125  0.00  0.00    +0.000 A 
ATOM      6  N   UNL     1      -2.116  12.514  20.266  0.00  0.00    +0.000 NA
ATOM      7  C   UNL     1      -3.349  12.853  20.702  0.00  0.00    +0.000 A 
ATOM      8  C   UNL     1      -4.530  12.548  20.033  0.00  0.00    +0.000 A 
ATOM      9  C   UNL     1      -4.480  11.824  18.832  0.00  0.00    +0.000 A 
ATOM     10  C   UNL     1      -3.220  11.398  18.370  0.00  0.00    +0.000 A 
ENDROOT
BRANCH   7  11
ATOM     11  C   UNL     1      -3.372  13.522  22.000  0.00  0.00    +0.000 A 
ATOM     12  C   UNL     1      -3.017  13.151  23.283  0.00  0.00    +0.000 A 
ATOM     13  C   UNL     1      -3.361  14.234  24.130  0.00  0.00    +0.000 A 
ATOM     14  C   UNL     1      -3.885  15.207  23.313  0.00  0.00    +0.000 A 
ATOM     15  O   UNL     1      -3.887  14.791  22.022  0.00  0.00    +0.000 OA
ENDBRANCH   7  11
BRANCH   9  16
ATOM     16  C   UNL     1      -5.731  11.428  18.153  0.00  0.00    +0.000 C 
ATOM     17  O   UNL     1      -6.199  12.031  17.206  0.00  0.00    +0.000 OA
BRANCH  16  18
ATOM     18  O   UNL     1      -6.313  10.325  18.670  0.00  0.00    +0.000 OA
ATOM     19  H   UNL     1      -5.984  10.021  19.534  0.00  0.00    +0.000 HD
ENDBRANCH  16  18
ENDBRANCH   9  16
BRANCH   4  20
ATOM     20  C   UNL     1       0.361  11.401  18.930  0.00  0.00    +0.000 C 
BRANCH  20  21
ATOM     21  C   UNL     1       0.963  10.050  19.228  0.00  0.00    +0.000 A 
ATOM     22  C   UNL     1       0.871   9.480  20.508  0.00  0.00    +0.000 A 
ATOM     23  C   UNL     1       1.430   8.218  20.765  0.00  0.00    +0.000 A 
ATOM     24  C   UNL     1       2.088   7.532  19.744  0.00  0.00    +0.000 A 
ATOM     25  C   UNL     1       2.252   8.131  18.493  0.00  0.00    +0.000 A 
ATOM     26  C   UNL     1       1.666   9.368  18.227  0.00  0.00    +0.000 A 
BRANCH  24  27
ATOM     27  O   UNL     1       2.581   6.279  20.041  0.00  0.00    +0.000 OA
BRANCH  27  28
ATOM     28  C   UNL     1       2.562   5.304  19.050  0.00  0.00    +0.000 A 
ATOM     29  C   UNL     1       1.450   4.472  18.855  0.00  0.00    +0.000 A 
ATOM     30  C   UNL     1       1.429   3.553  17.813  0.00  0.00    +0.000 A 
ATOM     31  C   UNL     1       2.571   3.361  17.044  0.00  0.00    +0.000 A 
ATOM     32  C   UNL     1       3.747   4.073  17.318  0.00  0.00    +0.000 A 
ATOM     33  C   UNL     1       4.937   3.744  16.651  0.00  0.00    +0.000 A 
ATOM     34  C   UNL     1       6.114   4.443  16.906  0.00  0.00    +0.000 A 
ATOM     35  C   UNL     1       6.099   5.527  17.776  0.00  0.00    +0.000 A 
ATOM     36  C   UNL     1       4.924   5.861  18.455  0.00  0.00    +0.000 A 
ATOM     37  C   UNL     1       3.741   5.106  18.289  0.00  0.00    +0.000 A 
ENDBRANCH  27  28
ENDBRANCH  24  27
ENDBRANCH  20  21
ENDBRANCH   4  20
TORSDOF 7
ENDMDL
MODEL 6
REMARK VINA RESULT:      -9.5      2.015      3.082
REMARK  Name = 
REMARK  8 active torsions:
REMARK  status: ('A' for Active; 'I' for Inactive)
REMARK    1  A    between atoms: C_1  and  C_2
REMARK    2  A    between atoms: N_4  and  C_5
REMARK    3  A    between atoms: C_5  and  C_6
REMARK    4  A    between atoms: C_9  and  O_10
REMARK    5  A    between atoms: O_10  and  C_11
REMARK    6  A    between atoms: C_25  and  C_26
REMARK    7  A    between atoms: C_32  and  C_33
REMARK    8  A    between atoms: C_33  and  O_35
REMARK                            x       y       z     vdW  Elec       q    Type
REMARK                         _______ _______ _______ _____ _____    ______ ____
ROOT
ATOM      1  C   UNL     1      -2.533   9.502  16.378  0.00  0.00    +0.000 C 
ATOM      2  C   UNL     1      -1.820  10.142  17.515  0.00  0.00    +0.000 A 
ATOM      3  N   UNL     1      -0.544   9.793  17.747  0.00  0.00    +0.000 NA
ATOM      4  N   UNL     1      -0.191  10.546  18.813  0.00  0.00    +0.000 N 
ATOM      5  C   UNL     1      -1.201  11.333  19.288  0.00  0.00    +0.000 A 
ATOM      6  N   UNL     1      -1.144  12.145  20.366  0.00  0.00    +0.000 NA
ATOM      7  C   UNL     1      -2.308  12.770  20.645  0.00  0.00    +0.000 A 
ATOM      8  C   UNL     1      -3.465  12.653  19.881  0.00  0.00    +0.000 A 
ATOM      9  C   UNL     1      -3.469  11.825  18.749  0.00  0.00    +0.000 A 
ATOM     10  C   UNL     1      -2.294  11.107  18.454  0.00  0.00    +0.000 A 
ENDROOT
BRANCH   7  11
ATOM     11  C   UNL     1      -2.299  13.549  21.880  0.00  0.00    +0.000 A 
ATOM     12  C   UNL     1      -2.946  14.693  22.304  0.00  0.00    +0.000 A 
ATOM     13  C   UNL     1      -2.442  14.994  23.594  0.00  0.00    +0.000 A 
ATOM     14  C   UNL     1      -1.533  14.006  23.888  0.00  0.00    +0.000 A 
ATOM     15  O   UNL     1      -1.446  13.121  22.863  0.00  0.00    +0.000 OA
ENDBRANCH   7  11
BRANCH   9  16
ATOM     16  C   UNL     1      -4.713  11.633  17.976  0.00  0.00    +0.000 C 
ATOM     17  O   UNL     1      -5.630  10.926  18.347  0.00  0.00    +0.000 OA
BRANCH  16  18
ATOM     18  O   UNL     1      -4.753  12.322  16.815  0.00  0.00    +0.000 OA
ATOM     19  H   UNL     1      -5.629  12.446  16.410  0.00  0.00    +0.000 HD
ENDBRANCH  16  18
ENDBRANCH   9  16
BRANCH   4  20
ATOM     20  C   UNL     1       1.143  10.424  19.380  0.00  0.00    +0.000 C 
BRANCH  20  21
ATOM     21  C   UNL     1       1.731   9.062  19.103  0.00  0.00    +0.000 A 
ATOM     22  C   UNL     1       2.351   8.774  17.877  0.00  0.00    +0.000 A 
ATOM     23  C   UNL     1       2.901   7.504  17.641  0.00  0.00    +0.000 A 
ATOM     24  C   UNL     1       2.820   6.521  18.627  0.00  0.00    +0.000 A 
ATOM     25  C   UNL     1       2.133   6.779  19.815  0.00  0.00    +0.000 A 
ATOM     26  C   UNL     1       1.620   8.051  20.065  0.00  0.00    +0.000 A 
BRANCH  24  27
ATOM     27  O   UNL     1       3.413   5.305  18.358  0.00  0.00    +0.000 OA
BRANCH  27  28
ATOM     28  C   UNL     1       4.799   5.243  18.278  0.00  0.00    +0.000 A 
ATOM     29  C   UNL     1       5.619   5.615  19.354  0.00  0.00    +0.000 A 
ATOM     30  C   UNL     1       6.999   5.477  19.272  0.00  0.00    +0.000 A 
ATOM     31  C   UNL     1       7.580   5.097  18.067  0.00  0.00    +0.000 A 
ATOM     32  C   UNL     1       6.791   4.867  16.932  0.00  0.00    +0.000 A 
ATOM     33  C   UNL     1       7.401   4.656  15.686  0.00  0.00    +0.000 A 
ATOM     34  C   UNL     1       6.635   4.421  14.548  0.00  0.00    +0.000 A 
ATOM     35  C   UNL     1       5.252   4.320  14.655  0.00  0.00    +0.000 A 
ATOM     36  C   UNL     1       4.629   4.536  15.887  0.00  0.00    +0.000 A 
ATOM     37  C   UNL     1       5.377   4.874  17.037  0.00  0.00    +0.000 A 
ENDBRANCH  27  28
ENDBRANCH  24  27
ENDBRANCH  20  21
ENDBRANCH   4  20
TORSDOF 7
ENDMDL
MODEL 7
REMARK VINA RESULT:      -9.3      3.271     10.697
REMARK  Name = 
REMARK  8 active torsions:
REMARK  status: ('A' for Active; 'I' for Inactive)
REMARK    1  A    between atoms: C_1  and  C_2
REMARK    2  A    between atoms: N_4  and  C_5
REMARK    3  A    between atoms: C_5  and  C_6
REMARK    4  A    between atoms: C_9  and  O_10
REMARK    5  A    between atoms: O_10  and  C_11
REMARK    6  A    between atoms: C_25  and  C_26
REMARK    7  A    between atoms: C_32  and  C_33
REMARK    8  A    between atoms: C_33  and  O_35
REMARK                            x       y       z     vdW  Elec       q    Type
REMARK                         _______ _______ _______ _____ _____    ______ ____
ROOT
ATOM      1  C   UNL     1       1.952   5.386  20.791  0.00  0.00    +0.000 C 
ATOM      2  C   UNL     1       2.598   5.931  19.567  0.00  0.00    +0.000 A 
ATOM      3  N   UNL     1       2.350   7.206  19.227  0.00  0.00    +0.000 NA
ATOM      4  N   UNL     1       3.080   7.390  18.105  0.00  0.00    +0.000 N 
ATOM      5  C   UNL     1       3.754   6.275  17.699  0.00  0.00    +0.000 A 
ATOM      6  N   UNL     1       4.516   6.159  16.590  0.00  0.00    +0.000 NA
ATOM      7  C   UNL     1       5.025   4.922  16.399  0.00  0.00    +0.000 A 
ATOM      8  C   UNL     1       4.845   3.855  17.274  0.00  0.00    +0.000 A 
ATOM      9  C   UNL     1       4.073   4.031  18.433  0.00  0.00    +0.000 A 
ATOM     10  C   UNL     1       3.473   5.287  18.642  0.00  0.00    +0.000 A 
ENDROOT
BRANCH   7  11
ATOM     11  C   UNL     1       5.743   4.748  15.140  0.00  0.00    +0.000 A 
ATOM     12  C   UNL     1       5.543   3.972  14.015  0.00  0.00    +0.000 A 
ATOM     13  C   UNL     1       6.653   4.196  13.162  0.00  0.00    +0.000 A 
ATOM     14  C   UNL     1       7.452   5.109  13.807  0.00  0.00    +0.000 A 
ATOM     15  O   UNL     1       6.907   5.457  15.000  0.00  0.00    +0.000 OA
ENDBRANCH   7  11
BRANCH   9  16
ATOM     16  C   UNL     1       3.810   2.885  19.328  0.00  0.00    +0.000 C 
ATOM     17  O   UNL     1       2.704   2.412  19.504  0.00  0.00    +0.000 OA
BRANCH  16  18
ATOM     18  O   UNL     1       4.914   2.395  19.934  0.00  0.00    +0.000 OA
ATOM     19  H   UNL     1       4.961   2.494  20.902  0.00  0.00    +0.000 HD
ENDBRANCH  16  18
ENDBRANCH   9  16
BRANCH   4  20
ATOM     20  C   UNL     1       3.047   8.672  17.418  0.00  0.00    +0.000 C 
BRANCH  20  21
ATOM     21  C   UNL     1       1.906   9.527  17.913  0.00  0.00    +0.000 A 
ATOM     22  C   UNL     1       0.572   9.127  17.742  0.00  0.00    +0.000 A 
ATOM     23  C   UNL     1      -0.477   9.932  18.216  0.00  0.00    +0.000 A 
ATOM     24  C   UNL     1      -0.189  11.139  18.853  0.00  0.00    +0.000 A 
ATOM     25  C   UNL     1       1.133  11.578  18.952  0.00  0.00    +0.000 A 
ATOM     26  C   UNL     1       2.176  10.762  18.514  0.00  0.00    +0.000 A 
BRANCH  24  27
ATOM     27  O   UNL     1      -1.255  11.869  19.336  0.00  0.00    +0.000 OA
BRANCH  27  28
ATOM     28  C   UNL     1      -1.537  11.815  20.696  0.00  0.00    +0.000 A 
ATOM     29  C   UNL     1      -0.784  11.024  21.576  0.00  0.00    +0.000 A 
ATOM     30  C   UNL     1      -1.043  11.042  22.941  0.00  0.00    +0.000 A 
ATOM     31  C   UNL     1      -2.144  11.742  23.421  0.00  0.00    +0.000 A 
ATOM     32  C   UNL     1      -3.003  12.417  22.542  0.00  0.00    +0.000 A 
ATOM     33  C   UNL     1      -4.200  12.970  23.021  0.00  0.00    +0.000 A 
ATOM     34  C   UNL     1      -5.064  13.648  22.165  0.00  0.00    +0.000 A 
ATOM     35  C   UNL     1      -4.706  13.846  20.836  0.00  0.00    +0.000 A 
ATOM     36  C   UNL     1      -3.521  13.294  20.343  0.00  0.00    +0.000 A 
ATOM     37  C   UNL     1      -2.675  12.518  21.167  0.00  0.00    +0.000 A 
ENDBRANCH  27  28
ENDBRANCH  24  27
ENDBRANCH  20  21
ENDBRANCH   4  20
TORSDOF 7
ENDMDL
MODEL 8
REMARK VINA RESULT:      -9.3      0.873      1.828
REMARK  Name = 
REMARK  8 active torsions:
REMARK  status: ('A' for Active; 'I' for Inactive)
REMARK    1  A    between atoms: C_1  and  C_2
REMARK    2  A    between atoms: N_4  and  C_5
REMARK    3  A    between atoms: C_5  and  C_6
REMARK    4  A    between atoms: C_9  and  O_10
REMARK    5  A    between atoms: O_10  and  C_11
REMARK    6  A    between atoms: C_25  and  C_26
REMARK    7  A    between atoms: C_32  and  C_33
REMARK    8  A    between atoms: C_33  and  O_35
REMARK                            x       y       z     vdW  Elec       q    Type
REMARK                         _______ _______ _______ _____ _____    ______ ____
ROOT
ATOM      1  C   UNL     1      -3.494   9.594  16.510  0.00  0.00    +0.000 C 
ATOM      2  C   UNL     1      -2.927  10.474  17.565  0.00  0.00    +0.000 A 
ATOM      3  N   UNL     1      -1.604  10.434  17.790  0.00  0.00    +0.000 NA
ATOM      4  N   UNL     1      -1.415  11.339  18.776  0.00  0.00    +0.000 N 
ATOM      5  C   UNL     1      -2.568  11.927  19.211  0.00  0.00    +0.000 A 
ATOM      6  N   UNL     1      -2.680  12.825  20.213  0.00  0.00    +0.000 NA
ATOM      7  C   UNL     1      -3.951  13.204  20.471  0.00  0.00    +0.000 A 
ATOM      8  C   UNL     1      -5.061  12.770  19.754  0.00  0.00    +0.000 A 
ATOM      9  C   UNL     1      -4.893  11.862  18.698  0.00  0.00    +0.000 A 
ATOM     10  C   UNL     1      -3.593  11.393  18.431  0.00  0.00    +0.000 A 
ENDROOT
BRANCH   7  11
ATOM     11  C   UNL     1      -4.101  14.075  21.634  0.00  0.00    +0.000 A 
ATOM     12  C   UNL     1      -3.627  15.329  21.967  0.00  0.00    +0.000 A 
ATOM     13  C   UNL     1      -4.066  15.593  23.289  0.00  0.00    +0.000 A 
ATOM     14  C   UNL     1      -4.796  14.495  23.675  0.00  0.00    +0.000 A 
ATOM     15  O   UNL     1      -4.832  13.575  22.678  0.00  0.00    +0.000 OA
ENDBRANCH   7  11
BRANCH   9  16
ATOM     16  C   UNL     1      -6.072  11.334  17.981  0.00  0.00    +0.000 C 
ATOM     17  O   UNL     1      -6.736  10.396  18.380  0.00  0.00    +0.000 OA
BRANCH  16  18
ATOM     18  O   UNL     1      -6.362  11.992  16.837  0.00  0.00    +0.000 OA
ATOM     19  H   UNL     1      -6.096  12.927  16.791  0.00  0.00    +0.000 HD
ENDBRANCH  16  18
ENDBRANCH   9  16
BRANCH   4  20
ATOM     20  C   UNL     1      -0.081  11.562  19.312  0.00  0.00    +0.000 C 
BRANCH  20  21
ATOM     21  C   UNL     1       0.709  10.278  19.361  0.00  0.00    +0.000 A 
ATOM     22  C   UNL     1       1.422   9.820  18.242  0.00  0.00    +0.000 A 
ATOM     23  C   UNL     1       2.160   8.627  18.309  0.00  0.00    +0.000 A 
ATOM     24  C   UNL     1       2.175   7.889  19.493  0.00  0.00    +0.000 A 
ATOM     25  C   UNL     1       1.401   8.299  20.582  0.00  0.00    +0.000 A 
ATOM     26  C   UNL     1       0.699   9.502  20.527  0.00  0.00    +0.000 A 
BRANCH  24  27
ATOM     27  O   UNL     1       2.949   6.747  19.517  0.00  0.00    +0.000 OA
BRANCH  27  28
ATOM     28  C   UNL     1       2.313   5.511  19.524  0.00  0.00    +0.000 A 
ATOM     29  C   UNL     1       1.347   5.184  20.488  0.00  0.00    +0.000 A 
ATOM     30  C   UNL     1       0.676   3.969  20.431  0.00  0.00    +0.000 A 
ATOM     31  C   UNL     1       1.062   3.015  19.497  0.00  0.00    +0.000 A 
ATOM     32  C   UNL     1       2.129   3.260  18.621  0.00  0.00    +0.000 A 
ATOM     33  C   UNL     1       2.618   2.227  17.806  0.00  0.00    +0.000 A 
ATOM     34  C   UNL     1       3.673   2.452  16.927  0.00  0.00    +0.000 A 
ATOM     35  C   UNL     1       4.204   3.731  16.798  0.00  0.00    +0.000 A 
ATOM     36  C   UNL     1       3.734   4.767  17.608  0.00  0.00    +0.000 A 
ATOM     37  C   UNL     1       2.732   4.542  18.579  0.00  0.00    +0.000 A 
ENDBRANCH  27  28
ENDBRANCH  24  27
ENDBRANCH  20  21
ENDBRANCH   4  20
TORSDOF 7
ENDMDL
MODEL 9
REMARK VINA RESULT:      -9.3      2.170      4.402
REMARK  Name = 
REMARK  8 active torsions:
REMARK  status: ('A' for Active; 'I' for Inactive)
REMARK    1  A    between atoms: C_1  and  C_2
REMARK    2  A    between atoms: N_4  and  C_5
REMARK    3  A    between atoms: C_5  and  C_6
REMARK    4  A    between atoms: C_9  and  O_10
REMARK    5  A    between atoms: O_10  and  C_11
REMARK    6  A    between atoms: C_25  and  C_26
REMARK    7  A    between atoms: C_32  and  C_33
REMARK    8  A    between atoms: C_33  and  O_35
REMARK                            x       y       z     vdW  Elec       q    Type
REMARK                         _______ _______ _______ _____ _____    ______ ____
ROOT
ATOM      1  C   UNL     1       1.882  14.455  21.567  0.00  0.00    +0.000 C 
ATOM      2  C   UNL     1       0.749  13.645  21.046  0.00  0.00    +0.000 A 
ATOM      3  N   UNL     1       0.988  12.778  20.049  0.00  0.00    +0.000 NA
ATOM      4  N   UNL     1      -0.215  12.205  19.822  0.00  0.00    +0.000 N 
ATOM      5  C   UNL     1      -1.215  12.697  20.611  0.00  0.00    +0.000 A 
ATOM      6  N   UNL     1      -2.518  12.344  20.565  0.00  0.00    +0.000 NA
ATOM      7  C   UNL     1      -3.303  13.031  21.424  0.00  0.00    +0.000 A 
ATOM      8  C   UNL     1      -2.837  13.982  22.325  0.00  0.00    +0.000 A 
ATOM      9  C   UNL     1      -1.470  14.292  22.362  0.00  0.00    +0.000 A 
ATOM     10  C   UNL     1      -0.622  13.645  21.443  0.00  0.00    +0.000 A 
ENDROOT
BRANCH   7  11
ATOM     11  C   UNL     1      -4.731  12.753  21.295  0.00  0.00    +0.000 A 
ATOM     12  C   UNL     1      -5.820  12.893  22.134  0.00  0.00    +0.000 A 
ATOM     13  C   UNL     1      -6.938  12.361  21.443  0.00  0.00    +0.000 A 
ATOM     14  C   UNL     1      -6.469  11.948  20.220  0.00  0.00    +0.000 A 
ATOM     15  O   UNL     1      -5.138  12.189  20.116  0.00  0.00    +0.000 OA
ENDBRANCH   7  11
BRANCH   9  16
ATOM     16  C   UNL     1      -0.975  15.355  23.261  0.00  0.00    +0.000 C 
ATOM     17  O   UNL     1      -0.546  15.142  24.378  0.00  0.00    +0.000 OA
BRANCH  16  18
ATOM     18  O   UNL     1      -1.030  16.596  22.730  0.00  0.00    +0.000 OA
ATOM     19  H   UNL     1      -0.294  17.196  22.944  0.00  0.00    +0.000 HD
ENDBRANCH  16  18
ENDBRANCH   9  16
BRANCH   4  20
ATOM     20  C   UNL     1      -0.359  11.207  18.774  0.00  0.00    +0.000 C 
BRANCH  20  21
ATOM     21  C   UNL     1       0.515  10.007  19.039  0.00  0.00    +0.000 A 
ATOM     22  C   UNL     1       0.621   9.454  20.325  0.00  0.00    +0.000 A 
ATOM     23  C   UNL     1       1.433   8.331  20.551  0.00  0.00    +0.000 A 
ATOM     24  C   UNL     1       2.145   7.768  19.492  0.00  0.00    +0.000 A 
ATOM     25  C   UNL     1       2.105   8.364  18.229  0.00  0.00    +0.000 A 
ATOM     26  C   UNL     1       1.271   9.456  17.996  0.00  0.00    +0.000 A 
BRANCH  24  27
ATOM     27  O   UNL     1       2.894   6.641  19.761  0.00  0.00    +0.000 OA
BRANCH  27  28
ATOM     28  C   UNL     1       2.791   5.552  18.904  0.00  0.00    +0.000 A 
ATOM     29  C   UNL     1       1.712   4.658  18.972  0.00  0.00    +0.000 A 
ATOM     30  C   UNL     1       1.598   3.618  18.058  0.00  0.00    +0.000 A 
ATOM     31  C   UNL     1       2.629   3.380  17.157  0.00  0.00    +0.000 A 
ATOM     32  C   UNL     1       3.789   4.168  17.170  0.00  0.00    +0.000 A 
ATOM     33  C   UNL     1       4.888   3.808  16.377  0.00  0.00    +0.000 A 
ATOM     34  C   UNL     1       6.047   4.580  16.373  0.00  0.00    +0.000 A 
ATOM     35  C   UNL     1       6.093   5.761  17.105  0.00  0.00    +0.000 A 
ATOM     36  C   UNL     1       5.009   6.128  17.906  0.00  0.00    +0.000 A 
ATOM     37  C   UNL     1       3.860   5.311  18.005  0.00  0.00    +0.000 A 
ENDBRANCH  27  28
ENDBRANCH  24  27
ENDBRANCH  20  21
ENDBRANCH   4  20
TORSDOF 7
ENDMDL
