MODEL 1
REMARK VINA RESULT:      -7.0      0.000      0.000
REMARK  Name = 
REMARK  14 active torsions:
REMARK  status: ('A' for Active; 'I' for Inactive)
REMARK    1  A    between atoms: C_1  and  O_2
REMARK    2  A    between atoms: O_2  and  C_3
REMARK    3  A    between atoms: C_6  and  N_7
REMARK    4  A    between atoms: N_7  and  C_8
REMARK    5  A    between atoms: N_7  and  C_9
REMARK    6  A    between atoms: C_9  and  C_10
REMARK    7  A    between atoms: C_10  and  C_11
REMARK    8  A    between atoms: C_11  and  N_12
REMARK    9  A    between atoms: C_17  and  O_18
REMARK   10  A    between atoms: O_18  and  C_19
REMARK   11  A    between atoms: C_20  and  O_21
REMARK   12  A    between atoms: O_21  and  C_22
REMARK   13  A    between atoms: C_29  and  O_30
REMARK   14  A    between atoms: O_30  and  C_31
REMARK                            x       y       z     vdW  Elec       q    Type
REMARK                         _______ _______ _______ _____ _____    ______ ____
ROOT
ATOM      1  N   UNL     1       1.873   5.339  19.008  0.00  0.00    +0.000 N 
ATOM      2  C   UNL     1       1.539   6.281  17.955  0.00  0.00    +0.000 C 
ATOM      3  C   UNL     1       2.514   7.458  17.990  0.00  0.00    +0.000 C 
ATOM      4  C   UNL     1       1.973   8.578  18.836  0.00  0.00    +0.000 A 
ATOM      5  C   UNL     1       2.062   9.872  18.295  0.00  0.00    +0.000 A 
ATOM      6  C   UNL     1       1.422  10.958  18.893  0.00  0.00    +0.000 A 
ATOM      7  C   UNL     1       0.728  10.774  20.095  0.00  0.00    +0.000 A 
ATOM      8  C   UNL     1       0.716   9.498  20.686  0.00  0.00    +0.000 A 
ATOM      9  C   UNL     1       1.347   8.381  20.072  0.00  0.00    +0.000 A 
ATOM     10  C   UNL     1       1.242   7.038  20.779  0.00  0.00    +0.000 C 
ATOM     11  C   UNL     1       1.990   5.775  20.328  0.00  0.00    +0.000 C 
ATOM     12  O   UNL     1       2.540   5.064  21.176  0.00  0.00    +0.000 OA
ENDROOT
BRANCH   6  13
ATOM     13  O   UNL     1       1.423  12.222  18.353  0.00  0.00    +0.000 OA
ATOM     14  C   UNL     1       2.699  12.804  18.117  0.00  0.00    +0.000 C 
ENDBRANCH   6  13
BRANCH   7  15
ATOM     15  O   UNL     1       0.102  11.891  20.581  0.00  0.00    +0.000 OA
ATOM     16  C   UNL     1      -1.310  11.899  20.703  0.00  0.00    +0.000 C 
ENDBRANCH   7  15
BRANCH   1  17
ATOM     17  C   UNL     1       1.687   3.900  18.767  0.00  0.00    +0.000 C 
BRANCH  17  18
ATOM     18  C   UNL     1       2.248   3.304  17.466  0.00  0.00    +0.000 C 
BRANCH  18  19
ATOM     19  C   UNL     1       3.435   2.365  17.695  0.00  0.00    +0.000 C 
BRANCH  19  20
ATOM     20  N   UNL     1       4.483   3.010  18.520  0.00  0.00    +0.000 N 
ATOM     21  C   UNL     1       4.564   2.534  19.897  0.00  0.00    +0.000 C 
BRANCH  20  25
ATOM     22  C   UNL     1       6.858   6.284  17.152  0.00  0.00    +0.000 A 
ATOM     23  C   UNL     1       6.222   6.327  18.395  0.00  0.00    +0.000 A 
ATOM     24  C   UNL     1       5.426   5.257  18.839  0.00  0.00    +0.000 A 
ATOM     25  C   UNL     1       5.204   4.110  18.065  0.00  0.00    +0.000 A 
ATOM     26  C   UNL     1       5.785   4.144  16.786  0.00  0.00    +0.000 A 
ATOM     27  C   UNL     1       6.594   5.197  16.313  0.00  0.00    +0.000 A 
BRANCH  22  29
ATOM     28  C   UNL     1       7.956   8.298  17.719  0.00  0.00    +0.000 C 
ATOM     29  O   UNL     1       7.686   7.290  16.744  0.00  0.00    +0.000 OA
ENDBRANCH  22  29
BRANCH  27  30
ATOM     30  O   UNL     1       7.032   4.969  15.037  0.00  0.00    +0.000 OA
ATOM     31  C   UNL     1       6.294   4.091  14.201  0.00  0.00    +0.000 C 
ENDBRANCH  27  30
ENDBRANCH  20  25
ENDBRANCH  19  20
ENDBRANCH  18  19
ENDBRANCH  17  18
ENDBRANCH   1  17
TORSDOF 9
ENDMDL
MODEL 2
REMARK VINA RESULT:      -6.7      2.110      4.288
REMARK  Name = 
REMARK  14 active torsions:
REMARK  status: ('A' for Active; 'I' for Inactive)
REMARK    1  A    between atoms: C_1  and  O_2
REMARK    2  A    between atoms: O_2  and  C_3
REMARK    3  A    between atoms: C_6  and  N_7
REMARK    4  A    between atoms: N_7  and  C_8
REMARK    5  A    between atoms: N_7  and  C_9
REMARK    6  A    between atoms: C_9  and  C_10
REMARK    7  A    between atoms: C_10  and  C_11
REMARK    8  A    between atoms: C_11  and  N_12
REMARK    9  A    between atoms: C_17  and  O_18
REMARK   10  A    between atoms: O_18  and  C_19
REMARK   11  A    between atoms: C_20  and  O_21
REMARK   12  A    between atoms: O_21  and  C_22
REMARK   13  A    between atoms: C_29  and  O_30
REMARK   14  A    between atoms: O_30  and  C_31
REMARK                            x       y       z     vdW  Elec       q    Type
REMARK                         _______ _______ _______ _____ _____    ______ ____
ROOT
ATOM      1  N   UNL     1       1.326   8.922  19.820  0.00  0.00    +0.000 N 
ATOM      2  C   UNL     1       1.184   9.189  21.241  0.00  0.00    +0.000 C 
ATOM      3  C   UNL     1      -0.235   9.673  21.534  0.00  0.00    +0.000 C 
ATOM      4  C   UNL     1      -0.310  11.175  21.488  0.00  0.00    +0.000 A 
ATOM      5  C   UNL     1      -1.000  11.802  22.541  0.00  0.00    +0.000 A 
ATOM      6  C   UNL     1      -0.967  13.186  22.712  0.00  0.00    +0.000 A 
ATOM      7  C   UNL     1      -0.289  13.981  21.780  0.00  0.00    +0.000 A 
ATOM      8  C   UNL     1       0.324  13.363  20.676  0.00  0.00    +0.000 A 
ATOM      9  C   UNL     1       0.314  11.951  20.506  0.00  0.00    +0.000 A 
ATOM     10  C   UNL     1       1.039  11.385  19.293  0.00  0.00    +0.000 C 
ATOM     11  C   UNL     1       0.994   9.905  18.887  0.00  0.00    +0.000 C 
ATOM     12  O   UNL     1       0.838   9.609  17.697  0.00  0.00    +0.000 OA
ENDROOT
BRANCH   6  13
ATOM     13  O   UNL     1      -1.565  13.827  23.771  0.00  0.00    +0.000 OA
ATOM     14  C   UNL     1      -2.980  13.713  23.857  0.00  0.00    +0.000 C 
ENDBRANCH   6  13
BRANCH   7  15
ATOM     15  O   UNL     1      -0.282  15.322  22.058  0.00  0.00    +0.000 OA
ATOM     16  C   UNL     1       0.887  16.079  21.800  0.00  0.00    +0.000 C 
ENDBRANCH   7  15
BRANCH   1  17
ATOM     17  C   UNL     1       2.182   7.810  19.382  0.00  0.00    +0.000 C 
BRANCH  17  18
ATOM     18  C   UNL     1       1.964   6.430  20.025  0.00  0.00    +0.000 C 
BRANCH  18  19
ATOM     19  C   UNL     1       3.085   5.436  19.715  0.00  0.00    +0.000 C 
BRANCH  19  20
ATOM     20  N   UNL     1       3.067   5.029  18.290  0.00  0.00    +0.000 N 
ATOM     21  C   UNL     1       1.810   4.447  17.831  0.00  0.00    +0.000 C 
BRANCH  20  25
ATOM     22  C   UNL     1       6.506   5.149  15.762  0.00  0.00    +0.000 A 
ATOM     23  C   UNL     1       5.764   3.975  15.911  0.00  0.00    +0.000 A 
ATOM     24  C   UNL     1       4.642   3.929  16.757  0.00  0.00    +0.000 A 
ATOM     25  C   UNL     1       4.219   5.034  17.509  0.00  0.00    +0.000 A 
ATOM     26  C   UNL     1       5.044   6.166  17.402  0.00  0.00    +0.000 A 
ATOM     27  C   UNL     1       6.170   6.248  16.560  0.00  0.00    +0.000 A 
BRANCH  22  29
ATOM     28  C   UNL     1       7.281   4.785  13.560  0.00  0.00    +0.000 C 
ATOM     29  O   UNL     1       7.556   5.218  14.892  0.00  0.00    +0.000 OA
ENDBRANCH  22  29
BRANCH  27  30
ATOM     30  O   UNL     1       6.786   7.466  16.648  0.00  0.00    +0.000 OA
ATOM     31  C   UNL     1       7.754   7.678  17.665  0.00  0.00    +0.000 C 
ENDBRANCH  27  30
ENDBRANCH  20  25
ENDBRANCH  19  20
ENDBRANCH  18  19
ENDBRANCH  17  18
ENDBRANCH   1  17
TORSDOF 9
ENDMDL
MODEL 3
REMARK VINA RESULT:      -6.6      2.110      4.069
REMARK  Name = 
REMARK  14 active torsions:
REMARK  status: ('A' for Active; 'I' for Inactive)
REMARK    1  A    between atoms: C_1  and  O_2
REMARK    2  A    between atoms: O_2  and  C_3
REMARK    3  A    between atoms: C_6  and  N_7
REMARK    4  A    between atoms: N_7  and  C_8
REMARK    5  A    between atoms: N_7  and  C_9
REMARK    6  A    between atoms: C_9  and  C_10
REMARK    7  A    between atoms: C_10  and  C_11
REMARK    8  A    between atoms: C_11  and  N_12
REMARK    9  A    between atoms: C_17  and  O_18
REMARK   10  A    between atoms: O_18  and  C_19
REMARK   11  A    between atoms: C_20  and  O_21
REMARK   12  A    between atoms: O_21  and  C_22
REMARK   13  A    between atoms: C_29  and  O_30
REMARK   14  A    between atoms: O_30  and  C_31
REMARK                            x       y       z     vdW  Elec       q    Type
REMARK                         _______ _______ _______ _____ _____    ______ ____
ROOT
ATOM      1  N   UNL     1       1.372   8.471  19.991  0.00  0.00    +0.000 N 
ATOM      2  C   UNL     1       1.131   8.723  21.401  0.00  0.00    +0.000 C 
ATOM      3  C   UNL     1      -0.291   9.248  21.593  0.00  0.00    +0.000 C 
ATOM      4  C   UNL     1      -0.316  10.752  21.565  0.00  0.00    +0.000 A 
ATOM      5  C   UNL     1      -1.065  11.386  22.571  0.00  0.00    +0.000 A 
ATOM      6  C   UNL     1      -1.003  12.766  22.767  0.00  0.00    +0.000 A 
ATOM      7  C   UNL     1      -0.231  13.551  21.901  0.00  0.00    +0.000 A 
ATOM      8  C   UNL     1       0.444  12.929  20.837  0.00  0.00    +0.000 A 
ATOM      9  C   UNL     1       0.404  11.521  20.645  0.00  0.00    +0.000 A 
ATOM     10  C   UNL     1       1.202  10.948  19.482  0.00  0.00    +0.000 C 
ATOM     11  C   UNL     1       1.142   9.475  19.050  0.00  0.00    +0.000 C 
ATOM     12  O   UNL     1       1.069   9.201  17.847  0.00  0.00    +0.000 OA
ENDROOT
BRANCH   6  13
ATOM     13  O   UNL     1      -1.660  13.412  23.787  0.00  0.00    +0.000 OA
ATOM     14  C   UNL     1      -3.079  13.322  23.777  0.00  0.00    +0.000 C 
ENDBRANCH   6  13
BRANCH   7  15
ATOM     15  O   UNL     1      -0.205  14.888  22.199  0.00  0.00    +0.000 OA
ATOM     16  C   UNL     1       1.038  15.567  22.236  0.00  0.00    +0.000 C 
ENDBRANCH   7  15
BRANCH   1  17
ATOM     17  C   UNL     1       2.225   7.338  19.602  0.00  0.00    +0.000 C 
BRANCH  17  18
ATOM     18  C   UNL     1       2.168   6.060  20.455  0.00  0.00    +0.000 C 
BRANCH  18  19
ATOM     19  C   UNL     1       1.841   4.806  19.643  0.00  0.00    +0.000 C 
BRANCH  19  20
ATOM     20  N   UNL     1       3.053   3.989  19.397  0.00  0.00    +0.000 N 
ATOM     21  C   UNL     1       3.276   2.912  20.356  0.00  0.00    +0.000 C 
BRANCH  20  25
ATOM     22  C   UNL     1       5.871   5.253  16.449  0.00  0.00    +0.000 A 
ATOM     23  C   UNL     1       4.807   4.413  16.113  0.00  0.00    +0.000 A 
ATOM     24  C   UNL     1       3.888   3.982  17.086  0.00  0.00    +0.000 A 
ATOM     25  C   UNL     1       3.995   4.343  18.437  0.00  0.00    +0.000 A 
ATOM     26  C   UNL     1       5.128   5.113  18.750  0.00  0.00    +0.000 A 
ATOM     27  C   UNL     1       6.064   5.567  17.799  0.00  0.00    +0.000 A 
BRANCH  22  29
ATOM     28  C   UNL     1       7.106   4.792  14.488  0.00  0.00    +0.000 C 
ATOM     29  O   UNL     1       6.727   5.729  15.498  0.00  0.00    +0.000 OA
ENDBRANCH  22  29
BRANCH  27  30
ATOM     30  O   UNL     1       7.064   6.299  18.377  0.00  0.00    +0.000 OA
ATOM     31  C   UNL     1       7.838   5.713  19.412  0.00  0.00    +0.000 C 
ENDBRANCH  27  30
ENDBRANCH  20  25
ENDBRANCH  19  20
ENDBRANCH  18  19
ENDBRANCH  17  18
ENDBRANCH   1  17
TORSDOF 9
ENDMDL
MODEL 4
REMARK VINA RESULT:      -6.6      2.013      3.885
REMARK  Name = 
REMARK  14 active torsions:
REMARK  status: ('A' for Active; 'I' for Inactive)
REMARK    1  A    between atoms: C_1  and  O_2
REMARK    2  A    between atoms: O_2  and  C_3
REMARK    3  A    between atoms: C_6  and  N_7
REMARK    4  A    between atoms: N_7  and  C_8
REMARK    5  A    between atoms: N_7  and  C_9
REMARK    6  A    between atoms: C_9  and  C_10
REMARK    7  A    between atoms: C_10  and  C_11
REMARK    8  A    between atoms: C_11  and  N_12
REMARK    9  A    between atoms: C_17  and  O_18
REMARK   10  A    between atoms: O_18  and  C_19
REMARK   11  A    between atoms: C_20  and  O_21
REMARK   12  A    between atoms: O_21  and  C_22
REMARK   13  A    between atoms: C_29  and  O_30
REMARK   14  A    between atoms: O_30  and  C_31
REMARK                            x       y       z     vdW  Elec       q    Type
REMARK                         _______ _______ _______ _____ _____    ______ ____
ROOT
ATOM      1  N   UNL     1       1.472   8.493  19.930  0.00  0.00    +0.000 N 
ATOM      2  C   UNL     1       0.935   9.224  21.065  0.00  0.00    +0.000 C 
ATOM      3  C   UNL     1      -0.476   9.712  20.740  0.00  0.00    +0.000 C 
ATOM      4  C   UNL     1      -0.444  11.102  20.164  0.00  0.00    +0.000 A 
ATOM      5  C   UNL     1      -1.375  12.018  20.684  0.00  0.00    +0.000 A 
ATOM      6  C   UNL     1      -1.311  13.377  20.375  0.00  0.00    +0.000 A 
ATOM      7  C   UNL     1      -0.342  13.835  19.473  0.00  0.00    +0.000 A 
ATOM      8  C   UNL     1       0.530  12.905  18.881  0.00  0.00    +0.000 A 
ATOM      9  C   UNL     1       0.486  11.521  19.208  0.00  0.00    +0.000 A 
ATOM     10  C   UNL     1       1.500  10.608  18.534  0.00  0.00    +0.000 C 
ATOM     11  C   UNL     1       1.488   9.078  18.664  0.00  0.00    +0.000 C 
ATOM     12  O   UNL     1       1.673   8.385  17.657  0.00  0.00    +0.000 OA
ENDROOT
BRANCH   6  13
ATOM     13  O   UNL     1      -2.154  14.314  20.923  0.00  0.00    +0.000 OA
ATOM     14  C   UNL     1      -3.542  14.136  20.668  0.00  0.00    +0.000 C 
ENDBRANCH   6  13
BRANCH   7  15
ATOM     15  O   UNL     1      -0.337  15.189  19.265  0.00  0.00    +0.000 OA
ATOM     16  C   UNL     1       0.745  15.963  19.752  0.00  0.00    +0.000 C 
ENDBRANCH   7  15
BRANCH   1  17
ATOM     17  C   UNL     1       2.351   7.339  20.173  0.00  0.00    +0.000 C 
BRANCH  17  18
ATOM     18  C   UNL     1       1.700   5.961  20.376  0.00  0.00    +0.000 C 
BRANCH  18  19
ATOM     19  C   UNL     1       2.716   4.820  20.456  0.00  0.00    +0.000 C 
BRANCH  19  20
ATOM     20  N   UNL     1       2.803   4.083  19.173  0.00  0.00    +0.000 N 
ATOM     21  C   UNL     1       1.701   3.161  18.915  0.00  0.00    +0.000 C 
BRANCH  20  25
ATOM     22  C   UNL     1       6.283   4.435  16.724  0.00  0.00    +0.000 A 
ATOM     23  C   UNL     1       5.053   4.062  16.176  0.00  0.00    +0.000 A 
ATOM     24  C   UNL     1       3.910   3.929  16.984  0.00  0.00    +0.000 A 
ATOM     25  C   UNL     1       3.939   4.135  18.371  0.00  0.00    +0.000 A 
ATOM     26  C   UNL     1       5.211   4.418  18.895  0.00  0.00    +0.000 A 
ATOM     27  C   UNL     1       6.374   4.565  18.114  0.00  0.00    +0.000 A 
BRANCH  22  29
ATOM     28  C   UNL     1       7.110   4.865  14.553  0.00  0.00    +0.000 C 
ATOM     29  O   UNL     1       7.380   4.631  15.935  0.00  0.00    +0.000 OA
ENDBRANCH  22  29
BRANCH  27  30
ATOM     30  O   UNL     1       7.472   4.844  18.881  0.00  0.00    +0.000 OA
ATOM     31  C   UNL     1       7.925   6.186  18.974  0.00  0.00    +0.000 C 
ENDBRANCH  27  30
ENDBRANCH  20  25
ENDBRANCH  19  20
ENDBRANCH  18  19
ENDBRANCH  17  18
ENDBRANCH   1  17
TORSDOF 9
ENDMDL
MODEL 5
REMARK VINA RESULT:      -6.6      2.412      4.434
REMARK  Name = 
REMARK  14 active torsions:
REMARK  status: ('A' for Active; 'I' for Inactive)
REMARK    1  A    between atoms: C_1  and  O_2
REMARK    2  A    between atoms: O_2  and  C_3
REMARK    3  A    between atoms: C_6  and  N_7
REMARK    4  A    between atoms: N_7  and  C_8
REMARK    5  A    between atoms: N_7  and  C_9
REMARK    6  A    between atoms: C_9  and  C_10
REMARK    7  A    between atoms: C_10  and  C_11
REMARK    8  A    between atoms: C_11  and  N_12
REMARK    9  A    between atoms: C_17  and  O_18
REMARK   10  A    between atoms: O_18  and  C_19
REMARK   11  A    between atoms: C_20  and  O_21
REMARK   12  A    between atoms: O_21  and  C_22
REMARK   13  A    between atoms: C_29  and  O_30
REMARK   14  A    between atoms: O_30  and  C_31
REMARK                            x       y       z     vdW  Elec       q    Type
REMARK                         _______ _______ _______ _____ _____    ______ ____
ROOT
ATOM      1  N   UNL     1       0.686   8.919  21.109  0.00  0.00    +0.000 N 
ATOM      2  C   UNL     1      -0.417   9.314  20.250  0.00  0.00    +0.000 C 
ATOM      3  C   UNL     1      -0.360  10.821  20.001  0.00  0.00    +0.000 C 
ATOM      4  C   UNL     1      -1.193  11.563  21.010  0.00  0.00    +0.000 A 
ATOM      5  C   UNL     1      -2.039  12.568  20.508  0.00  0.00    +0.000 A 
ATOM      6  C   UNL     1      -2.997  13.185  21.313  0.00  0.00    +0.000 A 
ATOM      7  C   UNL     1      -3.078  12.847  22.670  0.00  0.00    +0.000 A 
ATOM      8  C   UNL     1      -2.172  11.909  23.194  0.00  0.00    +0.000 A 
ATOM      9  C   UNL     1      -1.207  11.260  22.375  0.00  0.00    +0.000 A 
ATOM     10  C   UNL     1      -0.299  10.235  23.039  0.00  0.00    +0.000 C 
ATOM     11  C   UNL     1       0.886   9.561  22.331  0.00  0.00    +0.000 C 
ATOM     12  O   UNL     1       1.960   9.440  22.933  0.00  0.00    +0.000 OA
ENDROOT
BRANCH   6  13
ATOM     13  O   UNL     1      -3.891  14.116  20.840  0.00  0.00    +0.000 OA
ATOM     14  C   UNL     1      -5.019  13.604  20.141  0.00  0.00    +0.000 C 
ENDBRANCH   6  13
BRANCH   7  15
ATOM     15  O   UNL     1      -4.075  13.478  23.366  0.00  0.00    +0.000 OA
ATOM     16  C   UNL     1      -4.998  12.705  24.114  0.00  0.00    +0.000 C 
ENDBRANCH   7  15
BRANCH   1  17
ATOM     17  C   UNL     1       1.324   7.612  20.899  0.00  0.00    +0.000 C 
BRANCH  17  18
ATOM     18  C   UNL     1       2.202   7.425  19.650  0.00  0.00    +0.000 C 
BRANCH  18  19
ATOM     19  C   UNL     1       3.091   6.181  19.719  0.00  0.00    +0.000 C 
BRANCH  19  20
ATOM     20  N   UNL     1       3.064   5.427  18.444  0.00  0.00    +0.000 N 
ATOM     21  C   UNL     1       1.791   4.785  18.134  0.00  0.00    +0.000 C 
BRANCH  20  25
ATOM     22  C   UNL     1       6.572   4.898  16.066  0.00  0.00    +0.000 A 
ATOM     23  C   UNL     1       5.427   4.131  15.839  0.00  0.00    +0.000 A 
ATOM     24  C   UNL     1       4.277   4.291  16.633  0.00  0.00    +0.000 A 
ATOM     25  C   UNL     1       4.218   5.200  17.699  0.00  0.00    +0.000 A 
ATOM     26  C   UNL     1       5.417   5.886  17.952  0.00  0.00    +0.000 A 
ATOM     27  C   UNL     1       6.584   5.754  17.173  0.00  0.00    +0.000 A 
BRANCH  22  29
ATOM     28  C   UNL     1       7.415   4.942  13.860  0.00  0.00    +0.000 C 
ATOM     29  O   UNL     1       7.667   4.794  15.258  0.00  0.00    +0.000 OA
ENDBRANCH  22  29
BRANCH  27  30
ATOM     30  O   UNL     1       7.601   6.541  17.640  0.00  0.00    +0.000 OA
ATOM     31  C   UNL     1       7.542   7.943  17.426  0.00  0.00    +0.000 C 
ENDBRANCH  27  30
ENDBRANCH  20  25
ENDBRANCH  19  20
ENDBRANCH  18  19
ENDBRANCH  17  18
ENDBRANCH   1  17
TORSDOF 9
ENDMDL
MODEL 6
REMARK VINA RESULT:      -6.6      2.878      5.166
REMARK  Name = 
REMARK  14 active torsions:
REMARK  status: ('A' for Active; 'I' for Inactive)
REMARK    1  A    between atoms: C_1  and  O_2
REMARK    2  A    between atoms: O_2  and  C_3
REMARK    3  A    between atoms: C_6  and  N_7
REMARK    4  A    between atoms: N_7  and  C_8
REMARK    5  A    between atoms: N_7  and  C_9
REMARK    6  A    between atoms: C_9  and  C_10
REMARK    7  A    between atoms: C_10  and  C_11
REMARK    8  A    between atoms: C_11  and  N_12
REMARK    9  A    between atoms: C_17  and  O_18
REMARK   10  A    between atoms: O_18  and  C_19
REMARK   11  A    between atoms: C_20  and  O_21
REMARK   12  A    between atoms: O_21  and  C_22
REMARK   13  A    between atoms: C_29  and  O_30
REMARK   14  A    between atoms: O_30  and  C_31
REMARK                            x       y       z     vdW  Elec       q    Type
REMARK                         _______ _______ _______ _____ _____    ______ ____
ROOT
ATOM      1  N   UNL     1       0.436  10.380  18.190  0.00  0.00    +0.000 N 
ATOM      2  C   UNL     1      -0.842   9.692  18.142  0.00  0.00    +0.000 C 
ATOM      3  C   UNL     1      -1.850  10.533  17.359  0.00  0.00    +0.000 C 
ATOM      4  C   UNL     1      -2.635  11.426  18.282  0.00  0.00    +0.000 A 
ATOM      5  C   UNL     1      -4.026  11.466  18.083  0.00  0.00    +0.000 A 
ATOM      6  C   UNL     1      -4.875  12.097  18.992  0.00  0.00    +0.000 A 
ATOM      7  C   UNL     1      -4.329  12.765  20.096  0.00  0.00    +0.000 A 
ATOM      8  C   UNL     1      -2.932  12.804  20.246  0.00  0.00    +0.000 A 
ATOM      9  C   UNL     1      -2.061  12.145  19.336  0.00  0.00    +0.000 A 
ATOM     10  C   UNL     1      -0.567  12.222  19.613  0.00  0.00    +0.000 C 
ATOM     11  C   UNL     1       0.508  11.695  18.650  0.00  0.00    +0.000 C 
ATOM     12  O   UNL     1       1.515  12.379  18.436  0.00  0.00    +0.000 OA
ENDROOT
BRANCH   6  13
ATOM     13  O   UNL     1      -6.244  12.092  18.872  0.00  0.00    +0.000 OA
ATOM     14  C   UNL     1      -6.843  10.837  18.573  0.00  0.00    +0.000 C 
ENDBRANCH   6  13
BRANCH   7  15
ATOM     15  O   UNL     1      -5.247  13.319  20.950  0.00  0.00    +0.000 OA
ATOM     16  C   UNL     1      -5.435  12.748  22.232  0.00  0.00    +0.000 C 
ENDBRANCH   7  15
BRANCH   1  17
ATOM     17  C   UNL     1       1.676   9.590  18.150  0.00  0.00    +0.000 C 
BRANCH  17  18
ATOM     18  C   UNL     1       1.559   8.058  18.108  0.00  0.00    +0.000 C 
BRANCH  18  19
ATOM     19  C   UNL     1       2.428   7.358  19.156  0.00  0.00    +0.000 C 
BRANCH  19  20
ATOM     20  N   UNL     1       2.729   5.961  18.762  0.00  0.00    +0.000 N 
ATOM     21  C   UNL     1       2.012   4.939  19.517  0.00  0.00    +0.000 C 
BRANCH  20  25
ATOM     22  C   UNL     1       5.783   5.132  15.895  0.00  0.00    +0.000 A 
ATOM     23  C   UNL     1       4.813   4.177  16.209  0.00  0.00    +0.000 A 
ATOM     24  C   UNL     1       3.818   4.442  17.166  0.00  0.00    +0.000 A 
ATOM     25  C   UNL     1       3.751   5.653  17.869  0.00  0.00    +0.000 A 
ATOM     26  C   UNL     1       4.796   6.550  17.591  0.00  0.00    +0.000 A 
ATOM     27  C   UNL     1       5.804   6.319  16.635  0.00  0.00    +0.000 A 
BRANCH  22  29
ATOM     28  C   UNL     1       6.343   3.942  13.932  0.00  0.00    +0.000 C 
ATOM     29  O   UNL     1       6.711   4.906  14.919  0.00  0.00    +0.000 OA
ENDBRANCH  22  29
BRANCH  27  30
ATOM     30  O   UNL     1       6.690   7.359  16.565  0.00  0.00    +0.000 OA
ATOM     31  C   UNL     1       7.600   7.563  17.635  0.00  0.00    +0.000 C 
ENDBRANCH  27  30
ENDBRANCH  20  25
ENDBRANCH  19  20
ENDBRANCH  18  19
ENDBRANCH  17  18
ENDBRANCH   1  17
TORSDOF 9
ENDMDL
MODEL 7
REMARK VINA RESULT:      -6.5      1.596      3.258
REMARK  Name = 
REMARK  14 active torsions:
REMARK  status: ('A' for Active; 'I' for Inactive)
REMARK    1  A    between atoms: C_1  and  O_2
REMARK    2  A    between atoms: O_2  and  C_3
REMARK    3  A    between atoms: C_6  and  N_7
REMARK    4  A    between atoms: N_7  and  C_8
REMARK    5  A    between atoms: N_7  and  C_9
REMARK    6  A    between atoms: C_9  and  C_10
REMARK    7  A    between atoms: C_10  and  C_11
REMARK    8  A    between atoms: C_11  and  N_12
REMARK    9  A    between atoms: C_17  and  O_18
REMARK   10  A    between atoms: O_18  and  C_19
REMARK   11  A    between atoms: C_20  and  O_21
REMARK   12  A    between atoms: O_21  and  C_22
REMARK   13  A    between atoms: C_29  and  O_30
REMARK   14  A    between atoms: O_30  and  C_31
REMARK                            x       y       z     vdW  Elec       q    Type
REMARK                         _______ _______ _______ _____ _____    ______ ____
ROOT
ATOM      1  N   UNL     1       2.040   7.233  20.125  0.00  0.00    +0.000 N 
ATOM      2  C   UNL     1       1.586   8.134  21.169  0.00  0.00    +0.000 C 
ATOM      3  C   UNL     1       0.185   8.645  20.835  0.00  0.00    +0.000 C 
ATOM      4  C   UNL     1       0.254   9.942  20.075  0.00  0.00    +0.000 A 
ATOM      5  C   UNL     1      -0.611  10.965  20.501  0.00  0.00    +0.000 A 
ATOM      6  C   UNL     1      -0.501  12.265  20.008  0.00  0.00    +0.000 A 
ATOM      7  C   UNL     1       0.447  12.550  19.017  0.00  0.00    +0.000 A 
ATOM      8  C   UNL     1       1.250  11.506  18.524  0.00  0.00    +0.000 A 
ATOM      9  C   UNL     1       1.159  10.183  19.036  0.00  0.00    +0.000 A 
ATOM     10  C   UNL     1       2.101   9.139  18.455  0.00  0.00    +0.000 C 
ATOM     11  C   UNL     1       2.026   7.642  18.791  0.00  0.00    +0.000 C 
ATOM     12  O   UNL     1       2.135   6.813  17.880  0.00  0.00    +0.000 OA
ENDROOT
BRANCH   6  13
ATOM     13  O   UNL     1      -1.277  13.308  20.457  0.00  0.00    +0.000 OA
ATOM     14  C   UNL     1      -2.260  12.985  21.432  0.00  0.00    +0.000 C 
ENDBRANCH   6  13
BRANCH   7  15
ATOM     15  O   UNL     1       0.503  13.862  18.627  0.00  0.00    +0.000 OA
ATOM     16  C   UNL     1       1.761  14.507  18.539  0.00  0.00    +0.000 C 
ENDBRANCH   7  15
BRANCH   1  17
ATOM     17  C   UNL     1       2.876   6.079  20.488  0.00  0.00    +0.000 C 
BRANCH  17  18
ATOM     18  C   UNL     1       2.185   4.726  20.720  0.00  0.00    +0.000 C 
BRANCH  18  19
ATOM     19  C   UNL     1       3.030   3.532  20.272  0.00  0.00    +0.000 C 
BRANCH  19  20
ATOM     20  N   UNL     1       3.006   3.376  18.798  0.00  0.00    +0.000 N 
ATOM     21  C   UNL     1       1.882   2.606  18.277  0.00  0.00    +0.000 C 
BRANCH  20  25
ATOM     22  C   UNL     1       6.258   4.787  16.418  0.00  0.00    +0.000 A 
ATOM     23  C   UNL     1       5.026   4.474  15.839  0.00  0.00    +0.000 A 
ATOM     24  C   UNL     1       3.960   3.993  16.619  0.00  0.00    +0.000 A 
ATOM     25  C   UNL     1       4.073   3.778  18.000  0.00  0.00    +0.000 A 
ATOM     26  C   UNL     1       5.353   4.017  18.527  0.00  0.00    +0.000 A 
ATOM     27  C   UNL     1       6.440   4.505  17.776  0.00  0.00    +0.000 A 
BRANCH  22  29
ATOM     28  C   UNL     1       7.203   5.076  14.272  0.00  0.00    +0.000 C 
ATOM     29  O   UNL     1       7.276   5.317  15.677  0.00  0.00    +0.000 OA
ENDBRANCH  22  29
BRANCH  27  30
ATOM     30  O   UNL     1       7.565   4.650  18.541  0.00  0.00    +0.000 OA
ATOM     31  C   UNL     1       7.791   5.882  19.207  0.00  0.00    +0.000 C 
ENDBRANCH  27  30
ENDBRANCH  20  25
ENDBRANCH  19  20
ENDBRANCH  18  19
ENDBRANCH  17  18
ENDBRANCH   1  17
TORSDOF 9
ENDMDL
MODEL 8
REMARK VINA RESULT:      -6.5      1.454      6.973
REMARK  Name = 
REMARK  14 active torsions:
REMARK  status: ('A' for Active; 'I' for Inactive)
REMARK    1  A    between atoms: C_1  and  O_2
REMARK    2  A    between atoms: O_2  and  C_3
REMARK    3  A    between atoms: C_6  and  N_7
REMARK    4  A    between atoms: N_7  and  C_8
REMARK    5  A    between atoms: N_7  and  C_9
REMARK    6  A    between atoms: C_9  and  C_10
REMARK    7  A    between atoms: C_10  and  C_11
REMARK    8  A    between atoms: C_11  and  N_12
REMARK    9  A    between atoms: C_17  and  O_18
REMARK   10  A    between atoms: O_18  and  C_19
REMARK   11  A    between atoms: C_20  and  O_21
REMARK   12  A    between atoms: O_21  and  C_22
REMARK   13  A    between atoms: C_29  and  O_30
REMARK   14  A    between atoms: O_30  and  C_31
REMARK                            x       y       z     vdW  Elec       q    Type
REMARK                         _______ _______ _______ _____ _____    ______ ____
ROOT
ATOM      1  N   UNL     1       3.265   2.374  18.869  0.00  0.00    +0.000 N 
ATOM      2  C   UNL     1       3.159   2.905  17.521  0.00  0.00    +0.000 C 
ATOM      3  C   UNL     1       4.428   2.575  16.737  0.00  0.00    +0.000 C 
ATOM      4  C   UNL     1       5.430   3.693  16.842  0.00  0.00    +0.000 A 
ATOM      5  C   UNL     1       6.049   4.096  15.646  0.00  0.00    +0.000 A 
ATOM      6  C   UNL     1       6.841   5.243  15.585  0.00  0.00    +0.000 A 
ATOM      7  C   UNL     1       7.082   5.977  16.752  0.00  0.00    +0.000 A 
ATOM      8  C   UNL     1       6.539   5.523  17.967  0.00  0.00    +0.000 A 
ATOM      9  C   UNL     1       5.714   4.368  18.034  0.00  0.00    +0.000 A 
ATOM     10  C   UNL     1       5.149   3.986  19.395  0.00  0.00    +0.000 C 
ATOM     11  C   UNL     1       4.369   2.690  19.662  0.00  0.00    +0.000 C 
ATOM     12  O   UNL     1       4.615   2.036  20.681  0.00  0.00    +0.000 OA
ENDROOT
BRANCH   6  13
ATOM     13  O   UNL     1       7.399   5.710  14.419  0.00  0.00    +0.000 OA
ATOM     14  C   UNL     1       7.438   4.796  13.330  0.00  0.00    +0.000 C 
ENDBRANCH   6  13
BRANCH   7  15
ATOM     15  O   UNL     1       7.839   7.107  16.581  0.00  0.00    +0.000 OA
ATOM     16  C   UNL     1       7.740   8.158  17.525  0.00  0.00    +0.000 C 
ENDBRANCH   7  15
BRANCH   1  17
ATOM     17  C   UNL     1       2.059   1.858  19.532  0.00  0.00    +0.000 C 
BRANCH  17  18
ATOM     18  C   UNL     1       1.066   2.873  20.122  0.00  0.00    +0.000 C 
BRANCH  18  19
ATOM     19  C   UNL     1       1.117   4.239  19.432  0.00  0.00    +0.000 C 
BRANCH  19  20
ATOM     20  N   UNL     1       1.761   5.256  20.296  0.00  0.00    +0.000 N 
ATOM     21  C   UNL     1       2.294   4.748  21.556  0.00  0.00    +0.000 C 
BRANCH  20  25
ATOM     22  C   UNL     1       1.376   9.403  19.357  0.00  0.00    +0.000 A 
ATOM     23  C   UNL     1       2.083   8.539  18.518  0.00  0.00    +0.000 A 
ATOM     24  C   UNL     1       2.226   7.177  18.835  0.00  0.00    +0.000 A 
ATOM     25  C   UNL     1       1.696   6.615  20.006  0.00  0.00    +0.000 A 
ATOM     26  C   UNL     1       1.072   7.534  20.866  0.00  0.00    +0.000 A 
ATOM     27  C   UNL     1       0.906   8.903  20.576  0.00  0.00    +0.000 A 
BRANCH  22  29
ATOM     28  C   UNL     1      -0.141  11.039  18.579  0.00  0.00    +0.000 C 
ATOM     29  O   UNL     1       1.177  10.712  19.022  0.00  0.00    +0.000 OA
ENDBRANCH  22  29
BRANCH  27  30
ATOM     30  O   UNL     1       0.260   9.563  21.585  0.00  0.00    +0.000 OA
ATOM     31  C   UNL     1       0.722   9.408  22.917  0.00  0.00    +0.000 C 
ENDBRANCH  27  30
ENDBRANCH  20  25
ENDBRANCH  19  20
ENDBRANCH  18  19
ENDBRANCH  17  18
ENDBRANCH   1  17
TORSDOF 9
ENDMDL
MODEL 9
REMARK VINA RESULT:      -6.5      3.317      6.023
REMARK  Name = 
REMARK  14 active torsions:
REMARK  status: ('A' for Active; 'I' for Inactive)
REMARK    1  A    between atoms: C_1  and  O_2
REMARK    2  A    between atoms: O_2  and  C_3
REMARK    3  A    between atoms: C_6  and  N_7
REMARK    4  A    between atoms: N_7  and  C_8
REMARK    5  A    between atoms: N_7  and  C_9
REMARK    6  A    between atoms: C_9  and  C_10
REMARK    7  A    between atoms: C_10  and  C_11
REMARK    8  A    between atoms: C_11  and  N_12
REMARK    9  A    between atoms: C_17  and  O_18
REMARK   10  A    between atoms: O_18  and  C_19
REMARK   11  A    between atoms: C_20  and  O_21
REMARK   12  A    between atoms: O_21  and  C_22
REMARK   13  A    between atoms: C_29  and  O_30
REMARK   14  A    between atoms: O_30  and  C_31
REMARK                            x       y       z     vdW  Elec       q    Type
REMARK                         _______ _______ _______ _____ _____    ______ ____
ROOT
ATOM      1  N   UNL     1      -0.218  11.478  18.872  0.00  0.00    +0.000 N 
ATOM      2  C   UNL     1      -1.394  10.626  18.850  0.00  0.00    +0.000 C 
ATOM      3  C   UNL     1      -2.560  11.377  18.208  0.00  0.00    +0.000 C 
ATOM      4  C   UNL     1      -3.383  12.083  19.250  0.00  0.00    +0.000 A 
ATOM      5  C   UNL     1      -4.779  11.948  19.146  0.00  0.00    +0.000 A 
ATOM      6  C   UNL     1      -5.632  12.387  20.159  0.00  0.00    +0.000 A 
ATOM      7  C   UNL     1      -5.097  13.039  21.277  0.00  0.00    +0.000 A 
ATOM      8  C   UNL     1      -3.710  13.259  21.338  0.00  0.00    +0.000 A 
ATOM      9  C   UNL     1      -2.831  12.794  20.321  0.00  0.00    +0.000 A 
ATOM     10  C   UNL     1      -1.343  13.054  20.506  0.00  0.00    +0.000 C 
ATOM     11  C   UNL     1      -0.285  12.753  19.435  0.00  0.00    +0.000 C 
ATOM     12  O   UNL     1       0.604  13.582  19.214  0.00  0.00    +0.000 OA
ENDROOT
BRANCH   6  13
ATOM     13  O   UNL     1      -6.994  12.203  20.127  0.00  0.00    +0.000 OA
ATOM     14  C   UNL     1      -7.447  10.855  20.175  0.00  0.00    +0.000 C 
ENDBRANCH   6  13
BRANCH   7  15
ATOM     15  O   UNL     1      -6.012  13.398  22.232  0.00  0.00    +0.000 OA
ATOM     16  C   UNL     1      -5.882  12.884  23.545  0.00  0.00    +0.000 C 
ENDBRANCH   7  15
BRANCH   1  17
ATOM     17  C   UNL     1       1.108  10.871  18.686  0.00  0.00    +0.000 C 
BRANCH  17  18
ATOM     18  C   UNL     1       1.268   9.371  18.984  0.00  0.00    +0.000 C 
BRANCH  18  19
ATOM     19  C   UNL     1       2.217   8.661  18.016  0.00  0.00    +0.000 C 
BRANCH  19  20
ATOM     20  N   UNL     1       2.591   7.316  18.515  0.00  0.00    +0.000 N 
ATOM     21  C   UNL     1       2.189   7.034  19.889  0.00  0.00    +0.000 C 
BRANCH  20  25
ATOM     22  C   UNL     1       5.226   4.670  16.445  0.00  0.00    +0.000 A 
ATOM     23  C   UNL     1       5.319   6.054  16.277  0.00  0.00    +0.000 A 
ATOM     24  C   UNL     1       4.441   6.925  16.944  0.00  0.00    +0.000 A 
ATOM     25  C   UNL     1       3.418   6.466  17.787  0.00  0.00    +0.000 A 
ATOM     26  C   UNL     1       3.300   5.068  17.858  0.00  0.00    +0.000 A 
ATOM     27  C   UNL     1       4.167   4.167  17.208  0.00  0.00    +0.000 A 
BRANCH  22  29
ATOM     28  C   UNL     1       6.170   3.884  14.427  0.00  0.00    +0.000 C 
ATOM     29  O   UNL     1       6.118   3.822  15.853  0.00  0.00    +0.000 OA
ENDBRANCH  22  29
BRANCH  27  30
ATOM     30  O   UNL     1       3.826   2.865  17.452  0.00  0.00    +0.000 OA
ATOM     31  C   UNL     1       2.462   2.539  17.669  0.00  0.00    +0.000 C 
ENDBRANCH  27  30
ENDBRANCH  20  25
ENDBRANCH  19  20
ENDBRANCH  18  19
ENDBRANCH  17  18
ENDBRANCH   1  17
TORSDOF 9
ENDMDL
