MODEL 1
REMARK VINA RESULT:      -9.3      0.000      0.000
REMARK  Name = 
REMARK  7 active torsions:
REMARK  status: ('A' for Active; 'I' for Inactive)
REMARK    1  A    between atoms: C_2  and  C_4
REMARK    2  A    between atoms: C_8  and  O_9
REMARK    3  A    between atoms: O_9  and  C_10
REMARK    4  A    between atoms: C_13  and  N_14
REMARK    5  A    between atoms: C_15  and  C_17
REMARK    6  A    between atoms: C_17  and  C_18
REMARK    7  A    between atoms: N_20  and  C_21
REMARK                            x       y       z     vdW  Elec       q    Type
REMARK                         _______ _______ _______ _____ _____    ______ ____
ROOT
ATOM      1  C   UNL     1       3.147   5.844  19.396  0.00  0.00    +0.000 A 
ATOM      2  C   UNL     1       3.200   6.877  18.463  0.00  0.00    +0.000 A 
ATOM      3  C   UNL     1       2.427   8.024  18.647  0.00  0.00    +0.000 A 
ATOM      4  C   UNL     1       1.593   8.148  19.763  0.00  0.00    +0.000 A 
ATOM      5  C   UNL     1       1.593   7.149  20.735  0.00  0.00    +0.000 A 
ATOM      6  C   UNL     1       2.332   5.989  20.525  0.00  0.00    +0.000 A 
ATOM      7  F   UNL     1       2.226   5.011  21.437  0.00  0.00    +0.000 F 
ENDROOT
BRANCH   4   8
ATOM      8  N   UNL     1       0.714   9.228  19.938  0.00  0.00    +0.000 N 
ATOM      9  C   UNL     1       0.703  10.079  21.023  0.00  0.00    +0.000 C 
ATOM     10  O   UNL     1       1.435  10.052  22.003  0.00  0.00    +0.000 OA
ATOM     11  H   UNL     1       0.102   9.466  19.166  0.00  0.00    +0.000 HD
BRANCH   9  12
ATOM     12  C   UNL     1      -0.343  11.142  20.945  0.00  0.00    +0.000 C 
ATOM     13  C   UNL     1      -1.101  11.436  22.232  0.00  0.00    +0.000 C 
ATOM     14  C   UNL     1      -0.163  12.467  21.698  0.00  0.00    +0.000 C 
BRANCH  12  15
ATOM     15  C   UNL     1      -0.871  11.308  19.566  0.00  0.00    +0.000 C 
ATOM     16  O   UNL     1      -0.191  11.966  18.790  0.00  0.00    +0.000 OA
ATOM     17  N   UNL     1      -2.068  10.681  19.257  0.00  0.00    +0.000 N 
ATOM     18  H   UNL     1      -2.735  10.541  20.004  0.00  0.00    +0.000 HD
BRANCH  17  19
ATOM     19  C   UNL     1      -2.514  10.704  17.921  0.00  0.00    +0.000 A 
ATOM     20  C   UNL     1      -3.658  11.442  17.583  0.00  0.00    +0.000 A 
ATOM     21  C   UNL     1      -4.238  11.305  16.328  0.00  0.00    +0.000 A 
ATOM     22  C   UNL     1      -3.666  10.432  15.413  0.00  0.00    +0.000 A 
ATOM     23  F   UNL     1      -4.270  10.223  14.236  0.00  0.00    +0.000 F 
ATOM     24  C   UNL     1      -2.491   9.747  15.714  0.00  0.00    +0.000 A 
ATOM     25  C   UNL     1      -1.885   9.910  16.964  0.00  0.00    +0.000 A 
ENDBRANCH  17  19
ENDBRANCH  12  15
ENDBRANCH   9  12
ENDBRANCH   4   8
BRANCH   1  26
ATOM     26  O   UNL     1       3.886   4.725  19.082  0.00  0.00    +0.000 OA
BRANCH  26  31
ATOM     27  C   UNL     1       6.508   4.759  16.557  0.00  0.00    +0.000 A 
ATOM     28  N   UNL     1       7.609   5.165  17.281  0.00  0.00    +0.000 NA
ATOM     29  C   UNL     1       7.427   5.455  18.581  0.00  0.00    +0.000 A 
ATOM     30  C   UNL     1       6.207   5.359  19.213  0.00  0.00    +0.000 A 
ATOM     31  C   UNL     1       5.117   4.882  18.481  0.00  0.00    +0.000 A 
ATOM     32  C   UNL     1       5.239   4.609  17.112  0.00  0.00    +0.000 A 
ATOM     33 CL   UNL     1       3.835   4.146  16.216  0.00  0.00    +0.000 Cl
BRANCH  27  35
ATOM     34  N   UNL     1       7.718   5.395  14.554  0.00  0.00    +0.000 N 
ATOM     35  C   UNL     1       6.825   4.505  15.102  0.00  0.00    +0.000 C 
ATOM     36  O   UNL     1       6.363   3.602  14.420  0.00  0.00    +0.000 OA
ATOM     37  H   UNL     1       8.003   5.293  13.590  0.00  0.00    +0.000 HD
ATOM     38  H   UNL     1       8.111   6.126  15.138  0.00  0.00    +0.000 HD
ENDBRANCH  27  35
ENDBRANCH  26  31
ENDBRANCH   1  26
TORSDOF 7
ENDMDL
MODEL 2
REMARK VINA RESULT:      -8.9      3.437      9.712
REMARK  Name = 
REMARK  7 active torsions:
REMARK  status: ('A' for Active; 'I' for Inactive)
REMARK    1  A    between atoms: C_2  and  C_4
REMARK    2  A    between atoms: C_8  and  O_9
REMARK    3  A    between atoms: O_9  and  C_10
REMARK    4  A    between atoms: C_13  and  N_14
REMARK    5  A    between atoms: C_15  and  C_17
REMARK    6  A    between atoms: C_17  and  C_18
REMARK    7  A    between atoms: N_20  and  C_21
REMARK                            x       y       z     vdW  Elec       q    Type
REMARK                         _______ _______ _______ _____ _____    ______ ____
ROOT
ATOM      1  C   UNL     1       0.832   9.941  19.622  0.00  0.00    +0.000 A 
ATOM      2  C   UNL     1       0.715   9.256  20.828  0.00  0.00    +0.000 A 
ATOM      3  C   UNL     1       1.323   8.010  20.984  0.00  0.00    +0.000 A 
ATOM      4  C   UNL     1       2.052   7.438  19.937  0.00  0.00    +0.000 A 
ATOM      5  C   UNL     1       2.232   8.153  18.754  0.00  0.00    +0.000 A 
ATOM      6  C   UNL     1       1.587   9.375  18.588  0.00  0.00    +0.000 A 
ATOM      7  F   UNL     1       1.707   9.984  17.399  0.00  0.00    +0.000 F 
ENDROOT
BRANCH   4   8
ATOM      8  N   UNL     1       2.588   6.142  20.002  0.00  0.00    +0.000 N 
ATOM      9  C   UNL     1       1.865   4.990  20.225  0.00  0.00    +0.000 C 
ATOM     10  O   UNL     1       0.659   4.885  20.402  0.00  0.00    +0.000 OA
ATOM     11  H   UNL     1       3.569   6.028  19.771  0.00  0.00    +0.000 HD
BRANCH   9  12
ATOM     12  C   UNL     1       2.698   3.750  20.244  0.00  0.00    +0.000 C 
ATOM     13  C   UNL     1       2.552   2.860  21.470  0.00  0.00    +0.000 C 
ATOM     14  C   UNL     1       2.036   2.368  20.158  0.00  0.00    +0.000 C 
BRANCH  12  15
ATOM     15  C   UNL     1       3.916   3.880  19.402  0.00  0.00    +0.000 C 
ATOM     16  O   UNL     1       4.932   3.339  19.814  0.00  0.00    +0.000 OA
ATOM     17  N   UNL     1       3.798   4.572  18.207  0.00  0.00    +0.000 N 
ATOM     18  H   UNL     1       3.105   5.307  18.152  0.00  0.00    +0.000 HD
BRANCH  17  19
ATOM     19  C   UNL     1       4.898   4.586  17.327  0.00  0.00    +0.000 A 
ATOM     20  C   UNL     1       5.881   5.578  17.458  0.00  0.00    +0.000 A 
ATOM     21  C   UNL     1       6.850   5.742  16.476  0.00  0.00    +0.000 A 
ATOM     22  C   UNL     1       6.833   4.908  15.367  0.00  0.00    +0.000 A 
ATOM     23  F   UNL     1       7.705   5.118  14.372  0.00  0.00    +0.000 F 
ATOM     24  C   UNL     1       5.903   3.875  15.260  0.00  0.00    +0.000 A 
ATOM     25  C   UNL     1       4.949   3.685  16.265  0.00  0.00    +0.000 A 
ENDBRANCH  17  19
ENDBRANCH  12  15
ENDBRANCH   9  12
ENDBRANCH   4   8
BRANCH   1  26
ATOM     26  O   UNL     1       0.130  11.124  19.542  0.00  0.00    +0.000 OA
BRANCH  26  31
ATOM     27  C   UNL     1      -3.432  11.811  19.231  0.00  0.00    +0.000 A 
ATOM     28  N   UNL     1      -3.790  11.025  18.156  0.00  0.00    +0.000 NA
ATOM     29  C   UNL     1      -2.819  10.326  17.544  0.00  0.00    +0.000 A 
ATOM     30  C   UNL     1      -1.501  10.354  17.944  0.00  0.00    +0.000 A 
ATOM     31  C   UNL     1      -1.167  11.102  19.076  0.00  0.00    +0.000 A 
ATOM     32  C   UNL     1      -2.131  11.886  19.724  0.00  0.00    +0.000 A 
ATOM     33 CL   UNL     1      -1.649  12.898  21.041  0.00  0.00    +0.000 Cl
BRANCH  27  35
ATOM     34  N   UNL     1      -5.754  11.850  19.929  0.00  0.00    +0.000 N 
ATOM     35  C   UNL     1      -4.597  12.581  19.807  0.00  0.00    +0.000 C 
ATOM     36  O   UNL     1      -4.572  13.753  20.155  0.00  0.00    +0.000 OA
ATOM     37  H   UNL     1      -6.581  12.278  20.320  0.00  0.00    +0.000 HD
ATOM     38  H   UNL     1      -5.754  10.872  19.656  0.00  0.00    +0.000 HD
ENDBRANCH  27  35
ENDBRANCH  26  31
ENDBRANCH   1  26
TORSDOF 7
ENDMDL
MODEL 3
REMARK VINA RESULT:      -8.9      3.422      9.745
REMARK  Name = 
REMARK  7 active torsions:
REMARK  status: ('A' for Active; 'I' for Inactive)
REMARK    1  A    between atoms: C_2  and  C_4
REMARK    2  A    between atoms: C_8  and  O_9
REMARK    3  A    between atoms: O_9  and  C_10
REMARK    4  A    between atoms: C_13  and  N_14
REMARK    5  A    between atoms: C_15  and  C_17
REMARK    6  A    between atoms: C_17  and  C_18
REMARK    7  A    between atoms: N_20  and  C_21
REMARK                            x       y       z     vdW  Elec       q    Type
REMARK                         _______ _______ _______ _____ _____    ______ ____
ROOT
ATOM      1  C   UNL     1       0.920   9.960  19.694  0.00  0.00    +0.000 A 
ATOM      2  C   UNL     1       1.509   9.438  18.545  0.00  0.00    +0.000 A 
ATOM      3  C   UNL     1       2.058   8.155  18.564  0.00  0.00    +0.000 A 
ATOM      4  C   UNL     1       2.027   7.385  19.731  0.00  0.00    +0.000 A 
ATOM      5  C   UNL     1       1.374   7.877  20.861  0.00  0.00    +0.000 A 
ATOM      6  C   UNL     1       0.867   9.172  20.849  0.00  0.00    +0.000 A 
ATOM      7  F   UNL     1       0.335   9.642  21.988  0.00  0.00    +0.000 F 
ENDROOT
BRANCH   4   8
ATOM      8  N   UNL     1       2.661   6.138  19.837  0.00  0.00    +0.000 N 
ATOM      9  C   UNL     1       2.018   4.926  19.976  0.00  0.00    +0.000 C 
ATOM     10  O   UNL     1       0.813   4.719  20.032  0.00  0.00    +0.000 OA
ATOM     11  H   UNL     1       3.665   6.108  19.703  0.00  0.00    +0.000 HD
BRANCH   9  12
ATOM     12  C   UNL     1       2.946   3.759  20.066  0.00  0.00    +0.000 C 
ATOM     13  C   UNL     1       2.883   2.946  21.351  0.00  0.00    +0.000 C 
ATOM     14  C   UNL     1       2.394   2.326  20.083  0.00  0.00    +0.000 C 
BRANCH  12  15
ATOM     15  C   UNL     1       4.141   3.925  19.199  0.00  0.00    +0.000 C 
ATOM     16  O   UNL     1       5.200   3.486  19.626  0.00  0.00    +0.000 OA
ATOM     17  N   UNL     1       3.959   4.532  17.965  0.00  0.00    +0.000 N 
ATOM     18  H   UNL     1       3.213   5.209  17.877  0.00  0.00    +0.000 HD
BRANCH  17  19
ATOM     19  C   UNL     1       5.044   4.572  17.069  0.00  0.00    +0.000 A 
ATOM     20  C   UNL     1       5.991   5.602  17.169  0.00  0.00    +0.000 A 
ATOM     21  C   UNL     1       6.939   5.786  16.169  0.00  0.00    +0.000 A 
ATOM     22  C   UNL     1       6.938   4.932  15.075  0.00  0.00    +0.000 A 
ATOM     23  F   UNL     1       7.787   5.158  14.063  0.00  0.00    +0.000 F 
ATOM     24  C   UNL     1       6.047   3.863  15.000  0.00  0.00    +0.000 A 
ATOM     25  C   UNL     1       5.115   3.655  16.022  0.00  0.00    +0.000 A 
ENDBRANCH  17  19
ENDBRANCH  12  15
ENDBRANCH   9  12
ENDBRANCH   4   8
BRANCH   1  26
ATOM     26  O   UNL     1       0.479  11.262  19.593  0.00  0.00    +0.000 OA
BRANCH  26  31
ATOM     27  C   UNL     1      -2.987  12.317  19.951  0.00  0.00    +0.000 A 
ATOM     28  N   UNL     1      -3.537  11.936  18.745  0.00  0.00    +0.000 NA
ATOM     29  C   UNL     1      -2.718  11.378  17.836  0.00  0.00    +0.000 A 
ATOM     30  C   UNL     1      -1.375  11.167  18.057  0.00  0.00    +0.000 A 
ATOM     31  C   UNL     1      -0.849  11.497  19.308  0.00  0.00    +0.000 A 
ATOM     32  C   UNL     1      -1.647  12.123  20.276  0.00  0.00    +0.000 A 
ATOM     33 CL   UNL     1      -0.925  12.633  21.762  0.00  0.00    +0.000 Cl
BRANCH  27  35
ATOM     34  N   UNL     1      -4.417  14.209  20.457  0.00  0.00    +0.000 N 
ATOM     35  C   UNL     1      -3.991  12.969  20.872  0.00  0.00    +0.000 C 
ATOM     36  O   UNL     1      -4.427  12.486  21.906  0.00  0.00    +0.000 OA
ATOM     37  H   UNL     1      -5.101  14.715  21.002  0.00  0.00    +0.000 HD
ATOM     38  H   UNL     1      -4.063  14.588  19.584  0.00  0.00    +0.000 HD
ENDBRANCH  27  35
ENDBRANCH  26  31
ENDBRANCH   1  26
TORSDOF 7
ENDMDL
MODEL 4
REMARK VINA RESULT:      -8.8      3.730      9.847
REMARK  Name = 
REMARK  7 active torsions:
REMARK  status: ('A' for Active; 'I' for Inactive)
REMARK    1  A    between atoms: C_2  and  C_4
REMARK    2  A    between atoms: C_8  and  O_9
REMARK    3  A    between atoms: O_9  and  C_10
REMARK    4  A    between atoms: C_13  and  N_14
REMARK    5  A    between atoms: C_15  and  C_17
REMARK    6  A    between atoms: C_17  and  C_18
REMARK    7  A    between atoms: N_20  and  C_21
REMARK                            x       y       z     vdW  Elec       q    Type
REMARK                         _______ _______ _______ _____ _____    ______ ____
ROOT
ATOM      1  C   UNL     1       0.638  10.360  20.588  0.00  0.00    +0.000 A 
ATOM      2  C   UNL     1       1.089   9.965  19.331  0.00  0.00    +0.000 A 
ATOM      3  C   UNL     1       1.638   8.695  19.154  0.00  0.00    +0.000 A 
ATOM      4  C   UNL     1       1.745   7.810  20.232  0.00  0.00    +0.000 A 
ATOM      5  C   UNL     1       1.228   8.175  21.474  0.00  0.00    +0.000 A 
ATOM      6  C   UNL     1       0.721   9.458  21.655  0.00  0.00    +0.000 A 
ATOM      7  F   UNL     1       0.325   9.801  22.889  0.00  0.00    +0.000 F 
ENDROOT
BRANCH   4   8
ATOM      8  N   UNL     1       2.389   6.567  20.134  0.00  0.00    +0.000 N 
ATOM      9  C   UNL     1       1.776   5.338  20.268  0.00  0.00    +0.000 C 
ATOM     10  O   UNL     1       0.594   5.112  20.490  0.00  0.00    +0.000 OA
ATOM     11  H   UNL     1       3.361   6.562  19.846  0.00  0.00    +0.000 HD
BRANCH   9  12
ATOM     12  C   UNL     1       2.708   4.181  20.117  0.00  0.00    +0.000 C 
ATOM     13  C   UNL     1       2.764   3.206  21.283  0.00  0.00    +0.000 C 
ATOM     14  C   UNL     1       2.159   2.752  19.996  0.00  0.00    +0.000 C 
BRANCH  12  15
ATOM     15  C   UNL     1       3.816   4.474  19.171  0.00  0.00    +0.000 C 
ATOM     16  O   UNL     1       4.939   4.569  19.649  0.00  0.00    +0.000 OA
ATOM     17  N   UNL     1       3.500   4.584  17.826  0.00  0.00    +0.000 N 
ATOM     18  H   UNL     1       2.574   4.909  17.583  0.00  0.00    +0.000 HD
BRANCH  17  19
ATOM     19  C   UNL     1       4.551   4.718  16.898  0.00  0.00    +0.000 A 
ATOM     20  C   UNL     1       4.904   5.992  16.427  0.00  0.00    +0.000 A 
ATOM     21  C   UNL     1       5.780   6.128  15.357  0.00  0.00    +0.000 A 
ATOM     22  C   UNL     1       6.304   4.987  14.765  0.00  0.00    +0.000 A 
ATOM     23  F   UNL     1       7.075   5.105  13.676  0.00  0.00    +0.000 F 
ATOM     24  C   UNL     1       6.013   3.720  15.269  0.00  0.00    +0.000 A 
ATOM     25  C   UNL     1       5.159   3.582  16.368  0.00  0.00    +0.000 A 
ENDBRANCH  17  19
ENDBRANCH  12  15
ENDBRANCH   9  12
ENDBRANCH   4   8
BRANCH   1  26
ATOM     26  O   UNL     1       0.186  11.659  20.673  0.00  0.00    +0.000 OA
BRANCH  26  31
ATOM     27  C   UNL     1      -3.289  12.574  21.263  0.00  0.00    +0.000 A 
ATOM     28  N   UNL     1      -3.853  12.402  20.017  0.00  0.00    +0.000 NA
ATOM     29  C   UNL     1      -3.043  12.026  19.012  0.00  0.00    +0.000 A 
ATOM     30  C   UNL     1      -1.694  11.804  19.172  0.00  0.00    +0.000 A 
ATOM     31  C   UNL     1      -1.150  11.918  20.454  0.00  0.00    +0.000 A 
ATOM     32  C   UNL     1      -1.940  12.350  21.529  0.00  0.00    +0.000 A 
ATOM     33 CL   UNL     1      -1.198  12.603  23.071  0.00  0.00    +0.000 Cl
BRANCH  27  35
ATOM     34  N   UNL     1      -4.767  14.309  22.092  0.00  0.00    +0.000 N 
ATOM     35  C   UNL     1      -4.285  13.038  22.299  0.00  0.00    +0.000 C 
ATOM     36  O   UNL     1      -4.671  12.385  23.257  0.00  0.00    +0.000 OA
ATOM     37  H   UNL     1      -5.451  14.697  22.725  0.00  0.00    +0.000 HD
ATOM     38  H   UNL     1      -4.454  14.831  21.279  0.00  0.00    +0.000 HD
ENDBRANCH  27  35
ENDBRANCH  26  31
ENDBRANCH   1  26
TORSDOF 7
ENDMDL
MODEL 5
REMARK VINA RESULT:      -8.7      3.751      5.072
REMARK  Name = 
REMARK  7 active torsions:
REMARK  status: ('A' for Active; 'I' for Inactive)
REMARK    1  A    between atoms: C_2  and  C_4
REMARK    2  A    between atoms: C_8  and  O_9
REMARK    3  A    between atoms: O_9  and  C_10
REMARK    4  A    between atoms: C_13  and  N_14
REMARK    5  A    between atoms: C_15  and  C_17
REMARK    6  A    between atoms: C_17  and  C_18
REMARK    7  A    between atoms: N_20  and  C_21
REMARK                            x       y       z     vdW  Elec       q    Type
REMARK                         _______ _______ _______ _____ _____    ______ ____
ROOT
ATOM      1  C   UNL     1       2.162   7.215  18.555  0.00  0.00    +0.000 A 
ATOM      2  C   UNL     1       2.112   8.343  17.741  0.00  0.00    +0.000 A 
ATOM      3  C   UNL     1       1.716   9.571  18.274  0.00  0.00    +0.000 A 
ATOM      4  C   UNL     1       1.365   9.680  19.623  0.00  0.00    +0.000 A 
ATOM      5  C   UNL     1       1.485   8.569  20.457  0.00  0.00    +0.000 A 
ATOM      6  C   UNL     1       1.838   7.339  19.911  0.00  0.00    +0.000 A 
ATOM      7  F   UNL     1       1.845   6.275  20.729  0.00  0.00    +0.000 F 
ENDROOT
BRANCH   4   8
ATOM      8  N   UNL     1       0.855  10.862  20.183  0.00  0.00    +0.000 N 
ATOM      9  C   UNL     1      -0.448  11.299  20.073  0.00  0.00    +0.000 C 
ATOM     10  O   UNL     1      -1.372  10.755  19.484  0.00  0.00    +0.000 OA
ATOM     11  H   UNL     1       1.462  11.390  20.800  0.00  0.00    +0.000 HD
BRANCH   9  12
ATOM     12  C   UNL     1      -0.710  12.593  20.770  0.00  0.00    +0.000 C 
ATOM     13  C   UNL     1      -2.172  12.950  21.001  0.00  0.00    +0.000 C 
ATOM     14  C   UNL     1      -1.320  12.608  22.179  0.00  0.00    +0.000 C 
BRANCH  12  15
ATOM     15  C   UNL     1       0.405  13.560  20.594  0.00  0.00    +0.000 C 
ATOM     16  O   UNL     1       1.311  13.512  21.414  0.00  0.00    +0.000 OA
ATOM     17  N   UNL     1       0.349  14.413  19.503  0.00  0.00    +0.000 N 
ATOM     18  H   UNL     1      -0.564  14.677  19.155  0.00  0.00    +0.000 HD
BRANCH  17  19
ATOM     19  C   UNL     1       1.459  15.237  19.236  0.00  0.00    +0.000 A 
ATOM     20  C   UNL     1       2.487  14.770  18.403  0.00  0.00    +0.000 A 
ATOM     21  C   UNL     1       3.683  15.470  18.303  0.00  0.00    +0.000 A 
ATOM     22  C   UNL     1       3.844  16.639  19.034  0.00  0.00    +0.000 A 
ATOM     23  F   UNL     1       5.025  17.270  19.015  0.00  0.00    +0.000 F 
ATOM     24  C   UNL     1       2.804  17.148  19.809  0.00  0.00    +0.000 A 
ATOM     25  C   UNL     1       1.586  16.464  19.884  0.00  0.00    +0.000 A 
ENDBRANCH  17  19
ENDBRANCH  12  15
ENDBRANCH   9  12
ENDBRANCH   4   8
BRANCH   1  26
ATOM     26  O   UNL     1       2.489   6.038  17.916  0.00  0.00    +0.000 OA
BRANCH  26  31
ATOM     27  C   UNL     1       4.628   3.420  19.265  0.00  0.00    +0.000 A 
ATOM     28  N   UNL     1       5.883   3.980  19.157  0.00  0.00    +0.000 NA
ATOM     29  C   UNL     1       5.975   5.198  18.596  0.00  0.00    +0.000 A 
ATOM     30  C   UNL     1       4.884   5.903  18.137  0.00  0.00    +0.000 A 
ATOM     31  C   UNL     1       3.614   5.350  18.316  0.00  0.00    +0.000 A 
ATOM     32  C   UNL     1       3.464   4.064  18.853  0.00  0.00    +0.000 A 
ATOM     33 CL   UNL     1       1.885   3.364  18.936  0.00  0.00    +0.000 Cl
BRANCH  27  35
ATOM     34  N   UNL     1       4.398   1.023  18.975  0.00  0.00    +0.000 N 
ATOM     35  C   UNL     1       4.655   2.035  19.869  0.00  0.00    +0.000 C 
ATOM     36  O   UNL     1       4.883   1.775  21.041  0.00  0.00    +0.000 OA
ATOM     37  H   UNL     1       4.411   0.062  19.286  0.00  0.00    +0.000 HD
ATOM     38  H   UNL     1       4.232   1.253  18.000  0.00  0.00    +0.000 HD
ENDBRANCH  27  35
ENDBRANCH  26  31
ENDBRANCH   1  26
TORSDOF 7
ENDMDL
MODEL 6
REMARK VINA RESULT:      -8.6      3.840      9.982
REMARK  Name = 
REMARK  7 active torsions:
REMARK  status: ('A' for Active; 'I' for Inactive)
REMARK    1  A    between atoms: C_2  and  C_4
REMARK    2  A    between atoms: C_8  and  O_9
REMARK    3  A    between atoms: O_9  and  C_10
REMARK    4  A    between atoms: C_13  and  N_14
REMARK    5  A    between atoms: C_15  and  C_17
REMARK    6  A    between atoms: C_17  and  C_18
REMARK    7  A    between atoms: N_20  and  C_21
REMARK                            x       y       z     vdW  Elec       q    Type
REMARK                         _______ _______ _______ _____ _____    ______ ____
ROOT
ATOM      1  C   UNL     1       0.510  10.618  20.707  0.00  0.00    +0.000 A 
ATOM      2  C   UNL     1       0.953  10.214  19.450  0.00  0.00    +0.000 A 
ATOM      3  C   UNL     1       1.506   8.944  19.281  0.00  0.00    +0.000 A 
ATOM      4  C   UNL     1       1.625   8.069  20.365  0.00  0.00    +0.000 A 
ATOM      5  C   UNL     1       1.116   8.443  21.608  0.00  0.00    +0.000 A 
ATOM      6  C   UNL     1       0.606   9.726  21.781  0.00  0.00    +0.000 A 
ATOM      7  F   UNL     1       0.218  10.079  23.016  0.00  0.00    +0.000 F 
ENDROOT
BRANCH   4   8
ATOM      8  N   UNL     1       2.273   6.828  20.274  0.00  0.00    +0.000 N 
ATOM      9  C   UNL     1       1.660   5.597  20.385  0.00  0.00    +0.000 C 
ATOM     10  O   UNL     1       0.474   5.367  20.579  0.00  0.00    +0.000 OA
ATOM     11  H   UNL     1       3.252   6.827  20.008  0.00  0.00    +0.000 HD
BRANCH   9  12
ATOM     12  C   UNL     1       2.597   4.443  20.247  0.00  0.00    +0.000 C 
ATOM     13  C   UNL     1       2.722   3.529  21.458  0.00  0.00    +0.000 C 
ATOM     14  C   UNL     1       2.060   3.005  20.226  0.00  0.00    +0.000 C 
BRANCH  12  15
ATOM     15  C   UNL     1       3.655   4.698  19.236  0.00  0.00    +0.000 C 
ATOM     16  O   UNL     1       4.802   4.800  19.650  0.00  0.00    +0.000 OA
ATOM     17  N   UNL     1       3.269   4.767  17.906  0.00  0.00    +0.000 N 
ATOM     18  H   UNL     1       2.332   5.092  17.703  0.00  0.00    +0.000 HD
BRANCH  17  19
ATOM     19  C   UNL     1       4.269   4.865  16.920  0.00  0.00    +0.000 A 
ATOM     20  C   UNL     1       4.826   3.697  16.377  0.00  0.00    +0.000 A 
ATOM     21  C   UNL     1       5.956   3.767  15.571  0.00  0.00    +0.000 A 
ATOM     22  C   UNL     1       6.521   5.006  15.308  0.00  0.00    +0.000 A 
ATOM     23  F   UNL     1       7.662   5.075  14.609  0.00  0.00    +0.000 F 
ATOM     24  C   UNL     1       5.935   6.177  15.785  0.00  0.00    +0.000 A 
ATOM     25  C   UNL     1       4.777   6.113  16.567  0.00  0.00    +0.000 A 
ENDBRANCH  17  19
ENDBRANCH  12  15
ENDBRANCH   9  12
ENDBRANCH   4   8
BRANCH   1  26
ATOM     26  O   UNL     1       0.053  11.916  20.784  0.00  0.00    +0.000 OA
BRANCH  26  31
ATOM     27  C   UNL     1      -3.384  12.842  21.548  0.00  0.00    +0.000 A 
ATOM     28  N   UNL     1      -4.023  12.614  20.348  0.00  0.00    +0.000 NA
ATOM     29  C   UNL     1      -3.274  12.199  19.311  0.00  0.00    +0.000 A 
ATOM     30  C   UNL     1      -1.916  11.989  19.397  0.00  0.00    +0.000 A 
ATOM     31  C   UNL     1      -1.295  12.160  20.637  0.00  0.00    +0.000 A 
ATOM     32  C   UNL     1      -2.020  12.635  21.739  0.00  0.00    +0.000 A 
ATOM     33 CL   UNL     1      -1.187  12.956  23.220  0.00  0.00    +0.000 Cl
BRANCH  27  35
ATOM     34  N   UNL     1      -5.242  12.421  23.048  0.00  0.00    +0.000 N 
ATOM     35  C   UNL     1      -4.318  13.345  22.623  0.00  0.00    +0.000 C 
ATOM     36  O   UNL     1      -4.300  14.465  23.113  0.00  0.00    +0.000 OA
ATOM     37  H   UNL     1      -5.898  12.663  23.777  0.00  0.00    +0.000 HD
ATOM     38  H   UNL     1      -5.230  11.488  22.647  0.00  0.00    +0.000 HD
ENDBRANCH  27  35
ENDBRANCH  26  31
ENDBRANCH   1  26
TORSDOF 7
ENDMDL
MODEL 7
REMARK VINA RESULT:      -8.6      3.931     10.056
REMARK  Name = 
REMARK  7 active torsions:
REMARK  status: ('A' for Active; 'I' for Inactive)
REMARK    1  A    between atoms: C_2  and  C_4
REMARK    2  A    between atoms: C_8  and  O_9
REMARK    3  A    between atoms: O_9  and  C_10
REMARK    4  A    between atoms: C_13  and  N_14
REMARK    5  A    between atoms: C_15  and  C_17
REMARK    6  A    between atoms: C_17  and  C_18
REMARK    7  A    between atoms: N_20  and  C_21
REMARK                            x       y       z     vdW  Elec       q    Type
REMARK                         _______ _______ _______ _____ _____    ______ ____
ROOT
ATOM      1  C   UNL     1      -0.147  11.365  21.694  0.00  0.00    +0.000 A 
ATOM      2  C   UNL     1      -0.322  10.395  22.678  0.00  0.00    +0.000 A 
ATOM      3  C   UNL     1       0.236   9.127  22.516  0.00  0.00    +0.000 A 
ATOM      4  C   UNL     1       0.972   8.815  21.368  0.00  0.00    +0.000 A 
ATOM      5  C   UNL     1       1.211   9.805  20.416  0.00  0.00    +0.000 A 
ATOM      6  C   UNL     1       0.616  11.054  20.562  0.00  0.00    +0.000 A 
ATOM      7  F   UNL     1       0.791  11.945  19.575  0.00  0.00    +0.000 F 
ENDROOT
BRANCH   4   8
ATOM      8  N   UNL     1       1.459   7.526  21.104  0.00  0.00    +0.000 N 
ATOM      9  C   UNL     1       2.064   7.127  19.931  0.00  0.00    +0.000 C 
ATOM     10  O   UNL     1       2.282   7.802  18.934  0.00  0.00    +0.000 OA
ATOM     11  H   UNL     1       1.457   6.857  21.866  0.00  0.00    +0.000 HD
BRANCH   9  12
ATOM     12  C   UNL     1       2.484   5.694  19.926  0.00  0.00    +0.000 C 
ATOM     13  C   UNL     1       2.122   4.883  21.162  0.00  0.00    +0.000 C 
ATOM     14  C   UNL     1       1.432   4.576  19.873  0.00  0.00    +0.000 C 
BRANCH  12  15
ATOM     15  C   UNL     1       3.651   5.455  19.039  0.00  0.00    +0.000 C 
ATOM     16  O   UNL     1       4.708   5.164  19.582  0.00  0.00    +0.000 OA
ATOM     17  N   UNL     1       3.447   5.546  17.671  0.00  0.00    +0.000 N 
ATOM     18  H   UNL     1       2.723   6.172  17.341  0.00  0.00    +0.000 HD
BRANCH  17  19
ATOM     19  C   UNL     1       4.499   5.184  16.808  0.00  0.00    +0.000 A 
ATOM     20  C   UNL     1       5.094   6.157  15.991  0.00  0.00    +0.000 A 
ATOM     21  C   UNL     1       5.976   5.785  14.983  0.00  0.00    +0.000 A 
ATOM     22  C   UNL     1       6.262   4.440  14.801  0.00  0.00    +0.000 A 
ATOM     23  F   UNL     1       7.038   4.065  13.774  0.00  0.00    +0.000 F 
ATOM     24  C   UNL     1       5.731   3.472  15.651  0.00  0.00    +0.000 A 
ATOM     25  C   UNL     1       4.871   3.846  16.688  0.00  0.00    +0.000 A 
ENDBRANCH  17  19
ENDBRANCH  12  15
ENDBRANCH   9  12
ENDBRANCH   4   8
BRANCH   1  26
ATOM     26  O   UNL     1      -0.803  12.556  21.913  0.00  0.00    +0.000 OA
BRANCH  26  31
ATOM     27  C   UNL     1      -4.390  12.561  21.294  0.00  0.00    +0.000 A 
ATOM     28  N   UNL     1      -4.909  12.547  22.570  0.00  0.00    +0.000 NA
ATOM     29  C   UNL     1      -4.041  12.493  23.596  0.00  0.00    +0.000 A 
ATOM     30  C   UNL     1      -2.675  12.458  23.427  0.00  0.00    +0.000 A 
ATOM     31  C   UNL     1      -2.164  12.540  22.130  0.00  0.00    +0.000 A 
ATOM     32  C   UNL     1      -3.024  12.552  21.023  0.00  0.00    +0.000 A 
ATOM     33 CL   UNL     1      -2.349  12.523  19.431  0.00  0.00    +0.000 Cl
BRANCH  27  35
ATOM     34  N   UNL     1      -5.441  13.693  19.424  0.00  0.00    +0.000 N 
ATOM     35  C   UNL     1      -5.460  12.577  20.227  0.00  0.00    +0.000 C 
ATOM     36  O   UNL     1      -6.294  11.704  20.042  0.00  0.00    +0.000 OA
ATOM     37  H   UNL     1      -6.109  13.784  18.672  0.00  0.00    +0.000 HD
ATOM     38  H   UNL     1      -4.727  14.401  19.575  0.00  0.00    +0.000 HD
ENDBRANCH  27  35
ENDBRANCH  26  31
ENDBRANCH   1  26
TORSDOF 7
ENDMDL
MODEL 8
REMARK VINA RESULT:      -8.6      4.008      9.733
REMARK  Name = 
REMARK  7 active torsions:
REMARK  status: ('A' for Active; 'I' for Inactive)
REMARK    1  A    between atoms: C_2  and  C_4
REMARK    2  A    between atoms: C_8  and  O_9
REMARK    3  A    between atoms: O_9  and  C_10
REMARK    4  A    between atoms: C_13  and  N_14
REMARK    5  A    between atoms: C_15  and  C_17
REMARK    6  A    between atoms: C_17  and  C_18
REMARK    7  A    between atoms: N_20  and  C_21
REMARK                            x       y       z     vdW  Elec       q    Type
REMARK                         _______ _______ _______ _____ _____    ______ ____
ROOT
ATOM      1  C   UNL     1       0.443   9.898  20.247  0.00  0.00    +0.000 A 
ATOM      2  C   UNL     1       0.538   9.103  21.386  0.00  0.00    +0.000 A 
ATOM      3  C   UNL     1       1.264   7.912  21.348  0.00  0.00    +0.000 A 
ATOM      4  C   UNL     1       1.900   7.504  20.171  0.00  0.00    +0.000 A 
ATOM      5  C   UNL     1       1.869   8.334  19.051  0.00  0.00    +0.000 A 
ATOM      6  C   UNL     1       1.107   9.498  19.081  0.00  0.00    +0.000 A 
ATOM      7  F   UNL     1       1.023  10.215  17.951  0.00  0.00    +0.000 F 
ENDROOT
BRANCH   4   8
ATOM      8  N   UNL     1       2.548   6.266  20.046  0.00  0.00    +0.000 N 
ATOM      9  C   UNL     1       1.958   5.034  20.236  0.00  0.00    +0.000 C 
ATOM     10  O   UNL     1       0.796   4.800  20.540  0.00  0.00    +0.000 OA
ATOM     11  H   UNL     1       3.498   6.266  19.693  0.00  0.00    +0.000 HD
BRANCH   9  12
ATOM     12  C   UNL     1       2.888   3.883  20.038  0.00  0.00    +0.000 C 
ATOM     13  C   UNL     1       3.006   2.905  21.197  0.00  0.00    +0.000 C 
ATOM     14  C   UNL     1       2.343   2.451  19.938  0.00  0.00    +0.000 C 
BRANCH  12  15
ATOM     15  C   UNL     1       3.949   4.186  19.042  0.00  0.00    +0.000 C 
ATOM     16  O   UNL     1       5.107   4.032  19.405  0.00  0.00    +0.000 OA
ATOM     17  N   UNL     1       3.547   4.585  17.777  0.00  0.00    +0.000 N 
ATOM     18  H   UNL     1       2.666   5.077  17.694  0.00  0.00    +0.000 HD
BRANCH  17  19
ATOM     19  C   UNL     1       4.526   4.738  16.777  0.00  0.00    +0.000 A 
ATOM     20  C   UNL     1       5.000   3.611  16.088  0.00  0.00    +0.000 A 
ATOM     21  C   UNL     1       6.112   3.709  15.261  0.00  0.00    +0.000 A 
ATOM     22  C   UNL     1       6.743   4.937  15.122  0.00  0.00    +0.000 A 
ATOM     23  F   UNL     1       7.869   5.020  14.401  0.00  0.00    +0.000 F 
ATOM     24  C   UNL     1       6.240   6.076  15.747  0.00  0.00    +0.000 A 
ATOM     25  C   UNL     1       5.100   5.988  16.552  0.00  0.00    +0.000 A 
ENDBRANCH  17  19
ENDBRANCH  12  15
ENDBRANCH   9  12
ENDBRANCH   4   8
BRANCH   1  26
ATOM     26  O   UNL     1      -0.360  11.011  20.367  0.00  0.00    +0.000 OA
BRANCH  26  31
ATOM     27  C   UNL     1      -0.041  14.048  22.349  0.00  0.00    +0.000 A 
ATOM     28  N   UNL     1       1.215  14.496  22.000  0.00  0.00    +0.000 NA
ATOM     29  C   UNL     1       1.930  13.744  21.146  0.00  0.00    +0.000 A 
ATOM     30  C   UNL     1       1.466  12.564  20.607  0.00  0.00    +0.000 A 
ATOM     31  C   UNL     1       0.166  12.159  20.918  0.00  0.00    +0.000 A 
ATOM     32  C   UNL     1      -0.607  12.882  21.839  0.00  0.00    +0.000 A 
ATOM     33 CL   UNL     1      -2.160  12.275  22.295  0.00  0.00    +0.000 Cl
BRANCH  27  35
ATOM     34  N   UNL     1      -1.180  16.137  22.816  0.00  0.00    +0.000 N 
ATOM     35  C   UNL     1      -0.729  14.951  23.345  0.00  0.00    +0.000 C 
ATOM     36  O   UNL     1      -0.902  14.703  24.529  0.00  0.00    +0.000 OA
ATOM     37  H   UNL     1      -1.668  16.798  23.405  0.00  0.00    +0.000 HD
ATOM     38  H   UNL     1      -1.049  16.320  21.826  0.00  0.00    +0.000 HD
ENDBRANCH  27  35
ENDBRANCH  26  31
ENDBRANCH   1  26
TORSDOF 7
ENDMDL
MODEL 9
REMARK VINA RESULT:      -8.6      3.133      9.391
REMARK  Name = 
REMARK  7 active torsions:
REMARK  status: ('A' for Active; 'I' for Inactive)
REMARK    1  A    between atoms: C_2  and  C_4
REMARK    2  A    between atoms: C_8  and  O_9
REMARK    3  A    between atoms: O_9  and  C_10
REMARK    4  A    between atoms: C_13  and  N_14
REMARK    5  A    between atoms: C_15  and  C_17
REMARK    6  A    between atoms: C_17  and  C_18
REMARK    7  A    between atoms: N_20  and  C_21
REMARK                            x       y       z     vdW  Elec       q    Type
REMARK                         _______ _______ _______ _____ _____    ______ ____
ROOT
ATOM      1  C   UNL     1       0.994  10.009  19.339  0.00  0.00    +0.000 A 
ATOM      2  C   UNL     1       1.470   9.347  18.211  0.00  0.00    +0.000 A 
ATOM      3  C   UNL     1       1.975   8.051  18.323  0.00  0.00    +0.000 A 
ATOM      4  C   UNL     1       2.012   7.407  19.564  0.00  0.00    +0.000 A 
ATOM      5  C   UNL     1       1.469   8.038  20.682  0.00  0.00    +0.000 A 
ATOM      6  C   UNL     1       1.007   9.346  20.573  0.00  0.00    +0.000 A 
ATOM      7  F   UNL     1       0.584   9.951  21.693  0.00  0.00    +0.000 F 
ENDROOT
BRANCH   4   8
ATOM      8  N   UNL     1       2.610   6.151  19.752  0.00  0.00    +0.000 N 
ATOM      9  C   UNL     1       1.942   4.991  20.085  0.00  0.00    +0.000 C 
ATOM     10  O   UNL     1       0.742   4.847  20.273  0.00  0.00    +0.000 OA
ATOM     11  H   UNL     1       3.595   6.062  19.531  0.00  0.00    +0.000 HD
BRANCH   9  12
ATOM     12  C   UNL     1       2.833   3.801  20.221  0.00  0.00    +0.000 C 
ATOM     13  C   UNL     1       2.726   3.026  21.526  0.00  0.00    +0.000 C 
ATOM     14  C   UNL     1       2.238   2.386  20.268  0.00  0.00    +0.000 C 
BRANCH  12  15
ATOM     15  C   UNL     1       4.046   3.909  19.369  0.00  0.00    +0.000 C 
ATOM     16  O   UNL     1       5.069   3.392  19.796  0.00  0.00    +0.000 OA
ATOM     17  N   UNL     1       3.917   4.552  18.148  0.00  0.00    +0.000 N 
ATOM     18  H   UNL     1       3.217   5.279  18.068  0.00  0.00    +0.000 HD
BRANCH  17  19
ATOM     19  C   UNL     1       5.012   4.541  17.263  0.00  0.00    +0.000 A 
ATOM     20  C   UNL     1       6.066   5.448  17.450  0.00  0.00    +0.000 A 
ATOM     21  C   UNL     1       7.042   5.603  16.473  0.00  0.00    +0.000 A 
ATOM     22  C   UNL     1       6.961   4.845  15.313  0.00  0.00    +0.000 A 
ATOM     23  F   UNL     1       7.844   5.053  14.327  0.00  0.00    +0.000 F 
ATOM     24  C   UNL     1       5.958   3.892  15.148  0.00  0.00    +0.000 A 
ATOM     25  C   UNL     1       4.995   3.709  16.146  0.00  0.00    +0.000 A 
ENDBRANCH  17  19
ENDBRANCH  12  15
ENDBRANCH   9  12
ENDBRANCH   4   8
BRANCH   1  26
ATOM     26  O   UNL     1       0.590  11.310  19.136  0.00  0.00    +0.000 OA
BRANCH  26  31
ATOM     27  C   UNL     1      -3.025  11.666  18.883  0.00  0.00    +0.000 A 
ATOM     28  N   UNL     1      -3.327  12.402  20.008  0.00  0.00    +0.000 NA
ATOM     29  C   UNL     1      -2.316  12.718  20.837  0.00  0.00    +0.000 A 
ATOM     30  C   UNL     1      -1.009  12.348  20.610  0.00  0.00    +0.000 A 
ATOM     31  C   UNL     1      -0.710  11.661  19.431  0.00  0.00    +0.000 A 
ATOM     32  C   UNL     1      -1.731  11.266  18.555  0.00  0.00    +0.000 A 
ATOM     33 CL   UNL     1      -1.332  10.304  17.175  0.00  0.00    +0.000 Cl
BRANCH  27  35
ATOM     34  N   UNL     1      -4.327  12.026  16.870  0.00  0.00    +0.000 N 
ATOM     35  C   UNL     1      -4.244  11.335  18.055  0.00  0.00    +0.000 C 
ATOM     36  O   UNL     1      -5.112  10.530  18.357  0.00  0.00    +0.000 OA
ATOM     37  H   UNL     1      -5.100  11.858  16.242  0.00  0.00    +0.000 HD
ATOM     38  H   UNL     1      -3.586  12.675  16.621  0.00  0.00    +0.000 HD
ENDBRANCH  27  35
ENDBRANCH  26  31
ENDBRANCH   1  26
TORSDOF 7
ENDMDL
