MODEL 1
REMARK VINA RESULT:      -7.9      0.000      0.000
REMARK  Name = 
REMARK  3 active torsions:
REMARK  status: ('A' for Active; 'I' for Inactive)
REMARK    1  A    between atoms: C_2  and  C_3
REMARK    2  A    between atoms: C_4  and  C_5
REMARK    3  A    between atoms: C_15  and  C_16
REMARK                            x       y       z     vdW  Elec       q    Type
REMARK                         _______ _______ _______ _____ _____    ______ ____
ROOT
ATOM      1  O   UNL     1       0.889   9.633  23.278  0.00  0.00    +0.000 OA
ATOM      2  C   UNL     1       0.668   9.554  22.073  0.00  0.00    +0.000 C 
ATOM      3  N   UNL     1      -0.294  10.297  21.408  0.00  0.00    +0.000 N 
ATOM      4  C   UNL     1      -0.726  10.101  20.025  0.00  0.00    +0.000 C 
ATOM      5  C   UNL     1      -0.672  11.425  19.264  0.00  0.00    +0.000 C 
ATOM      6  C   UNL     1      -1.414  12.559  19.990  0.00  0.00    +0.000 C 
ATOM      7  C   UNL     1      -1.035  12.626  21.478  0.00  0.00    +0.000 C 
ATOM      8  C   UNL     1      -1.089  11.260  22.160  0.00  0.00    +0.000 C 
ENDROOT
BRANCH   6   9
ATOM      9  C   UNL     1      -2.894  12.461  19.807  0.00  0.00    +0.000 A 
ATOM     10  N   UNL     1      -3.864  12.869  20.603  0.00  0.00    +0.000 NA
ATOM     11  C   UNL     1      -5.006  12.476  19.953  0.00  0.00    +0.000 A 
ATOM     12  C   UNL     1      -6.357  12.608  20.299  0.00  0.00    +0.000 A 
ATOM     13  C   UNL     1      -7.318  12.086  19.418  0.00  0.00    +0.000 A 
ATOM     14  C   UNL     1      -6.940  11.453  18.225  0.00  0.00    +0.000 A 
ATOM     15  C   UNL     1      -5.594  11.316  17.867  0.00  0.00    +0.000 A 
ATOM     16  C   UNL     1      -4.676  11.842  18.767  0.00  0.00    +0.000 A 
ATOM     17  O   UNL     1      -3.317  11.832  18.663  0.00  0.00    +0.000 OA
ENDBRANCH   6   9
BRANCH   2  18
ATOM     18  C   UNL     1       1.486   8.648  21.236  0.00  0.00    +0.000 C 
ATOM     19  C   UNL     1       1.161   7.349  21.145  0.00  0.00    +0.000 C 
BRANCH  19  20
ATOM     20  C   UNL     1       1.921   6.385  20.340  0.00  0.00    +0.000 A 
ATOM     21  C   UNL     1       2.663   6.777  19.215  0.00  0.00    +0.000 A 
ATOM     22  C   UNL     1       3.375   5.838  18.466  0.00  0.00    +0.000 A 
ATOM     23  C   UNL     1       3.366   4.500  18.847  0.00  0.00    +0.000 A 
ATOM     24 CL   UNL     1       4.237   3.343  17.920  0.00  0.00    +0.000 Cl
ATOM     25  C   UNL     1       2.658   4.096  19.976  0.00  0.00    +0.000 A 
ATOM     26  C   UNL     1       1.941   5.036  20.724  0.00  0.00    +0.000 A 
ENDBRANCH  19  20
ENDBRANCH   2  18
TORSDOF 3
ENDMDL
MODEL 2
REMARK VINA RESULT:      -7.8      0.746      1.200
REMARK  Name = 
REMARK  3 active torsions:
REMARK  status: ('A' for Active; 'I' for Inactive)
REMARK    1  A    between atoms: C_2  and  C_3
REMARK    2  A    between atoms: C_4  and  C_5
REMARK    3  A    between atoms: C_15  and  C_16
REMARK                            x       y       z     vdW  Elec       q    Type
REMARK                         _______ _______ _______ _____ _____    ______ ____
ROOT
ATOM      1  O   UNL     1       1.452   9.428  22.636  0.00  0.00    +0.000 OA
ATOM      2  C   UNL     1       1.049   9.217  21.496  0.00  0.00    +0.000 C 
ATOM      3  N   UNL     1       0.075   9.970  20.862  0.00  0.00    +0.000 N 
ATOM      4  C   UNL     1      -0.572   9.644  19.592  0.00  0.00    +0.000 C 
ATOM      5  C   UNL     1      -0.506  10.841  18.646  0.00  0.00    +0.000 C 
ATOM      6  C   UNL     1      -1.025  12.138  19.289  0.00  0.00    +0.000 C 
ATOM      7  C   UNL     1      -0.427  12.356  20.688  0.00  0.00    +0.000 C 
ATOM      8  C   UNL     1      -0.508  11.107  21.563  0.00  0.00    +0.000 C 
ENDROOT
BRANCH   6   9
ATOM      9  C   UNL     1      -2.518  12.184  19.320  0.00  0.00    +0.000 A 
ATOM     10  N   UNL     1      -3.320  12.699  20.232  0.00  0.00    +0.000 NA
ATOM     11  C   UNL     1      -4.576  12.411  19.762  0.00  0.00    +0.000 A 
ATOM     12  C   UNL     1      -5.844  12.683  20.290  0.00  0.00    +0.000 A 
ATOM     13  C   UNL     1      -6.968  12.246  19.570  0.00  0.00    +0.000 A 
ATOM     14  C   UNL     1      -6.828  11.560  18.355  0.00  0.00    +0.000 A 
ATOM     15  C   UNL     1      -5.566  11.284  17.815  0.00  0.00    +0.000 A 
ATOM     16  C   UNL     1      -4.482  11.730  18.560  0.00  0.00    +0.000 A 
ATOM     17  O   UNL     1      -3.159  11.583  18.266  0.00  0.00    +0.000 OA
ENDBRANCH   6   9
BRANCH   2  18
ATOM     18  C   UNL     1       1.648   8.122  20.700  0.00  0.00    +0.000 C 
ATOM     19  C   UNL     1       1.381   6.845  21.015  0.00  0.00    +0.000 C 
BRANCH  19  20
ATOM     20  C   UNL     1       1.935   5.703  20.280  0.00  0.00    +0.000 A 
ATOM     21  C   UNL     1       2.043   4.428  20.857  0.00  0.00    +0.000 A 
ATOM     22  C   UNL     1       2.576   3.358  20.135  0.00  0.00    +0.000 A 
ATOM     23  C   UNL     1       2.990   3.551  18.820  0.00  0.00    +0.000 A 
ATOM     24 CL   UNL     1       3.654   2.235  17.933  0.00  0.00    +0.000 Cl
ATOM     25  C   UNL     1       2.866   4.801  18.221  0.00  0.00    +0.000 A 
ATOM     26  C   UNL     1       2.336   5.874  18.946  0.00  0.00    +0.000 A 
ENDBRANCH  19  20
ENDBRANCH   2  18
TORSDOF 3
ENDMDL
MODEL 3
REMARK VINA RESULT:      -7.7      0.963      1.439
REMARK  Name = 
REMARK  3 active torsions:
REMARK  status: ('A' for Active; 'I' for Inactive)
REMARK    1  A    between atoms: C_2  and  C_3
REMARK    2  A    between atoms: C_4  and  C_5
REMARK    3  A    between atoms: C_15  and  C_16
REMARK                            x       y       z     vdW  Elec       q    Type
REMARK                         _______ _______ _______ _____ _____    ______ ____
ROOT
ATOM      1  O   UNL     1       0.746   9.538  23.745  0.00  0.00    +0.000 OA
ATOM      2  C   UNL     1       0.526   9.704  22.549  0.00  0.00    +0.000 C 
ATOM      3  N   UNL     1      -0.486  10.505  22.048  0.00  0.00    +0.000 N 
ATOM      4  C   UNL     1      -0.910  10.581  20.650  0.00  0.00    +0.000 C 
ATOM      5  C   UNL     1      -0.948  12.037  20.191  0.00  0.00    +0.000 C 
ATOM      6  C   UNL     1      -1.763  12.938  21.134  0.00  0.00    +0.000 C 
ATOM      7  C   UNL     1      -1.384  12.710  22.606  0.00  0.00    +0.000 C 
ATOM      8  C   UNL     1      -1.342  11.230  22.980  0.00  0.00    +0.000 C 
ENDROOT
BRANCH   6   9
ATOM      9  C   UNL     1      -3.234  12.782  20.919  0.00  0.00    +0.000 A 
ATOM     10  N   UNL     1      -4.221  12.873  21.789  0.00  0.00    +0.000 NA
ATOM     11  C   UNL     1      -5.339  12.592  21.045  0.00  0.00    +0.000 A 
ATOM     12  C   UNL     1      -6.691  12.518  21.402  0.00  0.00    +0.000 A 
ATOM     13  C   UNL     1      -7.622  12.193  20.402  0.00  0.00    +0.000 A 
ATOM     14  C   UNL     1      -7.213  11.952  19.083  0.00  0.00    +0.000 A 
ATOM     15  C   UNL     1      -5.865  12.026  18.711  0.00  0.00    +0.000 A 
ATOM     16  C   UNL     1      -4.978  12.346  19.731  0.00  0.00    +0.000 A 
ATOM     17  O   UNL     1      -3.623  12.470  19.640  0.00  0.00    +0.000 OA
ENDBRANCH   6   9
BRANCH   2  18
ATOM     18  C   UNL     1       1.401   9.055  21.547  0.00  0.00    +0.000 C 
ATOM     19  C   UNL     1       1.080   7.845  21.065  0.00  0.00    +0.000 C 
BRANCH  19  20
ATOM     20  C   UNL     1       1.893   7.133  20.073  0.00  0.00    +0.000 A 
ATOM     21  C   UNL     1       2.212   5.773  20.210  0.00  0.00    +0.000 A 
ATOM     22  C   UNL     1       2.990   5.120  19.252  0.00  0.00    +0.000 A 
ATOM     23  C   UNL     1       3.441   5.819  18.136  0.00  0.00    +0.000 A 
ATOM     24 CL   UNL     1       4.406   5.017  16.959  0.00  0.00    +0.000 Cl
ATOM     25  C   UNL     1       3.113   7.162  17.968  0.00  0.00    +0.000 A 
ATOM     26  C   UNL     1       2.337   7.816  18.931  0.00  0.00    +0.000 A 
ENDBRANCH  19  20
ENDBRANCH   2  18
TORSDOF 3
ENDMDL
MODEL 4
REMARK VINA RESULT:      -7.7      2.053      2.720
REMARK  Name = 
REMARK  3 active torsions:
REMARK  status: ('A' for Active; 'I' for Inactive)
REMARK    1  A    between atoms: C_2  and  C_3
REMARK    2  A    between atoms: C_4  and  C_5
REMARK    3  A    between atoms: C_15  and  C_16
REMARK                            x       y       z     vdW  Elec       q    Type
REMARK                         _______ _______ _______ _____ _____    ______ ____
ROOT
ATOM      1  O   UNL     1       1.806   7.276  21.017  0.00  0.00    +0.000 OA
ATOM      2  C   UNL     1       1.720   7.894  19.959  0.00  0.00    +0.000 C 
ATOM      3  N   UNL     1       0.872   8.968  19.752  0.00  0.00    +0.000 N 
ATOM      4  C   UNL     1       0.593   9.607  18.466  0.00  0.00    +0.000 C 
ATOM      5  C   UNL     1       0.786  11.118  18.578  0.00  0.00    +0.000 C 
ATOM      6  C   UNL     1       0.011  11.732  19.755  0.00  0.00    +0.000 C 
ATOM      7  C   UNL     1       0.219  10.933  21.051  0.00  0.00    +0.000 C 
ATOM      8  C   UNL     1       0.034   9.431  20.852  0.00  0.00    +0.000 C 
ENDROOT
BRANCH   6   9
ATOM      9  C   UNL     1      -1.441  11.894  19.441  0.00  0.00    +0.000 A 
ATOM     10  N   UNL     1      -2.404  12.414  20.178  0.00  0.00    +0.000 NA
ATOM     11  C   UNL     1      -3.527  12.254  19.407  0.00  0.00    +0.000 A 
ATOM     12  C   UNL     1      -4.865  12.591  19.645  0.00  0.00    +0.000 A 
ATOM     13  C   UNL     1      -5.810  12.287  18.651  0.00  0.00    +0.000 A 
ATOM     14  C   UNL     1      -5.428  11.666  17.454  0.00  0.00    +0.000 A 
ATOM     15  C   UNL     1      -4.093  11.325  17.202  0.00  0.00    +0.000 A 
ATOM     16  C   UNL     1      -3.193  11.640  18.211  0.00  0.00    +0.000 A 
ATOM     17  O   UNL     1      -1.849  11.408  18.223  0.00  0.00    +0.000 OA
ENDBRANCH   6   9
BRANCH   2  18
ATOM     18  C   UNL     1       2.593   7.523  18.822  0.00  0.00    +0.000 C 
ATOM     19  C   UNL     1       3.050   6.266  18.715  0.00  0.00    +0.000 C 
BRANCH  19  20
ATOM     20  C   UNL     1       3.921   5.817  17.622  0.00  0.00    +0.000 A 
ATOM     21  C   UNL     1       4.659   6.720  16.841  0.00  0.00    +0.000 A 
ATOM     22  C   UNL     1       5.478   6.266  15.806  0.00  0.00    +0.000 A 
ATOM     23  C   UNL     1       5.580   4.902  15.553  0.00  0.00    +0.000 A 
ATOM     24 CL   UNL     1       6.583   4.343  14.272  0.00  0.00    +0.000 Cl
ATOM     25  C   UNL     1       4.876   3.988  16.334  0.00  0.00    +0.000 A 
ATOM     26  C   UNL     1       4.052   4.444  17.369  0.00  0.00    +0.000 A 
ENDBRANCH  19  20
ENDBRANCH   2  18
TORSDOF 3
ENDMDL
MODEL 5
REMARK VINA RESULT:      -7.7      1.043      1.592
REMARK  Name = 
REMARK  3 active torsions:
REMARK  status: ('A' for Active; 'I' for Inactive)
REMARK    1  A    between atoms: C_2  and  C_3
REMARK    2  A    between atoms: C_4  and  C_5
REMARK    3  A    between atoms: C_15  and  C_16
REMARK                            x       y       z     vdW  Elec       q    Type
REMARK                         _______ _______ _______ _____ _____    ______ ____
ROOT
ATOM      1  O   UNL     1       1.311   8.852  22.048  0.00  0.00    +0.000 OA
ATOM      2  C   UNL     1       1.006   9.055  20.876  0.00  0.00    +0.000 C 
ATOM      3  N   UNL     1      -0.006   9.910  20.472  0.00  0.00    +0.000 N 
ATOM      4  C   UNL     1      -0.532  10.036  19.114  0.00  0.00    +0.000 C 
ATOM      5  C   UNL     1      -0.542  11.502  18.688  0.00  0.00    +0.000 C 
ATOM      6  C   UNL     1      -1.242  12.415  19.710  0.00  0.00    +0.000 C 
ATOM      7  C   UNL     1      -0.760  12.137  21.142  0.00  0.00    +0.000 C 
ATOM      8  C   UNL     1      -0.754  10.648  21.482  0.00  0.00    +0.000 C 
ENDROOT
BRANCH   6   9
ATOM      9  C   UNL     1      -2.729  12.326  19.607  0.00  0.00    +0.000 A 
ATOM     10  N   UNL     1      -3.650  12.650  20.495  0.00  0.00    +0.000 NA
ATOM     11  C   UNL     1      -4.829  12.314  19.879  0.00  0.00    +0.000 A 
ATOM     12  C   UNL     1      -6.157  12.405  20.316  0.00  0.00    +0.000 A 
ATOM     13  C   UNL     1      -7.169  11.964  19.448  0.00  0.00    +0.000 A 
ATOM     14  C   UNL     1      -6.864  11.451  18.180  0.00  0.00    +0.000 A 
ATOM     15  C   UNL     1      -5.541  11.356  17.730  0.00  0.00    +0.000 A 
ATOM     16  C   UNL     1      -4.571  11.799  18.620  0.00  0.00    +0.000 A 
ATOM     17  O   UNL     1      -3.220  11.807  18.435  0.00  0.00    +0.000 OA
ENDBRANCH   6   9
BRANCH   2  18
ATOM     18  C   UNL     1       1.772   8.393  19.796  0.00  0.00    +0.000 C 
ATOM     19  C   UNL     1       2.081   7.091  19.899  0.00  0.00    +0.000 C 
BRANCH  19  20
ATOM     20  C   UNL     1       2.838   6.362  18.875  0.00  0.00    +0.000 A 
ATOM     21  C   UNL     1       2.738   4.970  18.727  0.00  0.00    +0.000 A 
ATOM     22  C   UNL     1       3.471   4.300  17.746  0.00  0.00    +0.000 A 
ATOM     23  C   UNL     1       4.299   5.021  16.890  0.00  0.00    +0.000 A 
ATOM     24 CL   UNL     1       5.208   4.195  15.686  0.00  0.00    +0.000 Cl
ATOM     25  C   UNL     1       4.391   6.406  17.003  0.00  0.00    +0.000 A 
ATOM     26  C   UNL     1       3.659   7.076  17.990  0.00  0.00    +0.000 A 
ENDBRANCH  19  20
ENDBRANCH   2  18
TORSDOF 3
ENDMDL
MODEL 6
REMARK VINA RESULT:      -7.6      1.697      2.512
REMARK  Name = 
REMARK  3 active torsions:
REMARK  status: ('A' for Active; 'I' for Inactive)
REMARK    1  A    between atoms: C_2  and  C_3
REMARK    2  A    between atoms: C_4  and  C_5
REMARK    3  A    between atoms: C_15  and  C_16
REMARK                            x       y       z     vdW  Elec       q    Type
REMARK                         _______ _______ _______ _____ _____    ______ ____
ROOT
ATOM      1  O   UNL     1       1.509   8.201  21.394  0.00  0.00    +0.000 OA
ATOM      2  C   UNL     1       1.302   8.568  20.242  0.00  0.00    +0.000 C 
ATOM      3  N   UNL     1       0.318   9.473  19.878  0.00  0.00    +0.000 N 
ATOM      4  C   UNL     1      -0.093   9.791  18.512  0.00  0.00    +0.000 C 
ATOM      5  C   UNL     1      -0.084  11.304  18.299  0.00  0.00    +0.000 C 
ATOM      6  C   UNL     1      -0.878  12.061  19.377  0.00  0.00    +0.000 C 
ATOM      7  C   UNL     1      -0.516  11.581  20.791  0.00  0.00    +0.000 C 
ATOM      8  C   UNL     1      -0.522  10.059  20.915  0.00  0.00    +0.000 C 
ENDROOT
BRANCH   6   9
ATOM      9  C   UNL     1      -2.351  11.988  19.136  0.00  0.00    +0.000 A 
ATOM     10  N   UNL     1      -3.005  11.575  18.067  0.00  0.00    +0.000 NA
ATOM     11  C   UNL     1      -4.322  11.776  18.392  0.00  0.00    +0.000 A 
ATOM     12  C   UNL     1      -5.497  11.547  17.667  0.00  0.00    +0.000 A 
ATOM     13  C   UNL     1      -6.723  11.868  18.274  0.00  0.00    +0.000 A 
ATOM     14  C   UNL     1      -6.771  12.400  19.570  0.00  0.00    +0.000 A 
ATOM     15  C   UNL     1      -5.604  12.632  20.308  0.00  0.00    +0.000 A 
ATOM     16  C   UNL     1      -4.415  12.304  19.669  0.00  0.00    +0.000 A 
ATOM     17  O   UNL     1      -3.149  12.440  20.157  0.00  0.00    +0.000 OA
ENDBRANCH   6   9
BRANCH   2  18
ATOM     18  C   UNL     1       2.164   8.067  19.147  0.00  0.00    +0.000 C 
ATOM     19  C   UNL     1       2.584   6.792  19.160  0.00  0.00    +0.000 C 
BRANCH  19  20
ATOM     20  C   UNL     1       3.441   6.218  18.116  0.00  0.00    +0.000 A 
ATOM     21  C   UNL     1       3.470   4.840  17.853  0.00  0.00    +0.000 A 
ATOM     22  C   UNL     1       4.297   4.320  16.855  0.00  0.00    +0.000 A 
ATOM     23  C   UNL     1       5.089   5.178  16.098  0.00  0.00    +0.000 A 
ATOM     24 CL   UNL     1       6.113   4.536  14.874  0.00  0.00    +0.000 Cl
ATOM     25  C   UNL     1       5.054   6.551  16.326  0.00  0.00    +0.000 A 
ATOM     26  C   UNL     1       4.229   7.071  17.329  0.00  0.00    +0.000 A 
ENDBRANCH  19  20
ENDBRANCH   2  18
TORSDOF 3
ENDMDL
MODEL 7
REMARK VINA RESULT:      -7.6      1.055      1.462
REMARK  Name = 
REMARK  3 active torsions:
REMARK  status: ('A' for Active; 'I' for Inactive)
REMARK    1  A    between atoms: C_2  and  C_3
REMARK    2  A    between atoms: C_4  and  C_5
REMARK    3  A    between atoms: C_15  and  C_16
REMARK                            x       y       z     vdW  Elec       q    Type
REMARK                         _______ _______ _______ _____ _____    ______ ____
ROOT
ATOM      1  O   UNL     1       1.290   9.549  22.504  0.00  0.00    +0.000 OA
ATOM      2  C   UNL     1       0.898   9.252  21.379  0.00  0.00    +0.000 C 
ATOM      3  N   UNL     1      -0.096   9.934  20.697  0.00  0.00    +0.000 N 
ATOM      4  C   UNL     1      -0.729   9.507  19.450  0.00  0.00    +0.000 C 
ATOM      5  C   UNL     1      -0.694  10.641  18.428  0.00  0.00    +0.000 C 
ATOM      6  C   UNL     1      -1.252  11.962  18.985  0.00  0.00    +0.000 C 
ATOM      7  C   UNL     1      -0.666  12.288  20.368  0.00  0.00    +0.000 C 
ATOM      8  C   UNL     1      -0.713  11.097  21.322  0.00  0.00    +0.000 C 
ENDROOT
BRANCH   6   9
ATOM      9  C   UNL     1      -2.746  11.967  19.011  0.00  0.00    +0.000 A 
ATOM     10  N   UNL     1      -3.600  11.439  18.154  0.00  0.00    +0.000 NA
ATOM     11  C   UNL     1      -4.826  11.793  18.655  0.00  0.00    +0.000 A 
ATOM     12  C   UNL     1      -6.122  11.542  18.187  0.00  0.00    +0.000 A 
ATOM     13  C   UNL     1      -7.202  12.052  18.927  0.00  0.00    +0.000 A 
ATOM     14  C   UNL     1      -6.992  12.789  20.101  0.00  0.00    +0.000 A 
ATOM     15  C   UNL     1      -5.702  13.045  20.581  0.00  0.00    +0.000 A 
ATOM     16  C   UNL     1      -4.664  12.526  19.819  0.00  0.00    +0.000 A 
ATOM     17  O   UNL     1      -3.326  12.639  20.058  0.00  0.00    +0.000 OA
ENDBRANCH   6   9
BRANCH   2  18
ATOM     18  C   UNL     1       1.531   8.125  20.657  0.00  0.00    +0.000 C 
ATOM     19  C   UNL     1       1.269   6.863  21.030  0.00  0.00    +0.000 C 
BRANCH  19  20
ATOM     20  C   UNL     1       1.856   5.692  20.369  0.00  0.00    +0.000 A 
ATOM     21  C   UNL     1       3.074   5.762  19.676  0.00  0.00    +0.000 A 
ATOM     22  C   UNL     1       3.610   4.632  19.054  0.00  0.00    +0.000 A 
ATOM     23  C   UNL     1       2.939   3.415  19.137  0.00  0.00    +0.000 A 
ATOM     24 CL   UNL     1       3.594   2.025  18.365  0.00  0.00    +0.000 Cl
ATOM     25  C   UNL     1       1.742   3.319  19.843  0.00  0.00    +0.000 A 
ATOM     26  C   UNL     1       1.204   4.453  20.462  0.00  0.00    +0.000 A 
ENDBRANCH  19  20
ENDBRANCH   2  18
TORSDOF 3
ENDMDL
MODEL 8
REMARK VINA RESULT:      -7.5      2.594      3.289
REMARK  Name = 
REMARK  3 active torsions:
REMARK  status: ('A' for Active; 'I' for Inactive)
REMARK    1  A    between atoms: C_2  and  C_3
REMARK    2  A    between atoms: C_4  and  C_5
REMARK    3  A    between atoms: C_15  and  C_16
REMARK                            x       y       z     vdW  Elec       q    Type
REMARK                         _______ _______ _______ _____ _____    ______ ____
ROOT
ATOM      1  O   UNL     1       2.633  10.975  17.824  0.00  0.00    +0.000 OA
ATOM      2  C   UNL     1       1.669  10.263  18.090  0.00  0.00    +0.000 C 
ATOM      3  N   UNL     1       0.482  10.731  18.627  0.00  0.00    +0.000 N 
ATOM      4  C   UNL     1      -0.613   9.907  19.139  0.00  0.00    +0.000 C 
ATOM      5  C   UNL     1      -1.936  10.340  18.510  0.00  0.00    +0.000 C 
ATOM      6  C   UNL     1      -2.188  11.852  18.635  0.00  0.00    +0.000 C 
ATOM      7  C   UNL     1      -0.952  12.670  18.227  0.00  0.00    +0.000 C 
ATOM      8  C   UNL     1       0.332  12.159  18.876  0.00  0.00    +0.000 C 
ENDROOT
BRANCH   6   9
ATOM      9  C   UNL     1      -2.662  12.225  20.002  0.00  0.00    +0.000 A 
ATOM     10  N   UNL     1      -1.980  12.312  21.129  0.00  0.00    +0.000 NA
ATOM     11  C   UNL     1      -2.931  12.644  22.060  0.00  0.00    +0.000 A 
ATOM     12  C   UNL     1      -2.835  12.864  23.440  0.00  0.00    +0.000 A 
ATOM     13  C   UNL     1      -4.009  13.186  24.141  0.00  0.00    +0.000 A 
ATOM     14  C   UNL     1      -5.241  13.289  23.482  0.00  0.00    +0.000 A 
ATOM     15  C   UNL     1      -5.352  13.074  22.103  0.00  0.00    +0.000 A 
ATOM     16  C   UNL     1      -4.169  12.755  21.448  0.00  0.00    +0.000 A 
ATOM     17  O   UNL     1      -4.003  12.490  20.121  0.00  0.00    +0.000 OA
ENDBRANCH   6   9
BRANCH   2  18
ATOM     18  C   UNL     1       1.727   8.814  17.796  0.00  0.00    +0.000 C 
ATOM     19  C   UNL     1       2.723   8.070  18.300  0.00  0.00    +0.000 C 
BRANCH  19  20
ATOM     20  C   UNL     1       2.854   6.629  18.054  0.00  0.00    +0.000 A 
ATOM     21  C   UNL     1       4.069   6.049  17.659  0.00  0.00    +0.000 A 
ATOM     22  C   UNL     1       4.165   4.675  17.430  0.00  0.00    +0.000 A 
ATOM     23  C   UNL     1       3.048   3.864  17.613  0.00  0.00    +0.000 A 
ATOM     24 CL   UNL     1       3.165   2.173  17.325  0.00  0.00    +0.000 Cl
ATOM     25  C   UNL     1       1.841   4.417  18.033  0.00  0.00    +0.000 A 
ATOM     26  C   UNL     1       1.744   5.795  18.257  0.00  0.00    +0.000 A 
ENDBRANCH  19  20
ENDBRANCH   2  18
TORSDOF 3
ENDMDL
MODEL 9
REMARK VINA RESULT:      -7.5      1.073      1.843
REMARK  Name = 
REMARK  3 active torsions:
REMARK  status: ('A' for Active; 'I' for Inactive)
REMARK    1  A    between atoms: C_2  and  C_3
REMARK    2  A    between atoms: C_4  and  C_5
REMARK    3  A    between atoms: C_15  and  C_16
REMARK                            x       y       z     vdW  Elec       q    Type
REMARK                         _______ _______ _______ _____ _____    ______ ____
ROOT
ATOM      1  O   UNL     1       1.235   9.455  23.016  0.00  0.00    +0.000 OA
ATOM      2  C   UNL     1       0.849   9.513  21.852  0.00  0.00    +0.000 C 
ATOM      3  N   UNL     1      -0.200  10.307  21.420  0.00  0.00    +0.000 N 
ATOM      4  C   UNL     1      -0.820  10.265  20.095  0.00  0.00    +0.000 C 
ATOM      5  C   UNL     1      -0.880  11.669  19.498  0.00  0.00    +0.000 C 
ATOM      6  C   UNL     1      -1.522  12.693  20.450  0.00  0.00    +0.000 C 
ATOM      7  C   UNL     1      -0.940  12.593  21.869  0.00  0.00    +0.000 C 
ATOM      8  C   UNL     1      -0.889  11.157  22.383  0.00  0.00    +0.000 C 
ENDROOT
BRANCH   6   9
ATOM      9  C   UNL     1      -3.012  12.583  20.462  0.00  0.00    +0.000 A 
ATOM     10  N   UNL     1      -3.836  12.277  19.478  0.00  0.00    +0.000 NA
ATOM     11  C   UNL     1      -5.078  12.375  20.051  0.00  0.00    +0.000 A 
ATOM     12  C   UNL     1      -6.359  12.184  19.518  0.00  0.00    +0.000 A 
ATOM     13  C   UNL     1      -7.463  12.370  20.366  0.00  0.00    +0.000 A 
ATOM     14  C   UNL     1      -7.291  12.734  21.709  0.00  0.00    +0.000 A 
ATOM     15  C   UNL     1      -6.017  12.926  22.256  0.00  0.00    +0.000 A 
ATOM     16  C   UNL     1      -4.954  12.735  21.383  0.00  0.00    +0.000 A 
ATOM     17  O   UNL     1      -3.625  12.868  21.657  0.00  0.00    +0.000 OA
ENDBRANCH   6   9
BRANCH   2  18
ATOM     18  C   UNL     1       1.549   8.730  20.809  0.00  0.00    +0.000 C 
ATOM     19  C   UNL     1       1.494   7.390  20.831  0.00  0.00    +0.000 C 
BRANCH  19  20
ATOM     20  C   UNL     1       2.160   6.542  19.837  0.00  0.00    +0.000 A 
ATOM     21  C   UNL     1       2.218   5.146  19.969  0.00  0.00    +0.000 A 
ATOM     22  C   UNL     1       2.861   4.362  19.009  0.00  0.00    +0.000 A 
ATOM     23  C   UNL     1       3.437   4.968  17.896  0.00  0.00    +0.000 A 
ATOM     24 CL   UNL     1       4.235   4.003  16.717  0.00  0.00    +0.000 Cl
ATOM     25  C   UNL     1       3.367   6.349  17.733  0.00  0.00    +0.000 A 
ATOM     26  C   UNL     1       2.726   7.134  18.698  0.00  0.00    +0.000 A 
ENDBRANCH  19  20
ENDBRANCH   2  18
TORSDOF 3
ENDMDL
