MODEL 1
REMARK VINA RESULT:      -6.9      0.000      0.000
REMARK  Name = 
REMARK  6 active torsions:
REMARK  status: ('A' for Active; 'I' for Inactive)
REMARK    1  A    between atoms: C_1  and  C_2
REMARK    2  A    between atoms: C_4  and  O_5
REMARK    3  A    between atoms: O_5  and  C_6
REMARK    4  A    between atoms: C_6  and  C_7
REMARK    5  A    between atoms: N_9  and  C_10
REMARK    6  A    between atoms: N_9  and  C_11
REMARK                            x       y       z     vdW  Elec       q    Type
REMARK                         _______ _______ _______ _____ _____    ______ ____
ROOT
ATOM      1  C   UNL     1       6.406   5.905  18.199  0.00  0.00    +0.000 C 
ENDROOT
BRANCH   1   2
ATOM      2  C   UNL     1       4.881   6.090  18.164  0.00  0.00    +0.000 C 
ATOM      3  O   UNL     1       4.379   6.996  17.493  0.00  0.00    +0.000 OA
ATOM      4  N   UNL     1       4.074   5.189  18.881  0.00  0.00    +0.000 N 
ATOM      5  C   UNL     1       4.612   4.179  19.785  0.00  0.00    +0.000 C 
BRANCH   4   6
ATOM      6  C   UNL     1       2.602   5.409  18.806  0.00  0.00    +0.000 C 
ATOM      7  C   UNL     1       1.936   4.514  17.743  0.00  0.00    +0.000 C 
ATOM      8  C   UNL     1       1.802   3.072  18.214  0.00  0.00    +0.000 C 
ATOM      9  C   UNL     1       0.939   2.992  19.466  0.00  0.00    +0.000 C 
ATOM     10  C   UNL     1       1.440   3.900  20.585  0.00  0.00    +0.000 C 
ATOM     11  C   UNL     1       1.802   5.316  20.126  0.00  0.00    +0.000 C 
ENDBRANCH   4   6
ENDBRANCH   1   2
BRANCH   1  12
ATOM     12  O   UNL     1       6.729   4.624  17.648  0.00  0.00    +0.000 OA
BRANCH  12  16
ATOM     13  C   UNL     1       8.020   5.350  12.920  0.00  0.00    +0.000 C 
ATOM     14  C   UNL     1       7.106   4.764  13.958  0.00  0.00    +0.000 A 
ATOM     15  C   UNL     1       7.345   5.035  15.319  0.00  0.00    +0.000 A 
ATOM     16  C   UNL     1       6.532   4.480  16.303  0.00  0.00    +0.000 A 
ATOM     17  C   UNL     1       5.477   3.641  15.944  0.00  0.00    +0.000 A 
ATOM     18  C   UNL     1       5.218   3.376  14.600  0.00  0.00    +0.000 A 
ATOM     19  C   UNL     1       6.029   3.933  13.613  0.00  0.00    +0.000 A 
ATOM     20 CL   UNL     1       5.676   3.551  11.964  0.00  0.00    +0.000 Cl
ENDBRANCH  12  16
ENDBRANCH   1  12
TORSDOF 4
ENDMDL
MODEL 2
REMARK VINA RESULT:      -6.8      0.977      1.654
REMARK  Name = 
REMARK  6 active torsions:
REMARK  status: ('A' for Active; 'I' for Inactive)
REMARK    1  A    between atoms: C_1  and  C_2
REMARK    2  A    between atoms: C_4  and  O_5
REMARK    3  A    between atoms: O_5  and  C_6
REMARK    4  A    between atoms: C_6  and  C_7
REMARK    5  A    between atoms: N_9  and  C_10
REMARK    6  A    between atoms: N_9  and  C_11
REMARK                            x       y       z     vdW  Elec       q    Type
REMARK                         _______ _______ _______ _____ _____    ______ ____
ROOT
ATOM      1  C   UNL     1       6.110   5.204  17.499  0.00  0.00    +0.000 C 
ENDROOT
BRANCH   1   2
ATOM      2  C   UNL     1       4.646   5.577  17.775  0.00  0.00    +0.000 C 
ATOM      3  O   UNL     1       4.122   6.524  17.180  0.00  0.00    +0.000 OA
ATOM      4  N   UNL     1       3.911   4.803  18.691  0.00  0.00    +0.000 N 
ATOM      5  C   UNL     1       4.508   3.756  19.512  0.00  0.00    +0.000 C 
BRANCH   4   6
ATOM      6  C   UNL     1       2.494   5.205  18.916  0.00  0.00    +0.000 C 
ATOM      7  C   UNL     1       1.524   4.453  17.984  0.00  0.00    +0.000 C 
ATOM      8  C   UNL     1       1.298   3.016  18.435  0.00  0.00    +0.000 C 
ATOM      9  C   UNL     1       0.691   2.979  19.831  0.00  0.00    +0.000 C 
ATOM     10  C   UNL     1       1.513   3.761  20.851  0.00  0.00    +0.000 C 
ATOM     11  C   UNL     1       1.960   5.143  20.366  0.00  0.00    +0.000 C 
ENDBRANCH   4   6
ENDBRANCH   1   2
BRANCH   1  12
ATOM     12  O   UNL     1       6.141   3.995  16.733  0.00  0.00    +0.000 OA
BRANCH  12  16
ATOM     13  C   UNL     1       5.123   3.147  11.960  0.00  0.00    +0.000 C 
ATOM     14  C   UNL     1       5.953   3.792  13.032  0.00  0.00    +0.000 A 
ATOM     15  C   UNL     1       5.662   3.525  14.383  0.00  0.00    +0.000 A 
ATOM     16  C   UNL     1       6.396   4.134  15.398  0.00  0.00    +0.000 A 
ATOM     17  C   UNL     1       7.422   5.024  15.079  0.00  0.00    +0.000 A 
ATOM     18  C   UNL     1       7.732   5.288  13.745  0.00  0.00    +0.000 A 
ATOM     19  C   UNL     1       7.000   4.677  12.727  0.00  0.00    +0.000 A 
ATOM     20 CL   UNL     1       7.413   5.058  11.092  0.00  0.00    +0.000 Cl
ENDBRANCH  12  16
ENDBRANCH   1  12
TORSDOF 4
ENDMDL
MODEL 3
REMARK VINA RESULT:      -6.8      3.362      6.258
REMARK  Name = 
REMARK  6 active torsions:
REMARK  status: ('A' for Active; 'I' for Inactive)
REMARK    1  A    between atoms: C_1  and  C_2
REMARK    2  A    between atoms: C_4  and  O_5
REMARK    3  A    between atoms: O_5  and  C_6
REMARK    4  A    between atoms: C_6  and  C_7
REMARK    5  A    between atoms: N_9  and  C_10
REMARK    6  A    between atoms: N_9  and  C_11
REMARK                            x       y       z     vdW  Elec       q    Type
REMARK                         _______ _______ _______ _____ _____    ______ ____
ROOT
ATOM      1  C   UNL     1       3.186   2.926  18.638  0.00  0.00    +0.000 C 
ENDROOT
BRANCH   1   2
ATOM      2  C   UNL     1       4.354   3.351  17.734  0.00  0.00    +0.000 C 
ATOM      3  O   UNL     1       4.427   2.935  16.575  0.00  0.00    +0.000 OA
ATOM      4  N   UNL     1       5.313   4.245  18.244  0.00  0.00    +0.000 N 
ATOM      5  C   UNL     1       5.346   4.672  19.638  0.00  0.00    +0.000 C 
BRANCH   4   6
ATOM      6  C   UNL     1       6.419   4.630  17.324  0.00  0.00    +0.000 C 
ATOM      7  C   UNL     1       6.002   5.752  16.353  0.00  0.00    +0.000 C 
ATOM      8  C   UNL     1       5.959   7.111  17.038  0.00  0.00    +0.000 C 
ATOM      9  C   UNL     1       7.330   7.484  17.584  0.00  0.00    +0.000 C 
ATOM     10  C   UNL     1       7.907   6.413  18.506  0.00  0.00    +0.000 C 
ATOM     11  C   UNL     1       7.782   4.987  17.962  0.00  0.00    +0.000 C 
ENDBRANCH   4   6
ENDBRANCH   1   2
BRANCH   1  12
ATOM     12  O   UNL     1       2.043   3.730  18.324  0.00  0.00    +0.000 OA
BRANCH  12  16
ATOM     13  C   UNL     1       2.389   8.660  17.991  0.00  0.00    +0.000 C 
ATOM     14  C   UNL     1       2.147   7.411  18.788  0.00  0.00    +0.000 A 
ATOM     15  C   UNL     1       2.270   6.157  18.159  0.00  0.00    +0.000 A 
ATOM     16  C   UNL     1       2.022   4.984  18.867  0.00  0.00    +0.000 A 
ATOM     17  C   UNL     1       1.638   5.046  20.206  0.00  0.00    +0.000 A 
ATOM     18  C   UNL     1       1.525   6.279  20.847  0.00  0.00    +0.000 A 
ATOM     19  C   UNL     1       1.777   7.455  20.142  0.00  0.00    +0.000 A 
ATOM     20 CL   UNL     1       1.601   8.956  20.981  0.00  0.00    +0.000 Cl
ENDBRANCH  12  16
ENDBRANCH   1  12
TORSDOF 4
ENDMDL
MODEL 4
REMARK VINA RESULT:      -6.7      1.269      1.739
REMARK  Name = 
REMARK  6 active torsions:
REMARK  status: ('A' for Active; 'I' for Inactive)
REMARK    1  A    between atoms: C_1  and  C_2
REMARK    2  A    between atoms: C_4  and  O_5
REMARK    3  A    between atoms: O_5  and  C_6
REMARK    4  A    between atoms: C_6  and  C_7
REMARK    5  A    between atoms: N_9  and  C_10
REMARK    6  A    between atoms: N_9  and  C_11
REMARK                            x       y       z     vdW  Elec       q    Type
REMARK                         _______ _______ _______ _____ _____    ______ ____
ROOT
ATOM      1  C   UNL     1       6.995   6.120  17.592  0.00  0.00    +0.000 C 
ENDROOT
BRANCH   1   2
ATOM      2  C   UNL     1       5.982   5.463  18.542  0.00  0.00    +0.000 C 
ATOM      3  O   UNL     1       6.362   4.661  19.400  0.00  0.00    +0.000 OA
ATOM      4  N   UNL     1       4.625   5.817  18.434  0.00  0.00    +0.000 N 
ATOM      5  C   UNL     1       4.102   6.660  17.365  0.00  0.00    +0.000 C 
BRANCH   4   6
ATOM      6  C   UNL     1       3.687   5.156  19.384  0.00  0.00    +0.000 C 
ATOM      7  C   UNL     1       2.212   5.426  19.024  0.00  0.00    +0.000 C 
ATOM      8  C   UNL     1       1.755   4.596  17.832  0.00  0.00    +0.000 C 
ATOM      9  C   UNL     1       1.874   3.108  18.134  0.00  0.00    +0.000 C 
ATOM     10  C   UNL     1       3.275   2.709  18.587  0.00  0.00    +0.000 C 
ATOM     11  C   UNL     1       3.882   3.644  19.638  0.00  0.00    +0.000 C 
ENDBRANCH   4   6
ENDBRANCH   1   2
BRANCH   1  12
ATOM     12  O   UNL     1       7.662   5.096  16.847  0.00  0.00    +0.000 OA
BRANCH  12  16
ATOM     13  C   UNL     1       7.559   5.114  11.895  0.00  0.00    +0.000 C 
ATOM     14  C   UNL     1       6.989   4.696  13.219  0.00  0.00    +0.000 A 
ATOM     15  C   UNL     1       7.591   5.157  14.406  0.00  0.00    +0.000 A 
ATOM     16  C   UNL     1       7.101   4.761  15.647  0.00  0.00    +0.000 A 
ATOM     17  C   UNL     1       6.013   3.892  15.722  0.00  0.00    +0.000 A 
ATOM     18  C   UNL     1       5.396   3.437  14.557  0.00  0.00    +0.000 A 
ATOM     19  C   UNL     1       5.883   3.836  13.312  0.00  0.00    +0.000 A 
ATOM     20 CL   UNL     1       5.094   3.224  11.901  0.00  0.00    +0.000 Cl
ENDBRANCH  12  16
ENDBRANCH   1  12
TORSDOF 4
ENDMDL
MODEL 5
REMARK VINA RESULT:      -6.6      5.217      6.891
REMARK  Name = 
REMARK  6 active torsions:
REMARK  status: ('A' for Active; 'I' for Inactive)
REMARK    1  A    between atoms: C_1  and  C_2
REMARK    2  A    between atoms: C_4  and  O_5
REMARK    3  A    between atoms: O_5  and  C_6
REMARK    4  A    between atoms: C_6  and  C_7
REMARK    5  A    between atoms: N_9  and  C_10
REMARK    6  A    between atoms: N_9  and  C_11
REMARK                            x       y       z     vdW  Elec       q    Type
REMARK                         _______ _______ _______ _____ _____    ______ ____
ROOT
ATOM      1  C   UNL     1       7.845   8.171  17.809  0.00  0.00    +0.000 C 
ENDROOT
BRANCH   1   2
ATOM      2  C   UNL     1       7.440   6.731  18.158  0.00  0.00    +0.000 C 
ATOM      3  O   UNL     1       8.120   6.066  18.945  0.00  0.00    +0.000 OA
ATOM      4  N   UNL     1       6.268   6.201  17.589  0.00  0.00    +0.000 N 
ATOM      5  C   UNL     1       5.495   6.891  16.563  0.00  0.00    +0.000 C 
BRANCH   4   6
ATOM      6  C   UNL     1       5.918   4.803  17.967  0.00  0.00    +0.000 C 
ATOM      7  C   UNL     1       5.345   4.715  19.395  0.00  0.00    +0.000 C 
ATOM      8  C   UNL     1       3.905   5.205  19.464  0.00  0.00    +0.000 C 
ATOM      9  C   UNL     1       3.006   4.361  18.571  0.00  0.00    +0.000 C 
ATOM     10  C   UNL     1       3.503   4.291  17.131  0.00  0.00    +0.000 C 
ATOM     11  C   UNL     1       5.004   4.014  17.001  0.00  0.00    +0.000 C 
ENDBRANCH   4   6
ENDBRANCH   1   2
BRANCH   1  12
ATOM     12  O   UNL     1       8.843   8.608  18.738  0.00  0.00    +0.000 OA
BRANCH  12  16
ATOM     13  C   UNL     1       9.967  12.604  21.442  0.00  0.00    +0.000 C 
ATOM     14  C   UNL     1       9.505  11.972  20.161  0.00  0.00    +0.000 A 
ATOM     15  C   UNL     1       9.348  10.574  20.099  0.00  0.00    +0.000 A 
ATOM     16  C   UNL     1       8.950   9.959  18.914  0.00  0.00    +0.000 A 
ATOM     17  C   UNL     1       8.714  10.728  17.775  0.00  0.00    +0.000 A 
ATOM     18  C   UNL     1       8.851  12.115  17.824  0.00  0.00    +0.000 A 
ATOM     19  C   UNL     1       9.246  12.733  19.010  0.00  0.00    +0.000 A 
ATOM     20 CL   UNL     1       9.421  14.453  19.007  0.00  0.00    +0.000 Cl
ENDBRANCH  12  16
ENDBRANCH   1  12
TORSDOF 4
ENDMDL
MODEL 6
REMARK VINA RESULT:      -6.5      5.302      8.242
REMARK  Name = 
REMARK  6 active torsions:
REMARK  status: ('A' for Active; 'I' for Inactive)
REMARK    1  A    between atoms: C_1  and  C_2
REMARK    2  A    between atoms: C_4  and  O_5
REMARK    3  A    between atoms: O_5  and  C_6
REMARK    4  A    between atoms: C_6  and  C_7
REMARK    5  A    between atoms: N_9  and  C_10
REMARK    6  A    between atoms: N_9  and  C_11
REMARK                            x       y       z     vdW  Elec       q    Type
REMARK                         _______ _______ _______ _____ _____    ______ ____
ROOT
ATOM      1  C   UNL     1       1.908   7.664  20.230  0.00  0.00    +0.000 C 
ENDROOT
BRANCH   1   2
ATOM      2  C   UNL     1       2.562   6.823  19.124  0.00  0.00    +0.000 C 
ATOM      3  O   UNL     1       3.169   7.373  18.200  0.00  0.00    +0.000 OA
ATOM      4  N   UNL     1       2.482   5.421  19.204  0.00  0.00    +0.000 N 
ATOM      5  C   UNL     1       1.678   4.722  20.199  0.00  0.00    +0.000 C 
BRANCH   4   6
ATOM      6  C   UNL     1       3.140   4.653  18.109  0.00  0.00    +0.000 C 
ATOM      7  C   UNL     1       4.489   4.054  18.551  0.00  0.00    +0.000 C 
ATOM      8  C   UNL     1       4.306   2.832  19.440  0.00  0.00    +0.000 C 
ATOM      9  C   UNL     1       3.554   1.734  18.699  0.00  0.00    +0.000 C 
ATOM     10  C   UNL     1       2.223   2.214  18.130  0.00  0.00    +0.000 C 
ATOM     11  C   UNL     1       2.302   3.561  17.405  0.00  0.00    +0.000 C 
ENDBRANCH   4   6
ENDBRANCH   1   2
BRANCH   1  12
ATOM     12  O   UNL     1       1.374   8.858  19.649  0.00  0.00    +0.000 OA
BRANCH  12  16
ATOM     13  C   UNL     1      -1.674  12.673  20.483  0.00  0.00    +0.000 C 
ATOM     14  C   UNL     1      -0.925  11.462  20.957  0.00  0.00    +0.000 A 
ATOM     15  C   UNL     1      -0.085  10.774  20.060  0.00  0.00    +0.000 A 
ATOM     16  C   UNL     1       0.598   9.631  20.466  0.00  0.00    +0.000 A 
ATOM     17  C   UNL     1       0.444   9.152  21.767  0.00  0.00    +0.000 A 
ATOM     18  C   UNL     1      -0.372   9.830  22.672  0.00  0.00    +0.000 A 
ATOM     19  C   UNL     1      -1.054  10.977  22.269  0.00  0.00    +0.000 A 
ATOM     20 CL   UNL     1      -2.069  11.763  23.426  0.00  0.00    +0.000 Cl
ENDBRANCH  12  16
ENDBRANCH   1  12
TORSDOF 4
ENDMDL
MODEL 7
REMARK VINA RESULT:      -6.5      5.536      7.951
REMARK  Name = 
REMARK  6 active torsions:
REMARK  status: ('A' for Active; 'I' for Inactive)
REMARK    1  A    between atoms: C_1  and  C_2
REMARK    2  A    between atoms: C_4  and  O_5
REMARK    3  A    between atoms: O_5  and  C_6
REMARK    4  A    between atoms: C_6  and  C_7
REMARK    5  A    between atoms: N_9  and  C_10
REMARK    6  A    between atoms: N_9  and  C_11
REMARK                            x       y       z     vdW  Elec       q    Type
REMARK                         _______ _______ _______ _____ _____    ______ ____
ROOT
ATOM      1  C   UNL     1       1.833   9.222  18.400  0.00  0.00    +0.000 C 
ENDROOT
BRANCH   1   2
ATOM      2  C   UNL     1       2.102   7.917  19.164  0.00  0.00    +0.000 C 
ATOM      3  O   UNL     1       1.564   7.713  20.257  0.00  0.00    +0.000 OA
ATOM      4  N   UNL     1       2.943   6.953  18.581  0.00  0.00    +0.000 N 
ATOM      5  C   UNL     1       3.700   7.187  17.358  0.00  0.00    +0.000 C 
BRANCH   4   6
ATOM      6  C   UNL     1       3.163   5.702  19.362  0.00  0.00    +0.000 C 
ATOM      7  C   UNL     1       2.014   4.692  19.175  0.00  0.00    +0.000 C 
ATOM      8  C   UNL     1       2.088   3.988  17.827  0.00  0.00    +0.000 C 
ATOM      9  C   UNL     1       3.389   3.209  17.696  0.00  0.00    +0.000 C 
ATOM     10  C   UNL     1       4.621   4.076  17.940  0.00  0.00    +0.000 C 
ATOM     11  C   UNL     1       4.516   4.977  19.174  0.00  0.00    +0.000 C 
ENDBRANCH   4   6
ENDBRANCH   1   2
BRANCH   1  12
ATOM     12  O   UNL     1       1.145  10.131  19.265  0.00  0.00    +0.000 OA
BRANCH  12  16
ATOM     13  C   UNL     1      -2.802   9.805  16.289  0.00  0.00    +0.000 C 
ATOM     14  C   UNL     1      -2.093  10.401  17.470  0.00  0.00    +0.000 A 
ATOM     15  C   UNL     1      -0.774  10.000  17.758  0.00  0.00    +0.000 A 
ATOM     16  C   UNL     1      -0.105  10.514  18.865  0.00  0.00    +0.000 A 
ATOM     17  C   UNL     1      -0.743  11.427  19.704  0.00  0.00    +0.000 A 
ATOM     18  C   UNL     1      -2.044  11.846  19.425  0.00  0.00    +0.000 A 
ATOM     19  C   UNL     1      -2.715  11.334  18.315  0.00  0.00    +0.000 A 
ATOM     20 CL   UNL     1      -4.333  11.871  18.029  0.00  0.00    +0.000 Cl
ENDBRANCH  12  16
ENDBRANCH   1  12
TORSDOF 4
ENDMDL
MODEL 8
REMARK VINA RESULT:      -6.5      5.105      7.477
REMARK  Name = 
REMARK  6 active torsions:
REMARK  status: ('A' for Active; 'I' for Inactive)
REMARK    1  A    between atoms: C_1  and  C_2
REMARK    2  A    between atoms: C_4  and  O_5
REMARK    3  A    between atoms: O_5  and  C_6
REMARK    4  A    between atoms: C_6  and  C_7
REMARK    5  A    between atoms: N_9  and  C_10
REMARK    6  A    between atoms: N_9  and  C_11
REMARK                            x       y       z     vdW  Elec       q    Type
REMARK                         _______ _______ _______ _____ _____    ______ ____
ROOT
ATOM      1  C   UNL     1       2.135   8.129  18.001  0.00  0.00    +0.000 C 
ENDROOT
BRANCH   1   2
ATOM      2  C   UNL     1       2.343   7.147  19.164  0.00  0.00    +0.000 C 
ATOM      3  O   UNL     1       2.007   7.459  20.310  0.00  0.00    +0.000 OA
ATOM      4  N   UNL     1       2.892   5.882  18.890  0.00  0.00    +0.000 N 
ATOM      5  C   UNL     1       3.418   5.504  17.584  0.00  0.00    +0.000 C 
BRANCH   4   6
ATOM      6  C   UNL     1       3.065   4.966  20.053  0.00  0.00    +0.000 C 
ATOM      7  C   UNL     1       1.724   4.641  20.740  0.00  0.00    +0.000 C 
ATOM      8  C   UNL     1       0.901   3.640  19.941  0.00  0.00    +0.000 C 
ATOM      9  C   UNL     1       1.652   2.325  19.789  0.00  0.00    +0.000 C 
ATOM     10  C   UNL     1       3.043   2.507  19.190  0.00  0.00    +0.000 C 
ATOM     11  C   UNL     1       3.846   3.653  19.813  0.00  0.00    +0.000 C 
ENDBRANCH   4   6
ENDBRANCH   1   2
BRANCH   1  12
ATOM     12  O   UNL     1       2.081   9.460  18.525  0.00  0.00    +0.000 OA
BRANCH  12  16
ATOM     13  C   UNL     1      -2.642   9.861  17.084  0.00  0.00    +0.000 C 
ATOM     14  C   UNL     1      -1.494  10.281  17.956  0.00  0.00    +0.000 A 
ATOM     15  C   UNL     1      -0.231   9.686  17.768  0.00  0.00    +0.000 A 
ATOM     16  C   UNL     1       0.842  10.035  18.583  0.00  0.00    +0.000 A 
ATOM     17  C   UNL     1       0.670  10.972  19.601  0.00  0.00    +0.000 A 
ATOM     18  C   UNL     1      -0.571  11.581  19.791  0.00  0.00    +0.000 A 
ATOM     19  C   UNL     1      -1.647  11.236  18.974  0.00  0.00    +0.000 A 
ATOM     20 CL   UNL     1      -3.166  12.006  19.269  0.00  0.00    +0.000 Cl
ENDBRANCH  12  16
ENDBRANCH   1  12
TORSDOF 4
ENDMDL
MODEL 9
REMARK VINA RESULT:      -6.5      4.742      8.084
REMARK  Name = 
REMARK  6 active torsions:
REMARK  status: ('A' for Active; 'I' for Inactive)
REMARK    1  A    between atoms: C_1  and  C_2
REMARK    2  A    between atoms: C_4  and  O_5
REMARK    3  A    between atoms: O_5  and  C_6
REMARK    4  A    between atoms: C_6  and  C_7
REMARK    5  A    between atoms: N_9  and  C_10
REMARK    6  A    between atoms: N_9  and  C_11
REMARK                            x       y       z     vdW  Elec       q    Type
REMARK                         _______ _______ _______ _____ _____    ______ ____
ROOT
ATOM      1  C   UNL     1       2.398   7.473  19.123  0.00  0.00    +0.000 C 
ENDROOT
BRANCH   1   2
ATOM      2  C   UNL     1       3.169   6.145  19.105  0.00  0.00    +0.000 C 
ATOM      3  O   UNL     1       2.966   5.295  19.977  0.00  0.00    +0.000 OA
ATOM      4  N   UNL     1       4.082   5.907  18.062  0.00  0.00    +0.000 N 
ATOM      5  C   UNL     1       4.453   6.917  17.078  0.00  0.00    +0.000 C 
BRANCH   4   6
ATOM      6  C   UNL     1       4.797   4.600  18.089  0.00  0.00    +0.000 C 
ATOM      7  C   UNL     1       4.511   3.757  16.830  0.00  0.00    +0.000 C 
ATOM      8  C   UNL     1       5.274   4.269  15.616  0.00  0.00    +0.000 C 
ATOM      9  C   UNL     1       6.776   4.209  15.858  0.00  0.00    +0.000 C 
ATOM     10  C   UNL     1       7.196   4.940  17.130  0.00  0.00    +0.000 C 
ATOM     11  C   UNL     1       6.321   4.629  18.348  0.00  0.00    +0.000 C 
ENDBRANCH   4   6
ENDBRANCH   1   2
BRANCH   1  12
ATOM     12  O   UNL     1       1.933   7.719  20.454  0.00  0.00    +0.000 OA
BRANCH  12  16
ATOM     13  C   UNL     1      -1.098  10.547  23.167  0.00  0.00    +0.000 C 
ATOM     14  C   UNL     1      -0.428  10.212  21.866  0.00  0.00    +0.000 A 
ATOM     15  C   UNL     1       0.399   9.074  21.789  0.00  0.00    +0.000 A 
ATOM     16  C   UNL     1       1.056   8.757  20.604  0.00  0.00    +0.000 A 
ATOM     17  C   UNL     1       0.906   9.574  19.483  0.00  0.00    +0.000 A 
ATOM     18  C   UNL     1       0.080  10.696  19.539  0.00  0.00    +0.000 A 
ATOM     19  C   UNL     1      -0.582  11.014  20.724  0.00  0.00    +0.000 A 
ATOM     20 CL   UNL     1      -1.576  12.428  20.742  0.00  0.00    +0.000 Cl
ENDBRANCH  12  16
ENDBRANCH   1  12
TORSDOF 4
ENDMDL
