MODEL 1
REMARK VINA RESULT:      -7.3      0.000      0.000
REMARK  Name = 
REMARK  15 active torsions:
REMARK  status: ('A' for Active; 'I' for Inactive)
REMARK    1  A    between atoms: C_1  and  C_2
REMARK    2  A    between atoms: C_2  and  C_3
REMARK    3  A    between atoms: C_3  and  C_4
REMARK    4  A    between atoms: C_4  and  C_5
REMARK    5  A    between atoms: C_5  and  C_6
REMARK    6  A    between atoms: C_6  and  C_7
REMARK    7  A    between atoms: C_7  and  C_8
REMARK    8  A    between atoms: C_8  and  C_9
REMARK    9  A    between atoms: C_9  and  C_10
REMARK   10  A    between atoms: N_12  and  C_13
REMARK   11  A    between atoms: C_13  and  C_14
REMARK   12  A    between atoms: C_13  and  C_20
REMARK   13  A    between atoms: C_14  and  N_15
REMARK   14  A    between atoms: C_20  and  O_21
REMARK   15  A    between atoms: C_20  and  C_22
REMARK                            x       y       z     vdW  Elec       q    Type
REMARK                         _______ _______ _______ _____ _____    ______ ____
ROOT
ATOM      1  C   UNL     1       4.085   4.822  19.163  0.00  0.00    +0.000 C 
ENDROOT
BRANCH   1   4
ATOM      2  C   UNL     1       6.127   4.955  17.698  0.00  0.00    +0.000 C 
ATOM      3  O   UNL     1       5.626   4.328  16.776  0.00  0.00    +0.000 OA
ATOM      4  N   UNL     1       5.481   5.227  18.889  0.00  0.00    +0.000 N 
ATOM      5  H   UNL     1       5.965   5.782  19.580  0.00  0.00    +0.000 HD
BRANCH   2   6
ATOM      6  C   UNL     1       7.553   5.483  17.690  0.00  0.00    +0.000 C 
BRANCH   6   7
ATOM      7  C   UNL     1       7.758   6.824  18.402  0.00  0.00    +0.000 C 
BRANCH   7   8
ATOM      8  C   UNL     1       8.021   7.927  17.365  0.00  0.00    +0.000 C 
BRANCH   8   9
ATOM      9  C   UNL     1       7.939   9.336  17.951  0.00  0.00    +0.000 C 
BRANCH   9  10
ATOM     10  C   UNL     1       9.102   9.605  18.915  0.00  0.00    +0.000 C 
BRANCH  10  11
ATOM     11  C   UNL     1       9.379  11.104  19.043  0.00  0.00    +0.000 C 
BRANCH  11  12
ATOM     12  C   UNL     1      10.846  11.400  19.369  0.00  0.00    +0.000 C 
BRANCH  12  14
ATOM     13  C   UNL     1      10.850  12.788  17.257  0.00  0.00    +0.000 C 
ATOM     14  C   UNL     1      11.617  11.790  18.106  0.00  0.00    +0.000 C 
ENDBRANCH  12  14
ENDBRANCH  11  12
ENDBRANCH  10  11
ENDBRANCH   9  10
ENDBRANCH   8   9
ENDBRANCH   7   8
ENDBRANCH   6   7
ENDBRANCH   2   6
ENDBRANCH   1   4
BRANCH   1  15
ATOM     15  C   UNL     1       3.990   3.327  19.578  0.00  0.00    +0.000 C 
BRANCH  15  16
ATOM     16  N   UNL     1       3.065   2.476  18.804  0.00  0.00    +0.000 NA
ATOM     17  C   UNL     1       2.595   3.157  17.583  0.00  0.00    +0.000 C 
ATOM     18  C   UNL     1       1.219   3.701  17.920  0.00  0.00    +0.000 C 
ATOM     19  C   UNL     1       0.648   2.623  18.810  0.00  0.00    +0.000 C 
ATOM     20  C   UNL     1       1.858   2.079  19.556  0.00  0.00    +0.000 C 
ENDBRANCH  15  16
ENDBRANCH   1  15
BRANCH   1  21
ATOM     21  C   UNL     1       3.341   5.827  20.097  0.00  0.00    +0.000 C 
BRANCH  21  22
ATOM     22  C   UNL     1       2.475   6.973  19.601  0.00  0.00    +0.000 A 
ATOM     23  C   UNL     1       2.620   7.325  18.238  0.00  0.00    +0.000 A 
ATOM     24  C   UNL     1       2.080   8.505  17.725  0.00  0.00    +0.000 A 
ATOM     25  C   UNL     1       1.364   9.348  18.564  0.00  0.00    +0.000 A 
ATOM     26  C   UNL     1       1.136   8.976  19.890  0.00  0.00    +0.000 A 
ATOM     27  C   UNL     1       1.673   7.788  20.402  0.00  0.00    +0.000 A 
ENDBRANCH  21  22
BRANCH  21  28
ATOM     28  O   UNL     1       2.452   5.025  20.916  0.00  0.00    +0.000 OA
ATOM     29  H   UNL     1       2.893   4.899  21.770  0.00  0.00    +0.000 HD
ENDBRANCH  21  28
ENDBRANCH   1  21
TORSDOF 14
ENDMDL
MODEL 2
REMARK VINA RESULT:      -7.0      2.659      4.976
REMARK  Name = 
REMARK  15 active torsions:
REMARK  status: ('A' for Active; 'I' for Inactive)
REMARK    1  A    between atoms: C_1  and  C_2
REMARK    2  A    between atoms: C_2  and  C_3
REMARK    3  A    between atoms: C_3  and  C_4
REMARK    4  A    between atoms: C_4  and  C_5
REMARK    5  A    between atoms: C_5  and  C_6
REMARK    6  A    between atoms: C_6  and  C_7
REMARK    7  A    between atoms: C_7  and  C_8
REMARK    8  A    between atoms: C_8  and  C_9
REMARK    9  A    between atoms: C_9  and  C_10
REMARK   10  A    between atoms: N_12  and  C_13
REMARK   11  A    between atoms: C_13  and  C_14
REMARK   12  A    between atoms: C_13  and  C_20
REMARK   13  A    between atoms: C_14  and  N_15
REMARK   14  A    between atoms: C_20  and  O_21
REMARK   15  A    between atoms: C_20  and  C_22
REMARK                            x       y       z     vdW  Elec       q    Type
REMARK                         _______ _______ _______ _____ _____    ______ ____
ROOT
ATOM      1  C   UNL     1       5.921   5.162  17.374  0.00  0.00    +0.000 C 
ENDROOT
BRANCH   1   4
ATOM      2  C   UNL     1       7.701   6.408  18.644  0.00  0.00    +0.000 C 
ATOM      3  O   UNL     1       7.946   5.482  19.404  0.00  0.00    +0.000 OA
ATOM      4  N   UNL     1       6.738   6.363  17.654  0.00  0.00    +0.000 N 
ATOM      5  H   UNL     1       6.631   7.168  17.054  0.00  0.00    +0.000 HD
BRANCH   2   6
ATOM      6  C   UNL     1       8.385   7.765  18.713  0.00  0.00    +0.000 C 
BRANCH   6   7
ATOM      7  C   UNL     1       7.978   8.758  17.621  0.00  0.00    +0.000 C 
BRANCH   7   8
ATOM      8  C   UNL     1       8.386  10.181  18.035  0.00  0.00    +0.000 C 
BRANCH   8   9
ATOM      9  C   UNL     1       9.337  10.210  19.232  0.00  0.00    +0.000 C 
BRANCH   9  10
ATOM     10  C   UNL     1      10.429  11.271  19.046  0.00  0.00    +0.000 C 
BRANCH  10  11
ATOM     11  C   UNL     1      10.943  11.778  20.395  0.00  0.00    +0.000 C 
BRANCH  11  12
ATOM     12  C   UNL     1       9.808  12.216  21.324  0.00  0.00    +0.000 C 
BRANCH  12  14
ATOM     13  C   UNL     1      10.560  14.601  20.966  0.00  0.00    +0.000 C 
ATOM     14  C   UNL     1       9.377  13.652  21.020  0.00  0.00    +0.000 C 
ENDBRANCH  12  14
ENDBRANCH  11  12
ENDBRANCH  10  11
ENDBRANCH   9  10
ENDBRANCH   8   9
ENDBRANCH   7   8
ENDBRANCH   6   7
ENDBRANCH   2   6
ENDBRANCH   1   4
BRANCH   1  15
ATOM     15  C   UNL     1       4.448   5.533  17.044  0.00  0.00    +0.000 C 
BRANCH  15  16
ATOM     16  N   UNL     1       3.396   4.835  17.808  0.00  0.00    +0.000 NA
ATOM     17  C   UNL     1       3.854   4.485  19.165  0.00  0.00    +0.000 C 
ATOM     18  C   UNL     1       4.253   3.022  19.100  0.00  0.00    +0.000 C 
ATOM     19  C   UNL     1       3.229   2.444  18.152  0.00  0.00    +0.000 C 
ATOM     20  C   UNL     1       2.943   3.579  17.179  0.00  0.00    +0.000 C 
ENDBRANCH  15  16
ENDBRANCH   1  15
BRANCH   1  21
ATOM     21  C   UNL     1       6.611   4.189  16.369  0.00  0.00    +0.000 C 
BRANCH  21  22
ATOM     22  C   UNL     1       6.685   4.421  14.870  0.00  0.00    +0.000 A 
ATOM     23  C   UNL     1       5.854   3.606  14.066  0.00  0.00    +0.000 A 
ATOM     24  C   UNL     1       6.010   3.542  12.681  0.00  0.00    +0.000 A 
ATOM     25  C   UNL     1       6.989   4.311  12.068  0.00  0.00    +0.000 A 
ATOM     26  C   UNL     1       7.761   5.187  12.833  0.00  0.00    +0.000 A 
ATOM     27  C   UNL     1       7.600   5.256  14.223  0.00  0.00    +0.000 A 
ENDBRANCH  21  22
BRANCH  21  28
ATOM     28  O   UNL     1       7.995   4.093  16.794  0.00  0.00    +0.000 OA
ATOM     29  H   UNL     1       8.536   4.087  15.990  0.00  0.00    +0.000 HD
ENDBRANCH  21  28
ENDBRANCH   1  21
TORSDOF 14
ENDMDL
MODEL 3
REMARK VINA RESULT:      -6.9      2.544      7.419
REMARK  Name = 
REMARK  15 active torsions:
REMARK  status: ('A' for Active; 'I' for Inactive)
REMARK    1  A    between atoms: C_1  and  C_2
REMARK    2  A    between atoms: C_2  and  C_3
REMARK    3  A    between atoms: C_3  and  C_4
REMARK    4  A    between atoms: C_4  and  C_5
REMARK    5  A    between atoms: C_5  and  C_6
REMARK    6  A    between atoms: C_6  and  C_7
REMARK    7  A    between atoms: C_7  and  C_8
REMARK    8  A    between atoms: C_8  and  C_9
REMARK    9  A    between atoms: C_9  and  C_10
REMARK   10  A    between atoms: N_12  and  C_13
REMARK   11  A    between atoms: C_13  and  C_14
REMARK   12  A    between atoms: C_13  and  C_20
REMARK   13  A    between atoms: C_14  and  N_15
REMARK   14  A    between atoms: C_20  and  O_21
REMARK   15  A    between atoms: C_20  and  C_22
REMARK                            x       y       z     vdW  Elec       q    Type
REMARK                         _______ _______ _______ _____ _____    ______ ____
ROOT
ATOM      1  C   UNL     1       3.773   4.448  18.315  0.00  0.00    +0.000 C 
ENDROOT
BRANCH   1   4
ATOM      2  C   UNL     1       2.573   6.598  18.831  0.00  0.00    +0.000 C 
ATOM      3  O   UNL     1       2.508   6.387  20.034  0.00  0.00    +0.000 OA
ATOM      4  N   UNL     1       3.139   5.724  17.922  0.00  0.00    +0.000 N 
ATOM      5  H   UNL     1       3.175   6.001  16.952  0.00  0.00    +0.000 HD
BRANCH   2   6
ATOM      6  C   UNL     1       1.991   7.828  18.153  0.00  0.00    +0.000 C 
BRANCH   6   7
ATOM      7  C   UNL     1       1.650   8.991  19.089  0.00  0.00    +0.000 C 
BRANCH   7   8
ATOM      8  C   UNL     1       0.897  10.081  18.310  0.00  0.00    +0.000 C 
BRANCH   8   9
ATOM      9  C   UNL     1      -0.443  10.457  18.944  0.00  0.00    +0.000 C 
BRANCH   9  10
ATOM     10  C   UNL     1      -1.400  11.052  17.903  0.00  0.00    +0.000 C 
BRANCH  10  11
ATOM     11  C   UNL     1      -2.083   9.954  17.086  0.00  0.00    +0.000 C 
BRANCH  11  12
ATOM     12  C   UNL     1      -3.543   9.743  17.497  0.00  0.00    +0.000 C 
BRANCH  12  14
ATOM     13  C   UNL     1      -5.165  11.429  18.451  0.00  0.00    +0.000 C 
ATOM     14  C   UNL     1      -4.372  11.001  17.229  0.00  0.00    +0.000 C 
ENDBRANCH  12  14
ENDBRANCH  11  12
ENDBRANCH  10  11
ENDBRANCH   9  10
ENDBRANCH   8   9
ENDBRANCH   7   8
ENDBRANCH   6   7
ENDBRANCH   2   6
ENDBRANCH   1   4
BRANCH   1  15
ATOM     15  C   UNL     1       2.975   3.222  17.788  0.00  0.00    +0.000 C 
BRANCH  15  16
ATOM     16  N   UNL     1       2.354   2.344  18.800  0.00  0.00    +0.000 NA
ATOM     17  C   UNL     1       0.888   2.498  18.826  0.00  0.00    +0.000 C 
ATOM     18  C   UNL     1       0.593   3.423  19.992  0.00  0.00    +0.000 C 
ATOM     19  C   UNL     1       1.626   3.007  21.012  0.00  0.00    +0.000 C 
ATOM     20  C   UNL     1       2.830   2.598  20.174  0.00  0.00    +0.000 C 
ENDBRANCH  15  16
ENDBRANCH   1  15
BRANCH   1  21
ATOM     21  C   UNL     1       5.306   4.425  18.025  0.00  0.00    +0.000 C 
BRANCH  21  22
ATOM     22  C   UNL     1       6.228   5.618  18.214  0.00  0.00    +0.000 A 
ATOM     23  C   UNL     1       6.086   6.675  17.284  0.00  0.00    +0.000 A 
ATOM     24  C   UNL     1       7.027   7.701  17.192  0.00  0.00    +0.000 A 
ATOM     25  C   UNL     1       8.122   7.700  18.044  0.00  0.00    +0.000 A 
ATOM     26  C   UNL     1       8.235   6.715  19.026  0.00  0.00    +0.000 A 
ATOM     27  C   UNL     1       7.286   5.688  19.123  0.00  0.00    +0.000 A 
ENDBRANCH  21  22
BRANCH  21  28
ATOM     28  O   UNL     1       5.859   3.396  18.886  0.00  0.00    +0.000 OA
ATOM     29  H   UNL     1       5.232   2.658  18.880  0.00  0.00    +0.000 HD
ENDBRANCH  21  28
ENDBRANCH   1  21
TORSDOF 14
ENDMDL
MODEL 4
REMARK VINA RESULT:      -6.9      2.956      5.252
REMARK  Name = 
REMARK  15 active torsions:
REMARK  status: ('A' for Active; 'I' for Inactive)
REMARK    1  A    between atoms: C_1  and  C_2
REMARK    2  A    between atoms: C_2  and  C_3
REMARK    3  A    between atoms: C_3  and  C_4
REMARK    4  A    between atoms: C_4  and  C_5
REMARK    5  A    between atoms: C_5  and  C_6
REMARK    6  A    between atoms: C_6  and  C_7
REMARK    7  A    between atoms: C_7  and  C_8
REMARK    8  A    between atoms: C_8  and  C_9
REMARK    9  A    between atoms: C_9  and  C_10
REMARK   10  A    between atoms: N_12  and  C_13
REMARK   11  A    between atoms: C_13  and  C_14
REMARK   12  A    between atoms: C_13  and  C_20
REMARK   13  A    between atoms: C_14  and  N_15
REMARK   14  A    between atoms: C_20  and  O_21
REMARK   15  A    between atoms: C_20  and  C_22
REMARK                            x       y       z     vdW  Elec       q    Type
REMARK                         _______ _______ _______ _____ _____    ______ ____
ROOT
ATOM      1  C   UNL     1       5.901   5.467  17.085  0.00  0.00    +0.000 C 
ENDROOT
BRANCH   1   4
ATOM      2  C   UNL     1       7.546   7.190  17.896  0.00  0.00    +0.000 C 
ATOM      3  O   UNL     1       7.995   6.484  18.787  0.00  0.00    +0.000 OA
ATOM      4  N   UNL     1       6.530   6.805  17.041  0.00  0.00    +0.000 N 
ATOM      5  H   UNL     1       6.248   7.446  16.314  0.00  0.00    +0.000 HD
BRANCH   2   6
ATOM      6  C   UNL     1       8.003   8.616  17.631  0.00  0.00    +0.000 C 
BRANCH   6   7
ATOM      7  C   UNL     1       8.849   9.249  18.740  0.00  0.00    +0.000 C 
BRANCH   7   8
ATOM      8  C   UNL     1       9.276  10.664  18.323  0.00  0.00    +0.000 C 
BRANCH   8   9
ATOM      9  C   UNL     1      10.184  11.346  19.347  0.00  0.00    +0.000 C 
BRANCH   9  10
ATOM     10  C   UNL     1      10.838  12.603  18.759  0.00  0.00    +0.000 C 
BRANCH  10  11
ATOM     11  C   UNL     1      10.884  13.735  19.787  0.00  0.00    +0.000 C 
BRANCH  11  12
ATOM     12  C   UNL     1      10.189  13.360  21.099  0.00  0.00    +0.000 C 
BRANCH  12  14
ATOM     13  C   UNL     1      10.713  15.782  21.596  0.00  0.00    +0.000 C 
ATOM     14  C   UNL     1       9.788  14.613  21.881  0.00  0.00    +0.000 C 
ENDBRANCH  12  14
ENDBRANCH  11  12
ENDBRANCH  10  11
ENDBRANCH   9  10
ENDBRANCH   8   9
ENDBRANCH   7   8
ENDBRANCH   6   7
ENDBRANCH   2   6
ENDBRANCH   1   4
BRANCH   1  15
ATOM     15  C   UNL     1       4.358   5.551  16.909  0.00  0.00    +0.000 C 
BRANCH  15  16
ATOM     16  N   UNL     1       3.545   4.581  17.668  0.00  0.00    +0.000 NA
ATOM     17  C   UNL     1       2.212   5.124  17.987  0.00  0.00    +0.000 C 
ATOM     18  C   UNL     1       2.298   5.607  19.423  0.00  0.00    +0.000 C 
ATOM     19  C   UNL     1       3.197   4.576  20.064  0.00  0.00    +0.000 C 
ATOM     20  C   UNL     1       4.154   4.175  18.950  0.00  0.00    +0.000 C 
ENDBRANCH  15  16
ENDBRANCH   1  15
BRANCH   1  21
ATOM     21  C   UNL     1       6.626   4.433  16.170  0.00  0.00    +0.000 C 
BRANCH  21  22
ATOM     22  C   UNL     1       6.720   4.548  14.658  0.00  0.00    +0.000 A 
ATOM     23  C   UNL     1       5.911   3.661  13.909  0.00  0.00    +0.000 A 
ATOM     24  C   UNL     1       6.088   3.491  12.536  0.00  0.00    +0.000 A 
ATOM     25  C   UNL     1       7.067   4.222  11.878  0.00  0.00    +0.000 A 
ATOM     26  C   UNL     1       7.816   5.167  12.583  0.00  0.00    +0.000 A 
ATOM     27  C   UNL     1       7.634   5.342  13.961  0.00  0.00    +0.000 A 
ENDBRANCH  21  22
BRANCH  21  28
ATOM     28  O   UNL     1       8.005   4.401  16.621  0.00  0.00    +0.000 OA
ATOM     29  H   UNL     1       7.985   4.279  17.581  0.00  0.00    +0.000 HD
ENDBRANCH  21  28
ENDBRANCH   1  21
TORSDOF 14
ENDMDL
MODEL 5
REMARK VINA RESULT:      -6.8      2.415      7.166
REMARK  Name = 
REMARK  15 active torsions:
REMARK  status: ('A' for Active; 'I' for Inactive)
REMARK    1  A    between atoms: C_1  and  C_2
REMARK    2  A    between atoms: C_2  and  C_3
REMARK    3  A    between atoms: C_3  and  C_4
REMARK    4  A    between atoms: C_4  and  C_5
REMARK    5  A    between atoms: C_5  and  C_6
REMARK    6  A    between atoms: C_6  and  C_7
REMARK    7  A    between atoms: C_7  and  C_8
REMARK    8  A    between atoms: C_8  and  C_9
REMARK    9  A    between atoms: C_9  and  C_10
REMARK   10  A    between atoms: N_12  and  C_13
REMARK   11  A    between atoms: C_13  and  C_14
REMARK   12  A    between atoms: C_13  and  C_20
REMARK   13  A    between atoms: C_14  and  N_15
REMARK   14  A    between atoms: C_20  and  O_21
REMARK   15  A    between atoms: C_20  and  C_22
REMARK                            x       y       z     vdW  Elec       q    Type
REMARK                         _______ _______ _______ _____ _____    ______ ____
ROOT
ATOM      1  C   UNL     1       3.394   5.019  17.941  0.00  0.00    +0.000 C 
ENDROOT
BRANCH   1   4
ATOM      2  C   UNL     1       2.392   7.193  18.716  0.00  0.00    +0.000 C 
ATOM      3  O   UNL     1       2.599   6.979  19.902  0.00  0.00    +0.000 OA
ATOM      4  N   UNL     1       2.716   6.312  17.703  0.00  0.00    +0.000 N 
ATOM      5  H   UNL     1       2.536   6.592  16.749  0.00  0.00    +0.000 HD
BRANCH   2   6
ATOM      6  C   UNL     1       1.700   8.440  18.188  0.00  0.00    +0.000 C 
BRANCH   6   7
ATOM      7  C   UNL     1       0.865   9.210  19.215  0.00  0.00    +0.000 C 
BRANCH   7   8
ATOM      8  C   UNL     1       1.185  10.710  19.125  0.00  0.00    +0.000 C 
BRANCH   8   9
ATOM      9  C   UNL     1       0.041  11.535  18.534  0.00  0.00    +0.000 C 
BRANCH   9  10
ATOM     10  C   UNL     1      -1.264  11.308  19.308  0.00  0.00    +0.000 C 
BRANCH  10  11
ATOM     11  C   UNL     1      -2.463  11.231  18.361  0.00  0.00    +0.000 C 
BRANCH  11  12
ATOM     12  C   UNL     1      -2.641   9.835  17.758  0.00  0.00    +0.000 C 
BRANCH  12  14
ATOM     13  C   UNL     1      -3.127  10.914  15.526  0.00  0.00    +0.000 C 
ATOM     14  C   UNL     1      -2.337   9.845  16.258  0.00  0.00    +0.000 C 
ENDBRANCH  12  14
ENDBRANCH  11  12
ENDBRANCH  10  11
ENDBRANCH   9  10
ENDBRANCH   8   9
ENDBRANCH   7   8
ENDBRANCH   6   7
ENDBRANCH   2   6
ENDBRANCH   1   4
BRANCH   1  15
ATOM     15  C   UNL     1       2.498   3.815  17.533  0.00  0.00    +0.000 C 
BRANCH  15  16
ATOM     16  N   UNL     1       2.184   2.829  18.586  0.00  0.00    +0.000 NA
ATOM     17  C   UNL     1       0.776   2.923  19.013  0.00  0.00    +0.000 C 
ATOM     18  C   UNL     1       0.789   3.731  20.297  0.00  0.00    +0.000 C 
ATOM     19  C   UNL     1       2.064   3.270  20.964  0.00  0.00    +0.000 C 
ATOM     20  C   UNL     1       3.005   2.983  19.803  0.00  0.00    +0.000 C 
ENDBRANCH  15  16
ENDBRANCH   1  15
BRANCH   1  21
ATOM     21  C   UNL     1       4.850   4.993  17.380  0.00  0.00    +0.000 C 
BRANCH  21  22
ATOM     22  C   UNL     1       5.993   5.826  17.935  0.00  0.00    +0.000 A 
ATOM     23  C   UNL     1       6.307   7.011  17.229  0.00  0.00    +0.000 A 
ATOM     24  C   UNL     1       7.479   7.725  17.480  0.00  0.00    +0.000 A 
ATOM     25  C   UNL     1       8.354   7.277  18.459  0.00  0.00    +0.000 A 
ATOM     26  C   UNL     1       8.020   6.159  19.227  0.00  0.00    +0.000 A 
ATOM     27  C   UNL     1       6.840   5.447  18.979  0.00  0.00    +0.000 A 
ENDBRANCH  21  22
BRANCH  21  28
ATOM     28  O   UNL     1       5.301   3.620  17.509  0.00  0.00    +0.000 OA
ATOM     29  H   UNL     1       5.940   3.466  16.798  0.00  0.00    +0.000 HD
ENDBRANCH  21  28
ENDBRANCH   1  21
TORSDOF 14
ENDMDL
MODEL 6
REMARK VINA RESULT:      -6.8      2.452      4.346
REMARK  Name = 
REMARK  15 active torsions:
REMARK  status: ('A' for Active; 'I' for Inactive)
REMARK    1  A    between atoms: C_1  and  C_2
REMARK    2  A    between atoms: C_2  and  C_3
REMARK    3  A    between atoms: C_3  and  C_4
REMARK    4  A    between atoms: C_4  and  C_5
REMARK    5  A    between atoms: C_5  and  C_6
REMARK    6  A    between atoms: C_6  and  C_7
REMARK    7  A    between atoms: C_7  and  C_8
REMARK    8  A    between atoms: C_8  and  C_9
REMARK    9  A    between atoms: C_9  and  C_10
REMARK   10  A    between atoms: N_12  and  C_13
REMARK   11  A    between atoms: C_13  and  C_14
REMARK   12  A    between atoms: C_13  and  C_20
REMARK   13  A    between atoms: C_14  and  N_15
REMARK   14  A    between atoms: C_20  and  O_21
REMARK   15  A    between atoms: C_20  and  C_22
REMARK                            x       y       z     vdW  Elec       q    Type
REMARK                         _______ _______ _______ _____ _____    ______ ____
ROOT
ATOM      1  C   UNL     1       5.287   5.243  17.541  0.00  0.00    +0.000 C 
ENDROOT
BRANCH   1   4
ATOM      2  C   UNL     1       7.487   6.130  18.382  0.00  0.00    +0.000 C 
ATOM      3  O   UNL     1       7.945   5.026  18.639  0.00  0.00    +0.000 OA
ATOM      4  N   UNL     1       6.219   6.342  17.873  0.00  0.00    +0.000 N 
ATOM      5  H   UNL     1       5.941   7.289  17.661  0.00  0.00    +0.000 HD
BRANCH   2   6
ATOM      6  C   UNL     1       8.225   7.435  18.633  0.00  0.00    +0.000 C 
BRANCH   6   7
ATOM      7  C   UNL     1       8.071   8.496  17.538  0.00  0.00    +0.000 C 
BRANCH   7   8
ATOM      8  C   UNL     1       8.278   9.895  18.138  0.00  0.00    +0.000 C 
BRANCH   8   9
ATOM      9  C   UNL     1       9.224   9.901  19.339  0.00  0.00    +0.000 C 
BRANCH   9  10
ATOM     10  C   UNL     1      10.207  11.077  19.265  0.00  0.00    +0.000 C 
BRANCH  10  11
ATOM     11  C   UNL     1      10.495  11.466  17.814  0.00  0.00    +0.000 C 
BRANCH  11  12
ATOM     12  C   UNL     1      10.161  12.933  17.527  0.00  0.00    +0.000 C 
BRANCH  12  14
ATOM     13  C   UNL     1      11.341  15.091  16.947  0.00  0.00    +0.000 C 
ATOM     14  C   UNL     1      11.268  13.594  16.703  0.00  0.00    +0.000 C 
ENDBRANCH  12  14
ENDBRANCH  11  12
ENDBRANCH  10  11
ENDBRANCH   9  10
ENDBRANCH   8   9
ENDBRANCH   7   8
ENDBRANCH   6   7
ENDBRANCH   2   6
ENDBRANCH   1   4
BRANCH   1  15
ATOM     15  C   UNL     1       5.812   4.380  16.359  0.00  0.00    +0.000 C 
BRANCH  15  16
ATOM     16  N   UNL     1       5.871   5.027  15.034  0.00  0.00    +0.000 NA
ATOM     17  C   UNL     1       5.063   4.298  14.039  0.00  0.00    +0.000 C 
ATOM     18  C   UNL     1       6.045   3.449  13.253  0.00  0.00    +0.000 C 
ATOM     19  C   UNL     1       7.261   4.343  13.172  0.00  0.00    +0.000 C 
ATOM     20  C   UNL     1       7.237   5.119  14.481  0.00  0.00    +0.000 C 
ENDBRANCH  15  16
ENDBRANCH   1  15
BRANCH   1  21
ATOM     21  C   UNL     1       4.824   4.447  18.800  0.00  0.00    +0.000 C 
BRANCH  21  22
ATOM     22  C   UNL     1       3.435   3.857  18.975  0.00  0.00    +0.000 A 
ATOM     23  C   UNL     1       3.373   2.487  19.321  0.00  0.00    +0.000 A 
ATOM     24  C   UNL     1       2.178   1.770  19.263  0.00  0.00    +0.000 A 
ATOM     25  C   UNL     1       1.012   2.417  18.878  0.00  0.00    +0.000 A 
ATOM     26  C   UNL     1       1.035   3.789  18.617  0.00  0.00    +0.000 A 
ATOM     27  C   UNL     1       2.235   4.509  18.681  0.00  0.00    +0.000 A 
ENDBRANCH  21  22
BRANCH  21  28
ATOM     28  O   UNL     1       5.720   3.310  18.904  0.00  0.00    +0.000 OA
ATOM     29  H   UNL     1       5.771   3.076  19.842  0.00  0.00    +0.000 HD
ENDBRANCH  21  28
ENDBRANCH   1  21
TORSDOF 14
ENDMDL
MODEL 7
REMARK VINA RESULT:      -6.8      3.731      6.743
REMARK  Name = 
REMARK  15 active torsions:
REMARK  status: ('A' for Active; 'I' for Inactive)
REMARK    1  A    between atoms: C_1  and  C_2
REMARK    2  A    between atoms: C_2  and  C_3
REMARK    3  A    between atoms: C_3  and  C_4
REMARK    4  A    between atoms: C_4  and  C_5
REMARK    5  A    between atoms: C_5  and  C_6
REMARK    6  A    between atoms: C_6  and  C_7
REMARK    7  A    between atoms: C_7  and  C_8
REMARK    8  A    between atoms: C_8  and  C_9
REMARK    9  A    between atoms: C_9  and  C_10
REMARK   10  A    between atoms: N_12  and  C_13
REMARK   11  A    between atoms: C_13  and  C_14
REMARK   12  A    between atoms: C_13  and  C_20
REMARK   13  A    between atoms: C_14  and  N_15
REMARK   14  A    between atoms: C_20  and  O_21
REMARK   15  A    between atoms: C_20  and  C_22
REMARK                            x       y       z     vdW  Elec       q    Type
REMARK                         _______ _______ _______ _____ _____    ______ ____
ROOT
ATOM      1  C   UNL     1       3.855   4.359  17.979  0.00  0.00    +0.000 C 
ENDROOT
BRANCH   1   4
ATOM      2  C   UNL     1       3.081   6.706  18.450  0.00  0.00    +0.000 C 
ATOM      3  O   UNL     1       2.798   6.483  19.618  0.00  0.00    +0.000 OA
ATOM      4  N   UNL     1       3.574   5.754  17.578  0.00  0.00    +0.000 N 
ATOM      5  H   UNL     1       3.810   6.042  16.639  0.00  0.00    +0.000 HD
BRANCH   2   6
ATOM      6  C   UNL     1       2.883   8.053  17.771  0.00  0.00    +0.000 C 
BRANCH   6   7
ATOM      7  C   UNL     1       1.588   8.784  18.134  0.00  0.00    +0.000 C 
BRANCH   7   8
ATOM      8  C   UNL     1       1.864  10.288  18.278  0.00  0.00    +0.000 C 
BRANCH   8   9
ATOM      9  C   UNL     1       0.591  11.134  18.315  0.00  0.00    +0.000 C 
BRANCH   9  10
ATOM     10  C   UNL     1      -0.569  10.363  18.957  0.00  0.00    +0.000 C 
BRANCH  10  11
ATOM     11  C   UNL     1      -1.080  11.074  20.211  0.00  0.00    +0.000 C 
BRANCH  11  12
ATOM     12  C   UNL     1      -0.276  10.705  21.460  0.00  0.00    +0.000 C 
BRANCH  12  14
ATOM     13  C   UNL     1       1.267   8.737  21.821  0.00  0.00    +0.000 C 
ATOM     14  C   UNL     1      -0.167   9.186  21.611  0.00  0.00    +0.000 C 
ENDBRANCH  12  14
ENDBRANCH  11  12
ENDBRANCH  10  11
ENDBRANCH   9  10
ENDBRANCH   8   9
ENDBRANCH   7   8
ENDBRANCH   6   7
ENDBRANCH   2   6
ENDBRANCH   1   4
BRANCH   1  15
ATOM     15  C   UNL     1       2.616   3.441  17.779  0.00  0.00    +0.000 C 
BRANCH  15  16
ATOM     16  N   UNL     1       2.251   2.557  18.903  0.00  0.00    +0.000 NA
ATOM     17  C   UNL     1       0.866   2.793  19.349  0.00  0.00    +0.000 C 
ATOM     18  C   UNL     1       0.974   3.683  20.574  0.00  0.00    +0.000 C 
ATOM     19  C   UNL     1       2.223   3.166  21.246  0.00  0.00    +0.000 C 
ATOM     20  C   UNL     1       3.111   2.726  20.091  0.00  0.00    +0.000 C 
ENDBRANCH  15  16
ENDBRANCH   1  15
BRANCH   1  21
ATOM     21  C   UNL     1       5.193   3.821  17.383  0.00  0.00    +0.000 C 
BRANCH  21  22
ATOM     22  C   UNL     1       5.811   4.319  16.087  0.00  0.00    +0.000 A 
ATOM     23  C   UNL     1       5.259   3.807  14.890  0.00  0.00    +0.000 A 
ATOM     24  C   UNL     1       5.890   3.984  13.658  0.00  0.00    +0.000 A 
ATOM     25  C   UNL     1       7.078   4.697  13.596  0.00  0.00    +0.000 A 
ATOM     26  C   UNL     1       7.594   5.285  14.753  0.00  0.00    +0.000 A 
ATOM     27  C   UNL     1       6.957   5.112  15.989  0.00  0.00    +0.000 A 
ENDBRANCH  21  22
BRANCH  21  28
ATOM     28  O   UNL     1       6.206   4.070  18.391  0.00  0.00    +0.000 OA
ATOM     29  H   UNL     1       6.523   3.205  18.691  0.00  0.00    +0.000 HD
ENDBRANCH  21  28
ENDBRANCH   1  21
TORSDOF 14
ENDMDL
MODEL 8
REMARK VINA RESULT:      -6.8      3.759      7.300
REMARK  Name = 
REMARK  15 active torsions:
REMARK  status: ('A' for Active; 'I' for Inactive)
REMARK    1  A    between atoms: C_1  and  C_2
REMARK    2  A    between atoms: C_2  and  C_3
REMARK    3  A    between atoms: C_3  and  C_4
REMARK    4  A    between atoms: C_4  and  C_5
REMARK    5  A    between atoms: C_5  and  C_6
REMARK    6  A    between atoms: C_6  and  C_7
REMARK    7  A    between atoms: C_7  and  C_8
REMARK    8  A    between atoms: C_8  and  C_9
REMARK    9  A    between atoms: C_9  and  C_10
REMARK   10  A    between atoms: N_12  and  C_13
REMARK   11  A    between atoms: C_13  and  C_14
REMARK   12  A    between atoms: C_13  and  C_20
REMARK   13  A    between atoms: C_14  and  N_15
REMARK   14  A    between atoms: C_20  and  O_21
REMARK   15  A    between atoms: C_20  and  C_22
REMARK                            x       y       z     vdW  Elec       q    Type
REMARK                         _______ _______ _______ _____ _____    ______ ____
ROOT
ATOM      1  C   UNL     1       3.547   5.616  17.778  0.00  0.00    +0.000 C 
ENDROOT
BRANCH   1   4
ATOM      2  C   UNL     1       2.450   7.857  18.107  0.00  0.00    +0.000 C 
ATOM      3  O   UNL     1       2.903   8.339  17.079  0.00  0.00    +0.000 OA
ATOM      4  N   UNL     1       2.715   6.572  18.541  0.00  0.00    +0.000 N 
ATOM      5  H   UNL     1       2.268   6.251  19.387  0.00  0.00    +0.000 HD
BRANCH   2   6
ATOM      6  C   UNL     1       1.572   8.619  19.087  0.00  0.00    +0.000 C 
BRANCH   6   7
ATOM      7  C   UNL     1       1.191  10.039  18.656  0.00  0.00    +0.000 C 
BRANCH   7   8
ATOM      8  C   UNL     1      -0.293  10.293  18.965  0.00  0.00    +0.000 C 
BRANCH   8   9
ATOM      9  C   UNL     1      -0.609  11.766  19.227  0.00  0.00    +0.000 C 
BRANCH   9  10
ATOM     10  C   UNL     1      -1.338  11.947  20.564  0.00  0.00    +0.000 C 
BRANCH  10  11
ATOM     11  C   UNL     1      -0.393  11.715  21.745  0.00  0.00    +0.000 C 
BRANCH  11  12
ATOM     12  C   UNL     1      -1.075  10.980  22.902  0.00  0.00    +0.000 C 
BRANCH  12  14
ATOM     13  C   UNL     1      -0.415   8.648  22.187  0.00  0.00    +0.000 C 
ATOM     14  C   UNL     1      -0.308   9.708  23.269  0.00  0.00    +0.000 C 
ENDBRANCH  12  14
ENDBRANCH  11  12
ENDBRANCH  10  11
ENDBRANCH   9  10
ENDBRANCH   8   9
ENDBRANCH   7   8
ENDBRANCH   6   7
ENDBRANCH   2   6
ENDBRANCH   1   4
BRANCH   1  15
ATOM     15  C   UNL     1       5.057   5.776  18.108  0.00  0.00    +0.000 C 
BRANCH  15  16
ATOM     16  N   UNL     1       5.954   6.125  16.989  0.00  0.00    +0.000 NA
ATOM     17  C   UNL     1       5.236   6.125  15.701  0.00  0.00    +0.000 C 
ATOM     18  C   UNL     1       5.558   4.793  15.051  0.00  0.00    +0.000 C 
ATOM     19  C   UNL     1       6.995   4.568  15.455  0.00  0.00    +0.000 C 
ATOM     20  C   UNL     1       7.095   5.202  16.835  0.00  0.00    +0.000 C 
ENDBRANCH  15  16
ENDBRANCH   1  15
BRANCH   1  21
ATOM     21  C   UNL     1       2.996   4.158  17.840  0.00  0.00    +0.000 C 
BRANCH  21  22
ATOM     22  C   UNL     1       2.589   3.453  19.123  0.00  0.00    +0.000 A 
ATOM     23  C   UNL     1       1.205   3.438  19.420  0.00  0.00    +0.000 A 
ATOM     24  C   UNL     1       0.729   3.053  20.673  0.00  0.00    +0.000 A 
ATOM     25  C   UNL     1       1.629   2.654  21.652  0.00  0.00    +0.000 A 
ATOM     26  C   UNL     1       2.990   2.578  21.351  0.00  0.00    +0.000 A 
ATOM     27  C   UNL     1       3.467   2.959  20.090  0.00  0.00    +0.000 A 
ENDBRANCH  21  22
BRANCH  21  28
ATOM     28  O   UNL     1       1.798   4.150  17.022  0.00  0.00    +0.000 OA
ATOM     29  H   UNL     1       1.219   4.848  17.363  0.00  0.00    +0.000 HD
ENDBRANCH  21  28
ENDBRANCH   1  21
TORSDOF 14
ENDMDL
MODEL 9
REMARK VINA RESULT:      -6.8      2.865      7.682
REMARK  Name = 
REMARK  15 active torsions:
REMARK  status: ('A' for Active; 'I' for Inactive)
REMARK    1  A    between atoms: C_1  and  C_2
REMARK    2  A    between atoms: C_2  and  C_3
REMARK    3  A    between atoms: C_3  and  C_4
REMARK    4  A    between atoms: C_4  and  C_5
REMARK    5  A    between atoms: C_5  and  C_6
REMARK    6  A    between atoms: C_6  and  C_7
REMARK    7  A    between atoms: C_7  and  C_8
REMARK    8  A    between atoms: C_8  and  C_9
REMARK    9  A    between atoms: C_9  and  C_10
REMARK   10  A    between atoms: N_12  and  C_13
REMARK   11  A    between atoms: C_13  and  C_14
REMARK   12  A    between atoms: C_13  and  C_20
REMARK   13  A    between atoms: C_14  and  N_15
REMARK   14  A    between atoms: C_20  and  O_21
REMARK   15  A    between atoms: C_20  and  C_22
REMARK                            x       y       z     vdW  Elec       q    Type
REMARK                         _______ _______ _______ _____ _____    ______ ____
ROOT
ATOM      1  C   UNL     1       3.014   6.464  18.296  0.00  0.00    +0.000 C 
ENDROOT
BRANCH   1   4
ATOM      2  C   UNL     1       1.685   8.534  18.829  0.00  0.00    +0.000 C 
ATOM      3  O   UNL     1       1.803   8.417  20.041  0.00  0.00    +0.000 OA
ATOM      4  N   UNL     1       2.208   7.644  17.911  0.00  0.00    +0.000 N 
ATOM      5  H   UNL     1       2.086   7.842  16.929  0.00  0.00    +0.000 HD
BRANCH   2   6
ATOM      6  C   UNL     1       0.899   9.649  18.157  0.00  0.00    +0.000 C 
BRANCH   6   7
ATOM      7  C   UNL     1       0.904  10.990  18.897  0.00  0.00    +0.000 C 
BRANCH   7   8
ATOM      8  C   UNL     1      -0.338  11.091  19.797  0.00  0.00    +0.000 C 
BRANCH   8   9
ATOM      9  C   UNL     1      -1.318  12.176  19.351  0.00  0.00    +0.000 C 
BRANCH   9  10
ATOM     10  C   UNL     1      -1.896  11.867  17.964  0.00  0.00    +0.000 C 
BRANCH  10  11
ATOM     11  C   UNL     1      -3.132  10.971  18.066  0.00  0.00    +0.000 C 
BRANCH  11  12
ATOM     12  C   UNL     1      -3.145   9.871  17.001  0.00  0.00    +0.000 C 
BRANCH  12  14
ATOM     13  C   UNL     1      -3.502  10.115  14.511  0.00  0.00    +0.000 C 
ATOM     14  C   UNL     1      -2.570  10.385  15.679  0.00  0.00    +0.000 C 
ENDBRANCH  12  14
ENDBRANCH  11  12
ENDBRANCH  10  11
ENDBRANCH   9  10
ENDBRANCH   8   9
ENDBRANCH   7   8
ENDBRANCH   6   7
ENDBRANCH   2   6
ENDBRANCH   1   4
BRANCH   1  15
ATOM     15  C   UNL     1       2.116   5.246  18.655  0.00  0.00    +0.000 C 
BRANCH  15  16
ATOM     16  N   UNL     1       2.646   4.297  19.653  0.00  0.00    +0.000 NA
ATOM     17  C   UNL     1       2.511   2.901  19.197  0.00  0.00    +0.000 C 
ATOM     18  C   UNL     1       1.275   2.359  19.890  0.00  0.00    +0.000 C 
ATOM     19  C   UNL     1       1.339   3.023  21.245  0.00  0.00    +0.000 C 
ATOM     20  C   UNL     1       1.971   4.379  20.963  0.00  0.00    +0.000 C 
ENDBRANCH  15  16
ENDBRANCH   1  15
BRANCH   1  21
ATOM     21  C   UNL     1       4.171   6.174  17.292  0.00  0.00    +0.000 C 
BRANCH  21  22
ATOM     22  C   UNL     1       5.646   6.317  17.624  0.00  0.00    +0.000 A 
ATOM     23  C   UNL     1       6.158   5.434  18.604  0.00  0.00    +0.000 A 
ATOM     24  C   UNL     1       7.416   5.625  19.176  0.00  0.00    +0.000 A 
ATOM     25  C   UNL     1       8.198   6.694  18.764  0.00  0.00    +0.000 A 
ATOM     26  C   UNL     1       7.748   7.526  17.736  0.00  0.00    +0.000 A 
ATOM     27  C   UNL     1       6.487   7.330  17.157  0.00  0.00    +0.000 A 
ENDBRANCH  21  22
BRANCH  21  28
ATOM     28  O   UNL     1       4.017   4.786  16.899  0.00  0.00    +0.000 OA
ATOM     29  H   UNL     1       4.756   4.577  16.309  0.00  0.00    +0.000 HD
ENDBRANCH  21  28
ENDBRANCH   1  21
TORSDOF 14
ENDMDL
