MODEL 1
REMARK VINA RESULT:      -8.1      0.000      0.000
REMARK  Name = 
REMARK  5 active torsions:
REMARK  status: ('A' for Active; 'I' for Inactive)
REMARK    1  A    between atoms: C_1  and  N_2
REMARK    2  A    between atoms: C_5  and  C_6
REMARK    3  A    between atoms: N_8  and  C_9
REMARK    4  A    between atoms: N_15  and  C_16
REMARK    5  A    between atoms: C_16  and  C_17
REMARK                            x       y       z     vdW  Elec       q    Type
REMARK                         _______ _______ _______ _____ _____    ______ ____
ROOT
ATOM      1  C   UNL     1       2.305   4.621  21.025  0.00  0.00    +0.000 C 
ATOM      2  C   UNL     1       1.620   3.433  21.725  0.00  0.00    +0.000 C 
ATOM      3  C   UNL     1       1.239   2.872  20.337  0.00  0.00    +0.000 C 
ATOM      4  C   UNL     1       2.353   3.762  19.700  0.00  0.00    +0.000 C 
ATOM      5  C   UNL     1       1.938   4.512  18.429  0.00  0.00    +0.000 C 
ATOM      6  C   UNL     1       2.002   3.586  17.213  0.00  0.00    +0.000 C 
ATOM      7  N   UNL     1       3.353   3.041  16.974  0.00  0.00    +0.000 NA
ATOM      8  C   UNL     1       3.749   2.262  18.161  0.00  0.00    +0.000 C 
ATOM      9  C   UNL     1       3.697   3.025  19.497  0.00  0.00    +0.000 C 
ENDROOT
BRANCH   1  12
ATOM     10  C   UNL     1       2.007   7.080  20.366  0.00  0.00    +0.000 C 
ATOM     11  O   UNL     1       3.018   7.167  19.682  0.00  0.00    +0.000 OA
ATOM     12  N   UNL     1       1.558   5.910  20.940  0.00  0.00    +0.000 N 
ATOM     13  H   UNL     1       0.688   5.978  21.453  0.00  0.00    +0.000 HD
BRANCH  10  18
ATOM     14  C   UNL     1      -0.615  10.640  22.750  0.00  0.00    +0.000 C 
ATOM     15  N   UNL     1       0.101   9.907  21.732  0.00  0.00    +0.000 N 
ATOM     16  C   UNL     1       0.333  10.353  20.464  0.00  0.00    +0.000 A 
ATOM     17  C   UNL     1       0.982   9.352  19.782  0.00  0.00    +0.000 A 
ATOM     18  C   UNL     1       1.240   8.283  20.694  0.00  0.00    +0.000 A 
ATOM     19  C   UNL     1       0.659   8.662  21.896  0.00  0.00    +0.000 A 
ENDBRANCH  10  18
ENDBRANCH   1  12
BRANCH   7  20
ATOM     20  C   UNL     1       4.296   4.103  16.573  0.00  0.00    +0.000 C 
BRANCH  20  21
ATOM     21  C   UNL     1       5.784   3.702  16.409  0.00  0.00    +0.000 C 
ATOM     22  C   UNL     1       6.303   3.766  14.963  0.00  0.00    +0.000 C 
ATOM     23  C   UNL     1       6.622   5.186  14.507  0.00  0.00    +0.000 C 
ATOM     24  O   UNL     1       7.525   5.821  15.410  0.00  0.00    +0.000 OA
ATOM     25  C   UNL     1       6.968   5.951  16.714  0.00  0.00    +0.000 C 
ATOM     26  C   UNL     1       6.678   4.579  17.313  0.00  0.00    +0.000 C 
ENDBRANCH  20  21
ENDBRANCH   7  20
TORSDOF 4
ENDMDL
MODEL 2
REMARK VINA RESULT:      -7.8      0.895      1.578
REMARK  Name = 
REMARK  5 active torsions:
REMARK  status: ('A' for Active; 'I' for Inactive)
REMARK    1  A    between atoms: C_1  and  N_2
REMARK    2  A    between atoms: C_5  and  C_6
REMARK    3  A    between atoms: N_8  and  C_9
REMARK    4  A    between atoms: N_15  and  C_16
REMARK    5  A    between atoms: C_16  and  C_17
REMARK                            x       y       z     vdW  Elec       q    Type
REMARK                         _______ _______ _______ _____ _____    ______ ____
ROOT
ATOM      1  C   UNL     1       2.084   4.289  21.012  0.00  0.00    +0.000 C 
ATOM      2  C   UNL     1       1.116   3.214  21.537  0.00  0.00    +0.000 C 
ATOM      3  C   UNL     1       1.004   2.654  20.102  0.00  0.00    +0.000 C 
ATOM      4  C   UNL     1       2.336   3.386  19.741  0.00  0.00    +0.000 C 
ATOM      5  C   UNL     1       2.323   4.136  18.403  0.00  0.00    +0.000 C 
ATOM      6  C   UNL     1       2.558   3.168  17.242  0.00  0.00    +0.000 C 
ATOM      7  N   UNL     1       3.851   2.461  17.332  0.00  0.00    +0.000 NA
ATOM      8  C   UNL     1       3.861   1.683  18.583  0.00  0.00    +0.000 C 
ATOM      9  C   UNL     1       3.591   2.491  19.865  0.00  0.00    +0.000 C 
ENDROOT
BRANCH   1  12
ATOM     10  C   UNL     1       2.226   6.717  20.201  0.00  0.00    +0.000 C 
ATOM     11  O   UNL     1       3.335   6.631  19.690  0.00  0.00    +0.000 OA
ATOM     12  N   UNL     1       1.539   5.653  20.746  0.00  0.00    +0.000 N 
ATOM     13  H   UNL     1       0.616   5.864  21.104  0.00  0.00    +0.000 HD
BRANCH  10  18
ATOM     14  C   UNL     1       0.340  11.292  19.341  0.00  0.00    +0.000 C 
ATOM     15  N   UNL     1       0.700  10.051  19.985  0.00  0.00    +0.000 N 
ATOM     16  C   UNL     1       0.358   9.703  21.260  0.00  0.00    +0.000 A 
ATOM     17  C   UNL     1       0.937   8.486  21.528  0.00  0.00    +0.000 A 
ATOM     18  C   UNL     1       1.585   8.025  20.342  0.00  0.00    +0.000 A 
ATOM     19  C   UNL     1       1.427   9.039  19.407  0.00  0.00    +0.000 A 
ENDBRANCH  10  18
ENDBRANCH   1  12
BRANCH   7  20
ATOM     20  C   UNL     1       4.983   3.392  17.159  0.00  0.00    +0.000 C 
BRANCH  20  21
ATOM     21  C   UNL     1       4.807   4.534  16.127  0.00  0.00    +0.000 C 
ATOM     22  C   UNL     1       5.215   5.925  16.643  0.00  0.00    +0.000 C 
ATOM     23  C   UNL     1       6.725   6.140  16.645  0.00  0.00    +0.000 C 
ATOM     24  O   UNL     1       7.278   5.883  15.356  0.00  0.00    +0.000 OA
ATOM     25  C   UNL     1       7.082   4.531  14.954  0.00  0.00    +0.000 C 
ATOM     26  C   UNL     1       5.595   4.216  14.837  0.00  0.00    +0.000 C 
ENDBRANCH  20  21
ENDBRANCH   7  20
TORSDOF 4
ENDMDL
MODEL 3
REMARK VINA RESULT:      -7.5      2.318      3.027
REMARK  Name = 
REMARK  5 active torsions:
REMARK  status: ('A' for Active; 'I' for Inactive)
REMARK    1  A    between atoms: C_1  and  N_2
REMARK    2  A    between atoms: C_5  and  C_6
REMARK    3  A    between atoms: N_8  and  C_9
REMARK    4  A    between atoms: N_15  and  C_16
REMARK    5  A    between atoms: C_16  and  C_17
REMARK                            x       y       z     vdW  Elec       q    Type
REMARK                         _______ _______ _______ _____ _____    ______ ____
ROOT
ATOM      1  C   UNL     1       2.185   7.667  19.869  0.00  0.00    +0.000 C 
ATOM      2  C   UNL     1       1.598   7.185  21.208  0.00  0.00    +0.000 C 
ATOM      3  C   UNL     1       1.287   5.823  20.549  0.00  0.00    +0.000 C 
ATOM      4  C   UNL     1       2.327   6.156  19.432  0.00  0.00    +0.000 C 
ATOM      5  C   UNL     1       1.864   5.852  18.002  0.00  0.00    +0.000 C 
ATOM      6  C   UNL     1       2.027   4.363  17.690  0.00  0.00    +0.000 C 
ATOM      7  N   UNL     1       3.424   3.899  17.803  0.00  0.00    +0.000 NA
ATOM      8  C   UNL     1       3.871   4.125  19.188  0.00  0.00    +0.000 C 
ATOM      9  C   UNL     1       3.734   5.571  19.697  0.00  0.00    +0.000 C 
ENDROOT
BRANCH   1  12
ATOM     10  C   UNL     1       0.778   9.741  19.331  0.00  0.00    +0.000 C 
ATOM     11  O   UNL     1       1.074  10.377  20.334  0.00  0.00    +0.000 OA
ATOM     12  N   UNL     1       1.327   8.521  18.996  0.00  0.00    +0.000 N 
ATOM     13  H   UNL     1       1.014   8.125  18.120  0.00  0.00    +0.000 HD
BRANCH  10  18
ATOM     14  C   UNL     1      -2.838  10.086  15.861  0.00  0.00    +0.000 C 
ATOM     15  N   UNL     1      -1.922  10.407  16.931  0.00  0.00    +0.000 N 
ATOM     16  C   UNL     1      -1.873  11.601  17.588  0.00  0.00    +0.000 A 
ATOM     17  C   UNL     1      -0.834  11.541  18.486  0.00  0.00    +0.000 A 
ATOM     18  C   UNL     1      -0.280  10.225  18.443  0.00  0.00    +0.000 A 
ATOM     19  C   UNL     1      -0.976   9.554  17.448  0.00  0.00    +0.000 A 
ENDBRANCH  10  18
ENDBRANCH   1  12
BRANCH   7  20
ATOM     20  C   UNL     1       4.275   4.504  16.759  0.00  0.00    +0.000 C 
BRANCH  20  21
ATOM     21  C   UNL     1       5.672   3.873  16.533  0.00  0.00    +0.000 C 
ATOM     22  C   UNL     1       6.089   3.766  15.056  0.00  0.00    +0.000 C 
ATOM     23  C   UNL     1       6.578   5.090  14.479  0.00  0.00    +0.000 C 
ATOM     24  O   UNL     1       7.628   5.638  15.275  0.00  0.00    +0.000 OA
ATOM     25  C   UNL     1       7.191   5.932  16.598  0.00  0.00    +0.000 C 
ATOM     26  C   UNL     1       6.747   4.660  17.313  0.00  0.00    +0.000 C 
ENDBRANCH  20  21
ENDBRANCH   7  20
TORSDOF 4
ENDMDL
MODEL 4
REMARK VINA RESULT:      -7.4      1.315      1.863
REMARK  Name = 
REMARK  5 active torsions:
REMARK  status: ('A' for Active; 'I' for Inactive)
REMARK    1  A    between atoms: C_1  and  N_2
REMARK    2  A    between atoms: C_5  and  C_6
REMARK    3  A    between atoms: N_8  and  C_9
REMARK    4  A    between atoms: N_15  and  C_16
REMARK    5  A    between atoms: C_16  and  C_17
REMARK                            x       y       z     vdW  Elec       q    Type
REMARK                         _______ _______ _______ _____ _____    ______ ____
ROOT
ATOM      1  C   UNL     1       2.455   5.535  20.507  0.00  0.00    +0.000 C 
ATOM      2  C   UNL     1       1.329   4.767  21.221  0.00  0.00    +0.000 C 
ATOM      3  C   UNL     1       1.089   3.967  19.922  0.00  0.00    +0.000 C 
ATOM      4  C   UNL     1       2.519   4.373  19.440  0.00  0.00    +0.000 C 
ATOM      5  C   UNL     1       2.605   4.839  17.982  0.00  0.00    +0.000 C 
ATOM      6  C   UNL     1       2.642   3.638  17.035  0.00  0.00    +0.000 C 
ATOM      7  N   UNL     1       3.795   2.749  17.276  0.00  0.00    +0.000 NA
ATOM      8  C   UNL     1       3.701   2.238  18.655  0.00  0.00    +0.000 C 
ATOM      9  C   UNL     1       3.603   3.314  19.750  0.00  0.00    +0.000 C 
ENDROOT
BRANCH   1  12
ATOM     10  C   UNL     1       1.575   7.937  20.672  0.00  0.00    +0.000 C 
ATOM     11  O   UNL     1       1.409   7.944  21.885  0.00  0.00    +0.000 OA
ATOM     12  N   UNL     1       2.147   6.894  19.974  0.00  0.00    +0.000 N 
ATOM     13  H   UNL     1       2.253   7.039  18.978  0.00  0.00    +0.000 HD
BRANCH  10  18
ATOM     14  C   UNL     1      -0.775  12.074  19.063  0.00  0.00    +0.000 C 
ATOM     15  N   UNL     1       0.073  10.906  19.118  0.00  0.00    +0.000 N 
ATOM     16  C   UNL     1       0.896  10.489  18.113  0.00  0.00    +0.000 A 
ATOM     17  C   UNL     1       1.484   9.314  18.517  0.00  0.00    +0.000 A 
ATOM     18  C   UNL     1       1.076   9.047  19.859  0.00  0.00    +0.000 A 
ATOM     19  C   UNL     1       0.183  10.055  20.191  0.00  0.00    +0.000 A 
ENDBRANCH  10  18
ENDBRANCH   1  12
BRANCH   7  20
ATOM     20  C   UNL     1       5.067   3.418  16.937  0.00  0.00    +0.000 C 
BRANCH  20  21
ATOM     21  C   UNL     1       4.978   4.735  16.126  0.00  0.00    +0.000 C 
ATOM     22  C   UNL     1       5.606   5.954  16.823  0.00  0.00    +0.000 C 
ATOM     23  C   UNL     1       7.128   5.979  16.723  0.00  0.00    +0.000 C 
ATOM     24  O   UNL     1       7.551   5.884  15.363  0.00  0.00    +0.000 OA
ATOM     25  C   UNL     1       7.145   4.657  14.766  0.00  0.00    +0.000 C 
ATOM     26  C   UNL     1       5.625   4.552  14.735  0.00  0.00    +0.000 C 
ENDBRANCH  20  21
ENDBRANCH   7  20
TORSDOF 4
ENDMDL
MODEL 5
REMARK VINA RESULT:      -7.1      3.295      8.351
REMARK  Name = 
REMARK  5 active torsions:
REMARK  status: ('A' for Active; 'I' for Inactive)
REMARK    1  A    between atoms: C_1  and  N_2
REMARK    2  A    between atoms: C_5  and  C_6
REMARK    3  A    between atoms: N_8  and  C_9
REMARK    4  A    between atoms: N_15  and  C_16
REMARK    5  A    between atoms: C_16  and  C_17
REMARK                            x       y       z     vdW  Elec       q    Type
REMARK                         _______ _______ _______ _____ _____    ______ ____
ROOT
ATOM      1  C   UNL     1       7.008   4.686  16.176  0.00  0.00    +0.000 C 
ATOM      2  C   UNL     1       7.323   6.184  16.017  0.00  0.00    +0.000 C 
ATOM      3  C   UNL     1       5.924   6.510  16.584  0.00  0.00    +0.000 C 
ATOM      4  C   UNL     1       5.867   5.074  17.197  0.00  0.00    +0.000 C 
ATOM      5  C   UNL     1       4.540   4.333  16.995  0.00  0.00    +0.000 C 
ATOM      6  C   UNL     1       3.504   4.797  18.021  0.00  0.00    +0.000 C 
ATOM      7  N   UNL     1       3.927   4.560  19.415  0.00  0.00    +0.000 NA
ATOM      8  C   UNL     1       5.170   5.314  19.652  0.00  0.00    +0.000 C 
ATOM      9  C   UNL     1       6.320   5.011  18.675  0.00  0.00    +0.000 C 
ENDROOT
BRANCH   1  12
ATOM     10  C   UNL     1       6.756   4.308  13.653  0.00  0.00    +0.000 C 
ATOM     11  O   UNL     1       7.470   5.237  13.300  0.00  0.00    +0.000 OA
ATOM     12  N   UNL     1       6.571   3.929  14.966  0.00  0.00    +0.000 N 
ATOM     13  H   UNL     1       5.979   3.122  15.111  0.00  0.00    +0.000 HD
BRANCH  10  18
ATOM     14  C   UNL     1       3.195   2.895  10.404  0.00  0.00    +0.000 C 
ATOM     15  N   UNL     1       4.412   2.934  11.182  0.00  0.00    +0.000 N 
ATOM     16  C   UNL     1       5.432   2.033  11.085  0.00  0.00    +0.000 A 
ATOM     17  C   UNL     1       6.375   2.370  12.026  0.00  0.00    +0.000 A 
ATOM     18  C   UNL     1       5.961   3.578  12.665  0.00  0.00    +0.000 A 
ATOM     19  C   UNL     1       4.723   3.888  12.121  0.00  0.00    +0.000 A 
ENDBRANCH  10  18
ENDBRANCH   1  12
BRANCH   7  20
ATOM     20  C   UNL     1       3.998   3.116  19.715  0.00  0.00    +0.000 C 
BRANCH  20  21
ATOM     21  C   UNL     1       2.838   2.509  20.545  0.00  0.00    +0.000 C 
ATOM     22  C   UNL     1       2.065   3.530  21.397  0.00  0.00    +0.000 C 
ATOM     23  C   UNL     1       1.071   4.353  20.583  0.00  0.00    +0.000 C 
ATOM     24  O   UNL     1       0.182   3.507  19.855  0.00  0.00    +0.000 OA
ATOM     25  C   UNL     1       0.876   2.696  18.912  0.00  0.00    +0.000 C 
ATOM     26  C   UNL     1       1.851   1.763  19.619  0.00  0.00    +0.000 C 
ENDBRANCH  20  21
ENDBRANCH   7  20
TORSDOF 4
ENDMDL
MODEL 6
REMARK VINA RESULT:      -7.1      1.369      1.633
REMARK  Name = 
REMARK  5 active torsions:
REMARK  status: ('A' for Active; 'I' for Inactive)
REMARK    1  A    between atoms: C_1  and  N_2
REMARK    2  A    between atoms: C_5  and  C_6
REMARK    3  A    between atoms: N_8  and  C_9
REMARK    4  A    between atoms: N_15  and  C_16
REMARK    5  A    between atoms: C_16  and  C_17
REMARK                            x       y       z     vdW  Elec       q    Type
REMARK                         _______ _______ _______ _____ _____    ______ ____
ROOT
ATOM      1  C   UNL     1       2.518   6.266  20.385  0.00  0.00    +0.000 C 
ATOM      2  C   UNL     1       1.801   5.396  21.432  0.00  0.00    +0.000 C 
ATOM      3  C   UNL     1       1.362   4.443  20.299  0.00  0.00    +0.000 C 
ATOM      4  C   UNL     1       2.497   5.031  19.401  0.00  0.00    +0.000 C 
ATOM      5  C   UNL     1       2.083   5.358  17.961  0.00  0.00    +0.000 C 
ATOM      6  C   UNL     1       2.078   4.093  17.102  0.00  0.00    +0.000 C 
ATOM      7  N   UNL     1       3.399   3.436  17.036  0.00  0.00    +0.000 NA
ATOM      8  C   UNL     1       3.791   3.056  18.404  0.00  0.00    +0.000 C 
ATOM      9  C   UNL     1       3.804   4.204  19.429  0.00  0.00    +0.000 C 
ENDROOT
BRANCH   1  12
ATOM     10  C   UNL     1       1.380   8.544  20.681  0.00  0.00    +0.000 C 
ATOM     11  O   UNL     1       1.662   8.690  21.863  0.00  0.00    +0.000 OA
ATOM     12  N   UNL     1       1.823   7.496  19.902  0.00  0.00    +0.000 N 
ATOM     13  H   UNL     1       1.539   7.520  18.932  0.00  0.00    +0.000 HD
BRANCH  10  18
ATOM     14  C   UNL     1      -2.150  11.997  19.761  0.00  0.00    +0.000 C 
ATOM     15  N   UNL     1      -1.092  11.030  19.585  0.00  0.00    +0.000 N 
ATOM     16  C   UNL     1      -0.513  10.712  18.391  0.00  0.00    +0.000 A 
ATOM     17  C   UNL     1       0.399   9.711  18.625  0.00  0.00    +0.000 A 
ATOM     18  C   UNL     1       0.449   9.468  20.031  0.00  0.00    +0.000 A 
ATOM     19  C   UNL     1      -0.509  10.300  20.593  0.00  0.00    +0.000 A 
ENDBRANCH  10  18
ENDBRANCH   1  12
BRANCH   7  20
ATOM     20  C   UNL     1       4.376   4.271  16.308  0.00  0.00    +0.000 C 
BRANCH  20  21
ATOM     21  C   UNL     1       5.803   3.694  16.129  0.00  0.00    +0.000 C 
ATOM     22  C   UNL     1       6.295   3.660  14.673  0.00  0.00    +0.000 C 
ATOM     23  C   UNL     1       6.768   5.020  14.172  0.00  0.00    +0.000 C 
ATOM     24  O   UNL     1       7.757   5.569  15.041  0.00  0.00    +0.000 OA
ATOM     25  C   UNL     1       7.246   5.796  16.351  0.00  0.00    +0.000 C 
ATOM     26  C   UNL     1       6.811   4.483  16.992  0.00  0.00    +0.000 C 
ENDBRANCH  20  21
ENDBRANCH   7  20
TORSDOF 4
ENDMDL
MODEL 7
REMARK VINA RESULT:      -7.0      1.667      2.180
REMARK  Name = 
REMARK  5 active torsions:
REMARK  status: ('A' for Active; 'I' for Inactive)
REMARK    1  A    between atoms: C_1  and  N_2
REMARK    2  A    between atoms: C_5  and  C_6
REMARK    3  A    between atoms: N_8  and  C_9
REMARK    4  A    between atoms: N_15  and  C_16
REMARK    5  A    between atoms: C_16  and  C_17
REMARK                            x       y       z     vdW  Elec       q    Type
REMARK                         _______ _______ _______ _____ _____    ______ ____
ROOT
ATOM      1  C   UNL     1       1.590   5.605  20.634  0.00  0.00    +0.000 C 
ATOM      2  C   UNL     1       0.576   4.477  20.376  0.00  0.00    +0.000 C 
ATOM      3  C   UNL     1       1.419   4.035  19.160  0.00  0.00    +0.000 C 
ATOM      4  C   UNL     1       2.636   4.813  19.755  0.00  0.00    +0.000 C 
ATOM      5  C   UNL     1       3.414   5.669  18.749  0.00  0.00    +0.000 C 
ATOM      6  C   UNL     1       4.381   4.803  17.940  0.00  0.00    +0.000 C 
ATOM      7  N   UNL     1       5.376   4.110  18.782  0.00  0.00    +0.000 NA
ATOM      8  C   UNL     1       4.652   3.232  19.718  0.00  0.00    +0.000 C 
ATOM      9  C   UNL     1       3.592   3.929  20.589  0.00  0.00    +0.000 C 
ENDROOT
BRANCH   1  12
ATOM     10  C   UNL     1       1.317   8.140  20.899  0.00  0.00    +0.000 C 
ATOM     11  O   UNL     1       1.850   8.226  21.998  0.00  0.00    +0.000 OA
ATOM     12  N   UNL     1       1.246   6.978  20.161  0.00  0.00    +0.000 N 
ATOM     13  H   UNL     1       0.806   7.061  19.254  0.00  0.00    +0.000 HD
BRANCH  10  18
ATOM     14  C   UNL     1      -1.666  12.118  20.187  0.00  0.00    +0.000 C 
ATOM     15  N   UNL     1      -0.664  11.096  19.991  0.00  0.00    +0.000 N 
ATOM     16  C   UNL     1       0.149  10.998  18.900  0.00  0.00    +0.000 A 
ATOM     17  C   UNL     1       0.915   9.866  19.052  0.00  0.00    +0.000 A 
ATOM     18  C   UNL     1       0.624   9.297  20.330  0.00  0.00    +0.000 A 
ATOM     19  C   UNL     1      -0.378  10.086  20.877  0.00  0.00    +0.000 A 
ENDBRANCH  10  18
ENDBRANCH   1  12
BRANCH   7  20
ATOM     20  C   UNL     1       6.308   5.068  19.409  0.00  0.00    +0.000 C 
BRANCH  20  21
ATOM     21  C   UNL     1       7.687   5.260  18.728  0.00  0.00    +0.000 C 
ATOM     22  C   UNL     1       7.865   4.470  17.421  0.00  0.00    +0.000 C 
ATOM     23  C   UNL     1       7.171   5.124  16.230  0.00  0.00    +0.000 C 
ATOM     24  O   UNL     1       7.589   6.479  16.078  0.00  0.00    +0.000 OA
ATOM     25  C   UNL     1       7.243   7.272  17.209  0.00  0.00    +0.000 C 
ATOM     26  C   UNL     1       7.948   6.758  18.460  0.00  0.00    +0.000 C 
ENDBRANCH  20  21
ENDBRANCH   7  20
TORSDOF 4
ENDMDL
MODEL 8
REMARK VINA RESULT:      -7.0      0.830      1.199
REMARK  Name = 
REMARK  5 active torsions:
REMARK  status: ('A' for Active; 'I' for Inactive)
REMARK    1  A    between atoms: C_1  and  N_2
REMARK    2  A    between atoms: C_5  and  C_6
REMARK    3  A    between atoms: N_8  and  C_9
REMARK    4  A    between atoms: N_15  and  C_16
REMARK    5  A    between atoms: C_16  and  C_17
REMARK                            x       y       z     vdW  Elec       q    Type
REMARK                         _______ _______ _______ _____ _____    ______ ____
ROOT
ATOM      1  C   UNL     1       2.017   4.487  21.102  0.00  0.00    +0.000 C 
ATOM      2  C   UNL     1       1.341   3.234  21.687  0.00  0.00    +0.000 C 
ATOM      3  C   UNL     1       1.054   2.751  20.249  0.00  0.00    +0.000 C 
ATOM      4  C   UNL     1       2.166   3.718  19.730  0.00  0.00    +0.000 C 
ATOM      5  C   UNL     1       1.790   4.534  18.488  0.00  0.00    +0.000 C 
ATOM      6  C   UNL     1       1.952   3.691  17.222  0.00  0.00    +0.000 C 
ATOM      7  N   UNL     1       3.333   3.208  17.023  0.00  0.00    +0.000 NA
ATOM      8  C   UNL     1       3.696   2.369  18.178  0.00  0.00    +0.000 C 
ATOM      9  C   UNL     1       3.545   3.041  19.554  0.00  0.00    +0.000 C 
ENDROOT
BRANCH   1  12
ATOM     10  C   UNL     1       1.668   6.977  20.601  0.00  0.00    +0.000 C 
ATOM     11  O   UNL     1       2.718   7.148  19.996  0.00  0.00    +0.000 OA
ATOM     12  N   UNL     1       1.227   5.753  21.058  0.00  0.00    +0.000 N 
ATOM     13  H   UNL     1       0.323   5.753  21.512  0.00  0.00    +0.000 HD
BRANCH  10  18
ATOM     14  C   UNL     1      -0.939  11.269  20.518  0.00  0.00    +0.000 C 
ATOM     15  N   UNL     1      -0.368  10.014  20.947  0.00  0.00    +0.000 N 
ATOM     16  C   UNL     1      -0.611   9.414  22.148  0.00  0.00    +0.000 A 
ATOM     17  C   UNL     1       0.160   8.277  22.209  0.00  0.00    +0.000 A 
ATOM     18  C   UNL     1       0.834   8.125  20.959  0.00  0.00    +0.000 A 
ATOM     19  C   UNL     1       0.490   9.238  20.206  0.00  0.00    +0.000 A 
ENDBRANCH  10  18
ENDBRANCH   1  12
BRANCH   7  20
ATOM     20  C   UNL     1       4.255   4.326  16.741  0.00  0.00    +0.000 C 
BRANCH  20  21
ATOM     21  C   UNL     1       5.634   4.300  17.450  0.00  0.00    +0.000 C 
ATOM     22  C   UNL     1       6.832   4.125  16.501  0.00  0.00    +0.000 C 
ATOM     23  C   UNL     1       7.212   5.413  15.778  0.00  0.00    +0.000 C 
ATOM     24  O   UNL     1       7.437   6.472  16.707  0.00  0.00    +0.000 OA
ATOM     25  C   UNL     1       6.264   6.781  17.454  0.00  0.00    +0.000 C 
ATOM     26  C   UNL     1       5.828   5.582  18.289  0.00  0.00    +0.000 C 
ENDBRANCH  20  21
ENDBRANCH   7  20
TORSDOF 4
ENDMDL
MODEL 9
REMARK VINA RESULT:      -6.9      1.718      2.096
REMARK  Name = 
REMARK  5 active torsions:
REMARK  status: ('A' for Active; 'I' for Inactive)
REMARK    1  A    between atoms: C_1  and  N_2
REMARK    2  A    between atoms: C_5  and  C_6
REMARK    3  A    between atoms: N_8  and  C_9
REMARK    4  A    between atoms: N_15  and  C_16
REMARK    5  A    between atoms: C_16  and  C_17
REMARK                            x       y       z     vdW  Elec       q    Type
REMARK                         _______ _______ _______ _____ _____    ______ ____
ROOT
ATOM      1  C   UNL     1       2.410   6.419  20.159  0.00  0.00    +0.000 C 
ATOM      2  C   UNL     1       1.836   5.619  21.342  0.00  0.00    +0.000 C 
ATOM      3  C   UNL     1       1.494   4.473  20.365  0.00  0.00    +0.000 C 
ATOM      4  C   UNL     1       2.522   5.067  19.349  0.00  0.00    +0.000 C 
ATOM      5  C   UNL     1       2.033   5.140  17.898  0.00  0.00    +0.000 C 
ATOM      6  C   UNL     1       2.168   3.778  17.216  0.00  0.00    +0.000 C 
ATOM      7  N   UNL     1       3.559   3.285  17.182  0.00  0.00    +0.000 NA
ATOM      8  C   UNL     1       4.031   3.147  18.571  0.00  0.00    +0.000 C 
ATOM      9  C   UNL     1       3.923   4.418  19.432  0.00  0.00    +0.000 C 
ENDROOT
BRANCH   1  12
ATOM     10  C   UNL     1       1.964   8.454  18.666  0.00  0.00    +0.000 C 
ATOM     11  O   UNL     1       3.060   8.474  18.122  0.00  0.00    +0.000 OA
ATOM     12  N   UNL     1       1.553   7.476  19.547  0.00  0.00    +0.000 N 
ATOM     13  H   UNL     1       0.607   7.568  19.895  0.00  0.00    +0.000 HD
BRANCH  10  18
ATOM     14  C   UNL     1      -2.054  11.234  17.499  0.00  0.00    +0.000 C 
ATOM     15  N   UNL     1      -0.759  10.825  17.992  0.00  0.00    +0.000 N 
ATOM     16  C   UNL     1       0.128  11.641  18.631  0.00  0.00    +0.000 A 
ATOM     17  C   UNL     1       1.262  10.906  18.884  0.00  0.00    +0.000 A 
ATOM     18  C   UNL     1       1.027   9.561  18.465  0.00  0.00    +0.000 A 
ATOM     19  C   UNL     1      -0.240   9.556  17.899  0.00  0.00    +0.000 A 
ENDBRANCH  10  18
ENDBRANCH   1  12
BRANCH   7  20
ATOM     20  C   UNL     1       4.404   4.125  16.310  0.00  0.00    +0.000 C 
BRANCH  20  21
ATOM     21  C   UNL     1       5.855   3.644  16.055  0.00  0.00    +0.000 C 
ATOM     22  C   UNL     1       6.311   3.749  14.590  0.00  0.00    +0.000 C 
ATOM     23  C   UNL     1       6.696   5.169  14.187  0.00  0.00    +0.000 C 
ATOM     24  O   UNL     1       7.677   5.703  15.074  0.00  0.00    +0.000 OA
ATOM     25  C   UNL     1       7.188   5.800  16.408  0.00  0.00    +0.000 C 
ATOM     26  C   UNL     1       6.842   4.420  16.955  0.00  0.00    +0.000 C 
ENDBRANCH  20  21
ENDBRANCH   7  20
TORSDOF 4
ENDMDL
