MODEL 1
REMARK VINA RESULT:      -7.1      0.000      0.000
REMARK  Name = 
REMARK  14 active torsions:
REMARK  status: ('A' for Active; 'I' for Inactive)
REMARK    1  A    between atoms: C_1  and  C_2
REMARK    2  A    between atoms: C_2  and  C_3
REMARK    3  A    between atoms: C_2  and  C_4
REMARK    4  A    between atoms: C_6  and  C_7
REMARK    5  A    between atoms: C_14  and  C_15
REMARK    6  A    between atoms: N_21  and  C_22
REMARK    7  A    between atoms: C_23  and  C_24
REMARK    8  A    between atoms: C_24  and  O_25
REMARK    9  A    between atoms: C_24  and  C_26
REMARK   10  A    between atoms: C_26  and  C_27
REMARK   11  A    between atoms: C_27  and  O_28
REMARK   12  A    between atoms: C_27  and  C_29
REMARK   13  A    between atoms: C_29  and  C_30
REMARK   14  A    between atoms: C_30  and  O_32
REMARK                            x       y       z     vdW  Elec       q    Type
REMARK                         _______ _______ _______ _____ _____    ______ ____
ROOT
ATOM      1  C   UNL     1       3.093   7.129  18.303  0.00  0.00    +0.000 A 
ATOM      2  C   UNL     1       2.771   8.372  17.809  0.00  0.00    +0.000 A 
ATOM      3  C   UNL     1       1.998   9.076  18.745  0.00  0.00    +0.000 A 
ATOM      4  C   UNL     1       1.841   8.240  19.865  0.00  0.00    +0.000 A 
ATOM      5  N   UNL     1       2.499   7.002  19.576  0.00  0.00    +0.000 N 
ENDROOT
BRANCH   3   6
ATOM      6  C   UNL     1       1.416  10.407  18.523  0.00  0.00    +0.000 A 
ATOM      7  C   UNL     1       0.015  10.550  18.526  0.00  0.00    +0.000 A 
ATOM      8  C   UNL     1      -0.582  11.806  18.401  0.00  0.00    +0.000 A 
ATOM      9  C   UNL     1       0.223  12.932  18.301  0.00  0.00    +0.000 A 
ATOM     10  F   UNL     1      -0.344  14.145  18.236  0.00  0.00    +0.000 F 
ATOM     11  C   UNL     1       1.605  12.818  18.268  0.00  0.00    +0.000 A 
ATOM     12  C   UNL     1       2.198  11.555  18.331  0.00  0.00    +0.000 A 
ENDBRANCH   3   6
BRANCH   4  13
ATOM     13  C   UNL     1       1.050   8.510  21.105  0.00  0.00    +0.000 A 
ATOM     14  C   UNL     1      -0.335   8.266  21.127  0.00  0.00    +0.000 A 
ATOM     15  C   UNL     1      -1.140   8.715  22.179  0.00  0.00    +0.000 A 
ATOM     16  C   UNL     1      -0.558   9.301  23.296  0.00  0.00    +0.000 A 
ATOM     17  C   UNL     1       0.822   9.466  23.344  0.00  0.00    +0.000 A 
ATOM     18  C   UNL     1       1.609   9.125  22.237  0.00  0.00    +0.000 A 
ENDBRANCH   4  13
BRANCH   1  20
ATOM     19  C   UNL     1       4.395   6.613  16.233  0.00  0.00    +0.000 C 
ATOM     20  C   UNL     1       3.931   6.084  17.594  0.00  0.00    +0.000 C 
ATOM     21  C   UNL     1       5.168   5.675  18.415  0.00  0.00    +0.000 C 
ENDBRANCH   1  20
BRANCH   5  22
ATOM     22  C   UNL     1       2.521   5.883  20.438  0.00  0.00    +0.000 C 
ATOM     23  C   UNL     1       1.807   4.745  20.435  0.00  0.00    +0.000 C 
BRANCH  23  24
ATOM     24  C   UNL     1       2.044   3.626  21.412  0.00  0.00    +0.000 C 
BRANCH  24  25
ATOM     25  O   UNL     1       0.942   2.725  21.329  0.00  0.00    +0.000 OA
ATOM     26  H   UNL     1       1.177   2.020  20.700  0.00  0.00    +0.000 HD
ENDBRANCH  24  25
BRANCH  24  27
ATOM     27  C   UNL     1       3.325   2.844  21.100  0.00  0.00    +0.000 C 
BRANCH  27  28
ATOM     28  C   UNL     1       3.714   2.864  19.616  0.00  0.00    +0.000 C 
BRANCH  28  29
ATOM     29  O   UNL     1       5.125   2.661  19.486  0.00  0.00    +0.000 OA
ATOM     30  H   UNL     1       5.467   2.302  20.324  0.00  0.00    +0.000 HD
ENDBRANCH  28  29
BRANCH  28  31
ATOM     31  C   UNL     1       3.001   1.776  18.810  0.00  0.00    +0.000 C 
BRANCH  31  32
ATOM     32  C   UNL     1       1.916   2.344  17.941  0.00  0.00    +0.000 C 
ATOM     33  O   UNL     1       2.106   3.075  16.972  0.00  0.00    +0.000 OA
BRANCH  32  34
ATOM     34  O   UNL     1       0.674   1.968  18.321  0.00  0.00    +0.000 OA
ATOM     35  H   UNL     1       0.115   1.634  17.595  0.00  0.00    +0.000 HD
ENDBRANCH  32  34
ENDBRANCH  31  32
ENDBRANCH  28  31
ENDBRANCH  27  28
ENDBRANCH  24  27
ENDBRANCH  23  24
ENDBRANCH   5  22
TORSDOF 12
ENDMDL
MODEL 2
REMARK VINA RESULT:      -6.9      4.534      7.814
REMARK  Name = 
REMARK  14 active torsions:
REMARK  status: ('A' for Active; 'I' for Inactive)
REMARK    1  A    between atoms: C_1  and  C_2
REMARK    2  A    between atoms: C_2  and  C_3
REMARK    3  A    between atoms: C_2  and  C_4
REMARK    4  A    between atoms: C_6  and  C_7
REMARK    5  A    between atoms: C_14  and  C_15
REMARK    6  A    between atoms: N_21  and  C_22
REMARK    7  A    between atoms: C_23  and  C_24
REMARK    8  A    between atoms: C_24  and  O_25
REMARK    9  A    between atoms: C_24  and  C_26
REMARK   10  A    between atoms: C_26  and  C_27
REMARK   11  A    between atoms: C_27  and  O_28
REMARK   12  A    between atoms: C_27  and  C_29
REMARK   13  A    between atoms: C_29  and  C_30
REMARK   14  A    between atoms: C_30  and  O_32
REMARK                            x       y       z     vdW  Elec       q    Type
REMARK                         _______ _______ _______ _____ _____    ______ ____
ROOT
ATOM      1  C   UNL     1       1.879   8.963  18.873  0.00  0.00    +0.000 A 
ATOM      2  C   UNL     1       2.629   8.310  17.923  0.00  0.00    +0.000 A 
ATOM      3  C   UNL     1       2.724   6.945  18.239  0.00  0.00    +0.000 A 
ATOM      4  C   UNL     1       1.997   6.744  19.425  0.00  0.00    +0.000 A 
ATOM      5  N   UNL     1       1.493   8.017  19.845  0.00  0.00    +0.000 N 
ENDROOT
BRANCH   3   6
ATOM      6  C   UNL     1       3.511   5.961  17.483  0.00  0.00    +0.000 A 
ATOM      7  C   UNL     1       4.651   6.393  16.778  0.00  0.00    +0.000 A 
ATOM      8  C   UNL     1       5.476   5.482  16.116  0.00  0.00    +0.000 A 
ATOM      9  C   UNL     1       5.180   4.129  16.177  0.00  0.00    +0.000 A 
ATOM     10  F   UNL     1       5.999   3.246  15.589  0.00  0.00    +0.000 F 
ATOM     11  C   UNL     1       4.049   3.678  16.842  0.00  0.00    +0.000 A 
ATOM     12  C   UNL     1       3.191   4.596  17.453  0.00  0.00    +0.000 A 
ENDBRANCH   3   6
BRANCH   4  13
ATOM     13  C   UNL     1       1.842   5.475  20.200  0.00  0.00    +0.000 A 
ATOM     14  C   UNL     1       2.809   5.107  21.154  0.00  0.00    +0.000 A 
ATOM     15  C   UNL     1       2.820   3.831  21.728  0.00  0.00    +0.000 A 
ATOM     16  C   UNL     1       1.788   2.941  21.461  0.00  0.00    +0.000 A 
ATOM     17  C   UNL     1       0.766   3.316  20.596  0.00  0.00    +0.000 A 
ATOM     18  C   UNL     1       0.823   4.547  19.931  0.00  0.00    +0.000 A 
ENDBRANCH   4  13
BRANCH   1  20
ATOM     19  C   UNL     1       2.512  11.205  17.970  0.00  0.00    +0.000 C 
ATOM     20  C   UNL     1       1.538  10.440  18.871  0.00  0.00    +0.000 C 
ATOM     21  C   UNL     1       0.101  10.705  18.386  0.00  0.00    +0.000 C 
ENDBRANCH   1  20
BRANCH   5  22
ATOM     22  C   UNL     1       0.753   8.238  21.028  0.00  0.00    +0.000 C 
ATOM     23  C   UNL     1       0.632   9.323  21.810  0.00  0.00    +0.000 C 
BRANCH  23  24
ATOM     24  C   UNL     1      -0.286   9.377  23.001  0.00  0.00    +0.000 C 
BRANCH  24  25
ATOM     25  O   UNL     1       0.517   9.461  24.176  0.00  0.00    +0.000 OA
ATOM     26  H   UNL     1       0.183  10.197  24.717  0.00  0.00    +0.000 HD
ENDBRANCH  24  25
BRANCH  24  27
ATOM     27  C   UNL     1      -1.212  10.599  22.966  0.00  0.00    +0.000 C 
BRANCH  27  28
ATOM     28  C   UNL     1      -0.758  11.689  21.986  0.00  0.00    +0.000 C 
BRANCH  28  29
ATOM     29  O   UNL     1      -1.738  11.844  20.955  0.00  0.00    +0.000 OA
ATOM     30  H   UNL     1      -2.378  11.113  21.018  0.00  0.00    +0.000 HD
ENDBRANCH  28  29
BRANCH  28  31
ATOM     31  C   UNL     1      -0.566  13.045  22.668  0.00  0.00    +0.000 C 
BRANCH  31  32
ATOM     32  C   UNL     1       0.201  14.002  21.802  0.00  0.00    +0.000 C 
ATOM     33  O   UNL     1       0.232  13.964  20.574  0.00  0.00    +0.000 OA
BRANCH  32  34
ATOM     34  O   UNL     1       0.870  14.943  22.506  0.00  0.00    +0.000 OA
ATOM     35  H   UNL     1       0.656  15.861  22.256  0.00  0.00    +0.000 HD
ENDBRANCH  32  34
ENDBRANCH  31  32
ENDBRANCH  28  31
ENDBRANCH  27  28
ENDBRANCH  24  27
ENDBRANCH  23  24
ENDBRANCH   5  22
TORSDOF 12
ENDMDL
MODEL 3
REMARK VINA RESULT:      -6.9      4.579      7.833
REMARK  Name = 
REMARK  14 active torsions:
REMARK  status: ('A' for Active; 'I' for Inactive)
REMARK    1  A    between atoms: C_1  and  C_2
REMARK    2  A    between atoms: C_2  and  C_3
REMARK    3  A    between atoms: C_2  and  C_4
REMARK    4  A    between atoms: C_6  and  C_7
REMARK    5  A    between atoms: C_14  and  C_15
REMARK    6  A    between atoms: N_21  and  C_22
REMARK    7  A    between atoms: C_23  and  C_24
REMARK    8  A    between atoms: C_24  and  O_25
REMARK    9  A    between atoms: C_24  and  C_26
REMARK   10  A    between atoms: C_26  and  C_27
REMARK   11  A    between atoms: C_27  and  O_28
REMARK   12  A    between atoms: C_27  and  C_29
REMARK   13  A    between atoms: C_29  and  C_30
REMARK   14  A    between atoms: C_30  and  O_32
REMARK                            x       y       z     vdW  Elec       q    Type
REMARK                         _______ _______ _______ _____ _____    ______ ____
ROOT
ATOM      1  C   UNL     1       2.078   8.915  18.675  0.00  0.00    +0.000 A 
ATOM      2  C   UNL     1       2.875   8.310  17.731  0.00  0.00    +0.000 A 
ATOM      3  C   UNL     1       2.982   6.936  18.000  0.00  0.00    +0.000 A 
ATOM      4  C   UNL     1       2.215   6.680  19.149  0.00  0.00    +0.000 A 
ATOM      5  N   UNL     1       1.674   7.927  19.597  0.00  0.00    +0.000 N 
ENDROOT
BRANCH   3   6
ATOM      6  C   UNL     1       3.814   5.994  17.239  0.00  0.00    +0.000 A 
ATOM      7  C   UNL     1       4.826   6.499  16.400  0.00  0.00    +0.000 A 
ATOM      8  C   UNL     1       5.695   5.641  15.723  0.00  0.00    +0.000 A 
ATOM      9  C   UNL     1       5.573   4.271  15.903  0.00  0.00    +0.000 A 
ATOM     10  F   UNL     1       6.439   3.446  15.299  0.00  0.00    +0.000 F 
ATOM     11  C   UNL     1       4.569   3.746  16.702  0.00  0.00    +0.000 A 
ATOM     12  C   UNL     1       3.662   4.603  17.331  0.00  0.00    +0.000 A 
ENDBRANCH   3   6
BRANCH   4  13
ATOM     13  C   UNL     1       2.055   5.379  19.872  0.00  0.00    +0.000 A 
ATOM     14  C   UNL     1       1.132   4.423  19.409  0.00  0.00    +0.000 A 
ATOM     15  C   UNL     1       0.791   3.306  20.178  0.00  0.00    +0.000 A 
ATOM     16  C   UNL     1       1.463   3.050  21.367  0.00  0.00    +0.000 A 
ATOM     17  C   UNL     1       2.450   3.929  21.799  0.00  0.00    +0.000 A 
ATOM     18  C   UNL     1       2.702   5.108  21.088  0.00  0.00    +0.000 A 
ENDBRANCH   4  13
BRANCH   1  20
ATOM     19  C   UNL     1       2.552  11.166  17.700  0.00  0.00    +0.000 C 
ATOM     20  C   UNL     1       1.712  10.385  18.714  0.00  0.00    +0.000 C 
ATOM     21  C   UNL     1       0.221  10.621  18.409  0.00  0.00    +0.000 C 
ENDBRANCH   1  20
BRANCH   5  22
ATOM     22  C   UNL     1       0.886   8.092  20.758  0.00  0.00    +0.000 C 
ATOM     23  C   UNL     1       1.056   8.863  21.844  0.00  0.00    +0.000 C 
BRANCH  23  24
ATOM     24  C   UNL     1       0.042   8.953  22.953  0.00  0.00    +0.000 C 
BRANCH  24  25
ATOM     25  O   UNL     1       0.695   9.471  24.109  0.00  0.00    +0.000 OA
ATOM     26  H   UNL     1       0.037   9.532  24.823  0.00  0.00    +0.000 HD
ENDBRANCH  24  25
BRANCH  24  27
ATOM     27  C   UNL     1      -1.121   9.889  22.601  0.00  0.00    +0.000 C 
BRANCH  27  28
ATOM     28  C   UNL     1      -0.905  11.339  23.053  0.00  0.00    +0.000 C 
BRANCH  28  29
ATOM     29  O   UNL     1       0.013  11.987  22.167  0.00  0.00    +0.000 OA
ATOM     30  H   UNL     1       0.733  11.367  21.955  0.00  0.00    +0.000 HD
ENDBRANCH  28  29
BRANCH  28  31
ATOM     31  C   UNL     1      -2.204  12.147  23.066  0.00  0.00    +0.000 C 
BRANCH  31  32
ATOM     32  C   UNL     1      -1.946  13.617  23.232  0.00  0.00    +0.000 C 
ATOM     33  O   UNL     1      -1.024  14.095  23.888  0.00  0.00    +0.000 OA
BRANCH  32  34
ATOM     34  O   UNL     1      -2.836  14.395  22.574  0.00  0.00    +0.000 OA
ATOM     35  H   UNL     1      -3.730  14.402  22.965  0.00  0.00    +0.000 HD
ENDBRANCH  32  34
ENDBRANCH  31  32
ENDBRANCH  28  31
ENDBRANCH  27  28
ENDBRANCH  24  27
ENDBRANCH  23  24
ENDBRANCH   5  22
TORSDOF 12
ENDMDL
MODEL 4
REMARK VINA RESULT:      -6.8      4.374      7.591
REMARK  Name = 
REMARK  14 active torsions:
REMARK  status: ('A' for Active; 'I' for Inactive)
REMARK    1  A    between atoms: C_1  and  C_2
REMARK    2  A    between atoms: C_2  and  C_3
REMARK    3  A    between atoms: C_2  and  C_4
REMARK    4  A    between atoms: C_6  and  C_7
REMARK    5  A    between atoms: C_14  and  C_15
REMARK    6  A    between atoms: N_21  and  C_22
REMARK    7  A    between atoms: C_23  and  C_24
REMARK    8  A    between atoms: C_24  and  O_25
REMARK    9  A    between atoms: C_24  and  C_26
REMARK   10  A    between atoms: C_26  and  C_27
REMARK   11  A    between atoms: C_27  and  O_28
REMARK   12  A    between atoms: C_27  and  C_29
REMARK   13  A    between atoms: C_29  and  C_30
REMARK   14  A    between atoms: C_30  and  O_32
REMARK                            x       y       z     vdW  Elec       q    Type
REMARK                         _______ _______ _______ _____ _____    ______ ____
ROOT
ATOM      1  C   UNL     1       1.796   9.102  18.895  0.00  0.00    +0.000 A 
ATOM      2  C   UNL     1       2.624   8.480  17.989  0.00  0.00    +0.000 A 
ATOM      3  C   UNL     1       2.747   7.118  18.306  0.00  0.00    +0.000 A 
ATOM      4  C   UNL     1       1.958   6.886  19.446  0.00  0.00    +0.000 A 
ATOM      5  N   UNL     1       1.387   8.138  19.840  0.00  0.00    +0.000 N 
ENDROOT
BRANCH   3   6
ATOM      6  C   UNL     1       3.611   6.165  17.596  0.00  0.00    +0.000 A 
ATOM      7  C   UNL     1       3.259   4.802  17.582  0.00  0.00    +0.000 A 
ATOM      8  C   UNL     1       4.004   3.873  16.851  0.00  0.00    +0.000 A 
ATOM      9  C   UNL     1       5.090   4.309  16.107  0.00  0.00    +0.000 A 
ATOM     10  F   UNL     1       5.774   3.431  15.361  0.00  0.00    +0.000 F 
ATOM     11  C   UNL     1       5.475   5.642  16.124  0.00  0.00    +0.000 A 
ATOM     12  C   UNL     1       4.766   6.559  16.904  0.00  0.00    +0.000 A 
ENDBRANCH   3   6
BRANCH   4  13
ATOM     13  C   UNL     1       1.803   5.608  20.208  0.00  0.00    +0.000 A 
ATOM     14  C   UNL     1       2.746   5.250  21.188  0.00  0.00    +0.000 A 
ATOM     15  C   UNL     1       2.762   3.970  21.753  0.00  0.00    +0.000 A 
ATOM     16  C   UNL     1       1.755   3.064  21.448  0.00  0.00    +0.000 A 
ATOM     17  C   UNL     1       0.753   3.428  20.555  0.00  0.00    +0.000 A 
ATOM     18  C   UNL     1       0.809   4.665  19.901  0.00  0.00    +0.000 A 
ENDBRANCH   4  13
BRANCH   1  20
ATOM     19  C   UNL     1       2.370  11.360  17.991  0.00  0.00    +0.000 C 
ATOM     20  C   UNL     1       1.405  10.566  18.877  0.00  0.00    +0.000 C 
ATOM     21  C   UNL     1      -0.030  10.779  18.361  0.00  0.00    +0.000 C 
ENDBRANCH   1  20
BRANCH   5  22
ATOM     22  C   UNL     1       0.570   8.328  20.977  0.00  0.00    +0.000 C 
ATOM     23  C   UNL     1       0.547   9.303  21.901  0.00  0.00    +0.000 C 
BRANCH  23  24
ATOM     24  C   UNL     1      -0.472   9.360  23.007  0.00  0.00    +0.000 C 
BRANCH  24  25
ATOM     25  O   UNL     1       0.216   9.236  24.249  0.00  0.00    +0.000 OA
ATOM     26  H   UNL     1       0.803  10.006  24.347  0.00  0.00    +0.000 HD
ENDBRANCH  24  25
BRANCH  24  27
ATOM     27  C   UNL     1      -1.243  10.684  23.018  0.00  0.00    +0.000 C 
BRANCH  27  28
ATOM     28  C   UNL     1      -0.922  11.595  21.826  0.00  0.00    +0.000 C 
BRANCH  28  29
ATOM     29  O   UNL     1      -2.132  11.924  21.134  0.00  0.00    +0.000 OA
ATOM     30  H   UNL     1      -2.156  11.432  20.295  0.00  0.00    +0.000 HD
ENDBRANCH  28  29
BRANCH  28  31
ATOM     31  C   UNL     1      -0.248  12.900  22.252  0.00  0.00    +0.000 C 
BRANCH  31  32
ATOM     32  C   UNL     1       0.658  13.438  21.182  0.00  0.00    +0.000 C 
ATOM     33  O   UNL     1       1.885  13.424  21.233  0.00  0.00    +0.000 OA
BRANCH  32  34
ATOM     34  O   UNL     1      -0.008  13.947  20.121  0.00  0.00    +0.000 OA
ATOM     35  H   UNL     1       0.019  14.920  20.059  0.00  0.00    +0.000 HD
ENDBRANCH  32  34
ENDBRANCH  31  32
ENDBRANCH  28  31
ENDBRANCH  27  28
ENDBRANCH  24  27
ENDBRANCH  23  24
ENDBRANCH   5  22
TORSDOF 12
ENDMDL
MODEL 5
REMARK VINA RESULT:      -6.7      4.516      7.782
REMARK  Name = 
REMARK  14 active torsions:
REMARK  status: ('A' for Active; 'I' for Inactive)
REMARK    1  A    between atoms: C_1  and  C_2
REMARK    2  A    between atoms: C_2  and  C_3
REMARK    3  A    between atoms: C_2  and  C_4
REMARK    4  A    between atoms: C_6  and  C_7
REMARK    5  A    between atoms: C_14  and  C_15
REMARK    6  A    between atoms: N_21  and  C_22
REMARK    7  A    between atoms: C_23  and  C_24
REMARK    8  A    between atoms: C_24  and  O_25
REMARK    9  A    between atoms: C_24  and  C_26
REMARK   10  A    between atoms: C_26  and  C_27
REMARK   11  A    between atoms: C_27  and  O_28
REMARK   12  A    between atoms: C_27  and  C_29
REMARK   13  A    between atoms: C_29  and  C_30
REMARK   14  A    between atoms: C_30  and  O_32
REMARK                            x       y       z     vdW  Elec       q    Type
REMARK                         _______ _______ _______ _____ _____    ______ ____
ROOT
ATOM      1  C   UNL     1       1.949   9.028  18.765  0.00  0.00    +0.000 A 
ATOM      2  C   UNL     1       2.726   8.438  17.795  0.00  0.00    +0.000 A 
ATOM      3  C   UNL     1       2.938   7.085  18.105  0.00  0.00    +0.000 A 
ATOM      4  C   UNL     1       2.259   6.825  19.307  0.00  0.00    +0.000 A 
ATOM      5  N   UNL     1       1.665   8.052  19.744  0.00  0.00    +0.000 N 
ENDROOT
BRANCH   3   6
ATOM      6  C   UNL     1       3.783   6.169  17.327  0.00  0.00    +0.000 A 
ATOM      7  C   UNL     1       3.497   4.790  17.349  0.00  0.00    +0.000 A 
ATOM      8  C   UNL     1       4.220   3.891  16.561  0.00  0.00    +0.000 A 
ATOM      9  C   UNL     1       5.217   4.372  15.725  0.00  0.00    +0.000 A 
ATOM     10  F   UNL     1       5.876   3.521  14.927  0.00  0.00    +0.000 F 
ATOM     11  C   UNL     1       5.538   5.722  15.703  0.00  0.00    +0.000 A 
ATOM     12  C   UNL     1       4.855   6.610  16.537  0.00  0.00    +0.000 A 
ENDBRANCH   3   6
BRANCH   4  13
ATOM     13  C   UNL     1       2.227   5.546  20.083  0.00  0.00    +0.000 A 
ATOM     14  C   UNL     1       3.427   4.942  20.499  0.00  0.00    +0.000 A 
ATOM     15  C   UNL     1       3.449   3.644  21.020  0.00  0.00    +0.000 A 
ATOM     16  C   UNL     1       2.257   2.972  21.259  0.00  0.00    +0.000 A 
ATOM     17  C   UNL     1       1.049   3.586  20.947  0.00  0.00    +0.000 A 
ATOM     18  C   UNL     1       1.038   4.835  20.314  0.00  0.00    +0.000 A 
ENDBRANCH   4  13
BRANCH   1  20
ATOM     19  C   UNL     1       2.420  11.328  17.910  0.00  0.00    +0.000 C 
ATOM     20  C   UNL     1       1.491  10.472  18.776  0.00  0.00    +0.000 C 
ATOM     21  C   UNL     1       0.048  10.629  18.260  0.00  0.00    +0.000 C 
ENDBRANCH   1  20
BRANCH   5  22
ATOM     22  C   UNL     1       0.939   8.212  20.945  0.00  0.00    +0.000 C 
ATOM     23  C   UNL     1       0.829   9.255  21.785  0.00  0.00    +0.000 C 
BRANCH  23  24
ATOM     24  C   UNL     1      -0.075   9.247  22.988  0.00  0.00    +0.000 C 
BRANCH  24  25
ATOM     25  O   UNL     1       0.732   9.420  24.149  0.00  0.00    +0.000 OA
ATOM     26  H   UNL     1       1.243  10.241  24.041  0.00  0.00    +0.000 HD
ENDBRANCH  24  25
BRANCH  24  27
ATOM     27  C   UNL     1      -1.105  10.381  22.947  0.00  0.00    +0.000 C 
BRANCH  27  28
ATOM     28  C   UNL     1      -0.714  11.538  22.018  0.00  0.00    +0.000 C 
BRANCH  28  29
ATOM     29  O   UNL     1      -1.629  11.601  20.919  0.00  0.00    +0.000 OA
ATOM     30  H   UNL     1      -1.280  12.224  20.257  0.00  0.00    +0.000 HD
ENDBRANCH  28  29
BRANCH  28  31
ATOM     31  C   UNL     1      -0.731  12.891  22.730  0.00  0.00    +0.000 C 
BRANCH  31  32
ATOM     32  C   UNL     1      -1.864  13.757  22.257  0.00  0.00    +0.000 C 
ATOM     33  O   UNL     1      -1.763  14.637  21.405  0.00  0.00    +0.000 OA
BRANCH  32  34
ATOM     34  O   UNL     1      -3.041  13.476  22.860  0.00  0.00    +0.000 OA
ATOM     35  H   UNL     1      -3.423  12.613  22.615  0.00  0.00    +0.000 HD
ENDBRANCH  32  34
ENDBRANCH  31  32
ENDBRANCH  28  31
ENDBRANCH  27  28
ENDBRANCH  24  27
ENDBRANCH  23  24
ENDBRANCH   5  22
TORSDOF 12
ENDMDL
MODEL 6
REMARK VINA RESULT:      -6.6      0.247      1.048
REMARK  Name = 
REMARK  14 active torsions:
REMARK  status: ('A' for Active; 'I' for Inactive)
REMARK    1  A    between atoms: C_1  and  C_2
REMARK    2  A    between atoms: C_2  and  C_3
REMARK    3  A    between atoms: C_2  and  C_4
REMARK    4  A    between atoms: C_6  and  C_7
REMARK    5  A    between atoms: C_14  and  C_15
REMARK    6  A    between atoms: N_21  and  C_22
REMARK    7  A    between atoms: C_23  and  C_24
REMARK    8  A    between atoms: C_24  and  O_25
REMARK    9  A    between atoms: C_24  and  C_26
REMARK   10  A    between atoms: C_26  and  C_27
REMARK   11  A    between atoms: C_27  and  O_28
REMARK   12  A    between atoms: C_27  and  C_29
REMARK   13  A    between atoms: C_29  and  C_30
REMARK   14  A    between atoms: C_30  and  O_32
REMARK                            x       y       z     vdW  Elec       q    Type
REMARK                         _______ _______ _______ _____ _____    ______ ____
ROOT
ATOM      1  C   UNL     1       3.000   7.292  18.311  0.00  0.00    +0.000 A 
ATOM      2  C   UNL     1       2.748   8.545  17.804  0.00  0.00    +0.000 A 
ATOM      3  C   UNL     1       1.998   9.295  18.725  0.00  0.00    +0.000 A 
ATOM      4  C   UNL     1       1.786   8.478  19.848  0.00  0.00    +0.000 A 
ATOM      5  N   UNL     1       2.384   7.206  19.578  0.00  0.00    +0.000 N 
ENDROOT
BRANCH   3   6
ATOM      6  C   UNL     1       1.487  10.652  18.484  0.00  0.00    +0.000 A 
ATOM      7  C   UNL     1       0.099  10.883  18.556  0.00  0.00    +0.000 A 
ATOM      8  C   UNL     1      -0.425  12.169  18.418  0.00  0.00    +0.000 A 
ATOM      9  C   UNL     1       0.440  13.238  18.233  0.00  0.00    +0.000 A 
ATOM     10  F   UNL     1      -0.055  14.481  18.154  0.00  0.00    +0.000 F 
ATOM     11  C   UNL     1       1.808  13.036  18.131  0.00  0.00    +0.000 A 
ATOM     12  C   UNL     1       2.326  11.741  18.209  0.00  0.00    +0.000 A 
ENDBRANCH   3   6
BRANCH   4  13
ATOM     13  C   UNL     1       0.993   8.796  21.076  0.00  0.00    +0.000 A 
ATOM     14  C   UNL     1       1.633   9.315  22.216  0.00  0.00    +0.000 A 
ATOM     15  C   UNL     1       0.973   9.409  23.445  0.00  0.00    +0.000 A 
ATOM     16  C   UNL     1      -0.381   9.111  23.531  0.00  0.00    +0.000 A 
ATOM     17  C   UNL     1      -1.063   8.688  22.395  0.00  0.00    +0.000 A 
ATOM     18  C   UNL     1      -0.370   8.480  21.195  0.00  0.00    +0.000 A 
ENDBRANCH   4  13
BRANCH   1  20
ATOM     19  C   UNL     1       4.300   6.694  16.263  0.00  0.00    +0.000 C 
ATOM     20  C   UNL     1       3.794   6.201  17.622  0.00  0.00    +0.000 C 
ATOM     21  C   UNL     1       4.998   5.738  18.461  0.00  0.00    +0.000 C 
ENDBRANCH   1  20
BRANCH   5  22
ATOM     22  C   UNL     1       2.338   6.094  20.448  0.00  0.00    +0.000 C 
ATOM     23  C   UNL     1       1.957   4.822  20.245  0.00  0.00    +0.000 C 
BRANCH  23  24
ATOM     24  C   UNL     1       2.062   3.756  21.301  0.00  0.00    +0.000 C 
BRANCH  24  25
ATOM     25  O   UNL     1       0.842   3.018  21.308  0.00  0.00    +0.000 OA
ATOM     26  H   UNL     1       0.119   3.630  21.089  0.00  0.00    +0.000 HD
ENDBRANCH  24  25
BRANCH  24  27
ATOM     27  C   UNL     1       3.210   2.778  21.028  0.00  0.00    +0.000 C 
BRANCH  27  28
ATOM     28  C   UNL     1       3.730   2.825  19.585  0.00  0.00    +0.000 C 
BRANCH  28  29
ATOM     29  O   UNL     1       5.138   2.569  19.573  0.00  0.00    +0.000 OA
ATOM     30  H   UNL     1       5.569   3.218  18.989  0.00  0.00    +0.000 HD
ENDBRANCH  28  29
BRANCH  28  31
ATOM     31  C   UNL     1       3.052   1.790  18.686  0.00  0.00    +0.000 C 
BRANCH  31  32
ATOM     32  C   UNL     1       1.847   2.356  17.991  0.00  0.00    +0.000 C 
ATOM     33  O   UNL     1       0.684   2.164  18.340  0.00  0.00    +0.000 OA
BRANCH  32  34
ATOM     34  O   UNL     1       2.155   3.123  16.922  0.00  0.00    +0.000 OA
ATOM     35  H   UNL     1       2.815   3.819  17.103  0.00  0.00    +0.000 HD
ENDBRANCH  32  34
ENDBRANCH  31  32
ENDBRANCH  28  31
ENDBRANCH  27  28
ENDBRANCH  24  27
ENDBRANCH  23  24
ENDBRANCH   5  22
TORSDOF 12
ENDMDL
MODEL 7
REMARK VINA RESULT:      -6.5      4.430      7.745
REMARK  Name = 
REMARK  14 active torsions:
REMARK  status: ('A' for Active; 'I' for Inactive)
REMARK    1  A    between atoms: C_1  and  C_2
REMARK    2  A    between atoms: C_2  and  C_3
REMARK    3  A    between atoms: C_2  and  C_4
REMARK    4  A    between atoms: C_6  and  C_7
REMARK    5  A    between atoms: C_14  and  C_15
REMARK    6  A    between atoms: N_21  and  C_22
REMARK    7  A    between atoms: C_23  and  C_24
REMARK    8  A    between atoms: C_24  and  O_25
REMARK    9  A    between atoms: C_24  and  C_26
REMARK   10  A    between atoms: C_26  and  C_27
REMARK   11  A    between atoms: C_27  and  O_28
REMARK   12  A    between atoms: C_27  and  C_29
REMARK   13  A    between atoms: C_29  and  C_30
REMARK   14  A    between atoms: C_30  and  O_32
REMARK                            x       y       z     vdW  Elec       q    Type
REMARK                         _______ _______ _______ _____ _____    ______ ____
ROOT
ATOM      1  C   UNL     1       1.872   9.121  18.789  0.00  0.00    +0.000 A 
ATOM      2  C   UNL     1       2.650   8.454  17.872  0.00  0.00    +0.000 A 
ATOM      3  C   UNL     1       2.725   7.092  18.205  0.00  0.00    +0.000 A 
ATOM      4  C   UNL     1       1.956   6.907  19.367  0.00  0.00    +0.000 A 
ATOM      5  N   UNL     1       1.447   8.187  19.757  0.00  0.00    +0.000 N 
ENDROOT
BRANCH   3   6
ATOM      6  C   UNL     1       3.531   6.095  17.487  0.00  0.00    +0.000 A 
ATOM      7  C   UNL     1       4.652   6.525  16.750  0.00  0.00    +0.000 A 
ATOM      8  C   UNL     1       5.495   5.607  16.120  0.00  0.00    +0.000 A 
ATOM      9  C   UNL     1       5.237   4.250  16.248  0.00  0.00    +0.000 A 
ATOM     10  F   UNL     1       6.074   3.363  15.692  0.00  0.00    +0.000 F 
ATOM     11  C   UNL     1       4.125   3.800  16.945  0.00  0.00    +0.000 A 
ATOM     12  C   UNL     1       3.248   4.722  17.522  0.00  0.00    +0.000 A 
ENDBRANCH   3   6
BRANCH   4  13
ATOM     13  C   UNL     1       1.767   5.646  20.149  0.00  0.00    +0.000 A 
ATOM     14  C   UNL     1       2.670   5.309  21.174  0.00  0.00    +0.000 A 
ATOM     15  C   UNL     1       2.661   4.042  21.767  0.00  0.00    +0.000 A 
ATOM     16  C   UNL     1       1.664   3.131  21.443  0.00  0.00    +0.000 A 
ATOM     17  C   UNL     1       0.699   3.476  20.503  0.00  0.00    +0.000 A 
ATOM     18  C   UNL     1       0.784   4.698  19.824  0.00  0.00    +0.000 A 
ENDBRANCH   4  13
BRANCH   1  20
ATOM     19  C   UNL     1       2.469  11.330  17.785  0.00  0.00    +0.000 C 
ATOM     20  C   UNL     1       1.540  10.600  18.760  0.00  0.00    +0.000 C 
ATOM     21  C   UNL     1       0.081  10.861  18.345  0.00  0.00    +0.000 C 
ENDBRANCH   1  20
BRANCH   5  22
ATOM     22  C   UNL     1       0.667   8.425  20.911  0.00  0.00    +0.000 C 
ATOM     23  C   UNL     1       0.577   9.496  21.716  0.00  0.00    +0.000 C 
BRANCH  23  24
ATOM     24  C   UNL     1      -0.390   9.578  22.867  0.00  0.00    +0.000 C 
BRANCH  24  25
ATOM     25  O   UNL     1       0.265   9.082  24.031  0.00  0.00    +0.000 OA
ATOM     26  H   UNL     1       0.365   9.819  24.658  0.00  0.00    +0.000 HD
ENDBRANCH  24  25
BRANCH  24  27
ATOM     27  C   UNL     1      -0.839  11.016  23.147  0.00  0.00    +0.000 C 
BRANCH  27  28
ATOM     28  C   UNL     1      -2.125  11.416  22.411  0.00  0.00    +0.000 C 
BRANCH  28  29
ATOM     29  O   UNL     1      -3.116  11.818  23.362  0.00  0.00    +0.000 OA
ATOM     30  H   UNL     1      -2.710  12.436  23.995  0.00  0.00    +0.000 HD
ENDBRANCH  28  29
BRANCH  28  31
ATOM     31  C   UNL     1      -1.904  12.573  21.436  0.00  0.00    +0.000 C 
BRANCH  31  32
ATOM     32  C   UNL     1      -3.057  12.732  20.486  0.00  0.00    +0.000 C 
ATOM     33  O   UNL     1      -4.238  12.779  20.822  0.00  0.00    +0.000 OA
BRANCH  32  34
ATOM     34  O   UNL     1      -2.676  12.827  19.192  0.00  0.00    +0.000 OA
ATOM     35  H   UNL     1      -2.128  13.608  18.991  0.00  0.00    +0.000 HD
ENDBRANCH  32  34
ENDBRANCH  31  32
ENDBRANCH  28  31
ENDBRANCH  27  28
ENDBRANCH  24  27
ENDBRANCH  23  24
ENDBRANCH   5  22
TORSDOF 12
ENDMDL
MODEL 8
REMARK VINA RESULT:      -6.3      4.485      7.776
REMARK  Name = 
REMARK  14 active torsions:
REMARK  status: ('A' for Active; 'I' for Inactive)
REMARK    1  A    between atoms: C_1  and  C_2
REMARK    2  A    between atoms: C_2  and  C_3
REMARK    3  A    between atoms: C_2  and  C_4
REMARK    4  A    between atoms: C_6  and  C_7
REMARK    5  A    between atoms: C_14  and  C_15
REMARK    6  A    between atoms: N_21  and  C_22
REMARK    7  A    between atoms: C_23  and  C_24
REMARK    8  A    between atoms: C_24  and  O_25
REMARK    9  A    between atoms: C_24  and  C_26
REMARK   10  A    between atoms: C_26  and  C_27
REMARK   11  A    between atoms: C_27  and  O_28
REMARK   12  A    between atoms: C_27  and  C_29
REMARK   13  A    between atoms: C_29  and  C_30
REMARK   14  A    between atoms: C_30  and  O_32
REMARK                            x       y       z     vdW  Elec       q    Type
REMARK                         _______ _______ _______ _____ _____    ______ ____
ROOT
ATOM      1  C   UNL     1       1.942   8.970  18.454  0.00  0.00    +0.000 A 
ATOM      2  C   UNL     1       2.797   8.385  17.549  0.00  0.00    +0.000 A 
ATOM      3  C   UNL     1       3.080   7.065  17.938  0.00  0.00    +0.000 A 
ATOM      4  C   UNL     1       2.366   6.822  19.124  0.00  0.00    +0.000 A 
ATOM      5  N   UNL     1       1.676   8.028  19.470  0.00  0.00    +0.000 N 
ENDROOT
BRANCH   3   6
ATOM      6  C   UNL     1       4.015   6.168  17.246  0.00  0.00    +0.000 A 
ATOM      7  C   UNL     1       5.288   6.653  16.885  0.00  0.00    +0.000 A 
ATOM      8  C   UNL     1       6.239   5.814  16.301  0.00  0.00    +0.000 A 
ATOM      9  C   UNL     1       5.932   4.477  16.099  0.00  0.00    +0.000 A 
ATOM     10  F   UNL     1       6.860   3.655  15.590  0.00  0.00    +0.000 F 
ATOM     11  C   UNL     1       4.677   3.979  16.420  0.00  0.00    +0.000 A 
ATOM     12  C   UNL     1       3.706   4.833  16.948  0.00  0.00    +0.000 A 
ENDBRANCH   3   6
BRANCH   4  13
ATOM     13  C   UNL     1       2.380   5.584  19.963  0.00  0.00    +0.000 A 
ATOM     14  C   UNL     1       3.591   4.914  20.214  0.00  0.00    +0.000 A 
ATOM     15  C   UNL     1       3.614   3.641  20.795  0.00  0.00    +0.000 A 
ATOM     16  C   UNL     1       2.437   3.068  21.260  0.00  0.00    +0.000 A 
ATOM     17  C   UNL     1       1.237   3.753  21.112  0.00  0.00    +0.000 A 
ATOM     18  C   UNL     1       1.202   4.971  20.422  0.00  0.00    +0.000 A 
ENDBRANCH   4  13
BRANCH   1  20
ATOM     19  C   UNL     1      -0.137  10.356  18.436  0.00  0.00    +0.000 C 
ATOM     20  C   UNL     1       1.393  10.380  18.369  0.00  0.00    +0.000 C 
ATOM     21  C   UNL     1       1.924  11.280  19.500  0.00  0.00    +0.000 C 
ENDBRANCH   1  20
BRANCH   5  22
ATOM     22  C   UNL     1       0.888   8.199  20.630  0.00  0.00    +0.000 C 
ATOM     23  C   UNL     1       1.144   8.818  21.794  0.00  0.00    +0.000 C 
BRANCH  23  24
ATOM     24  C   UNL     1       0.123   8.958  22.890  0.00  0.00    +0.000 C 
BRANCH  24  25
ATOM     25  O   UNL     1       0.757   9.571  24.010  0.00  0.00    +0.000 OA
ATOM     26  H   UNL     1       0.225   9.374  24.801  0.00  0.00    +0.000 HD
ENDBRANCH  24  25
BRANCH  24  27
ATOM     27  C   UNL     1      -1.061   9.837  22.471  0.00  0.00    +0.000 C 
BRANCH  27  28
ATOM     28  C   UNL     1      -1.018  11.253  23.061  0.00  0.00    +0.000 C 
BRANCH  28  29
ATOM     29  O   UNL     1      -0.127  12.067  22.292  0.00  0.00    +0.000 OA
ATOM     30  H   UNL     1      -0.268  11.878  21.347  0.00  0.00    +0.000 HD
ENDBRANCH  28  29
BRANCH  28  31
ATOM     31  C   UNL     1      -2.391  11.926  23.066  0.00  0.00    +0.000 C 
BRANCH  31  32
ATOM     32  C   UNL     1      -2.402  13.181  22.241  0.00  0.00    +0.000 C 
ATOM     33  O   UNL     1      -2.150  14.304  22.672  0.00  0.00    +0.000 OA
BRANCH  32  34
ATOM     34  O   UNL     1      -2.715  12.967  20.943  0.00  0.00    +0.000 OA
ATOM     35  H   UNL     1      -2.083  12.398  20.465  0.00  0.00    +0.000 HD
ENDBRANCH  32  34
ENDBRANCH  31  32
ENDBRANCH  28  31
ENDBRANCH  27  28
ENDBRANCH  24  27
ENDBRANCH  23  24
ENDBRANCH   5  22
TORSDOF 12
ENDMDL
MODEL 9
REMARK VINA RESULT:      -6.3      4.658      7.978
REMARK  Name = 
REMARK  14 active torsions:
REMARK  status: ('A' for Active; 'I' for Inactive)
REMARK    1  A    between atoms: C_1  and  C_2
REMARK    2  A    between atoms: C_2  and  C_3
REMARK    3  A    between atoms: C_2  and  C_4
REMARK    4  A    between atoms: C_6  and  C_7
REMARK    5  A    between atoms: C_14  and  C_15
REMARK    6  A    between atoms: N_21  and  C_22
REMARK    7  A    between atoms: C_23  and  C_24
REMARK    8  A    between atoms: C_24  and  O_25
REMARK    9  A    between atoms: C_24  and  C_26
REMARK   10  A    between atoms: C_26  and  C_27
REMARK   11  A    between atoms: C_27  and  O_28
REMARK   12  A    between atoms: C_27  and  C_29
REMARK   13  A    between atoms: C_29  and  C_30
REMARK   14  A    between atoms: C_30  and  O_32
REMARK                            x       y       z     vdW  Elec       q    Type
REMARK                         _______ _______ _______ _____ _____    ______ ____
ROOT
ATOM      1  C   UNL     1       1.905   9.098  18.436  0.00  0.00    +0.000 A 
ATOM      2  C   UNL     1       2.772   8.420  17.610  0.00  0.00    +0.000 A 
ATOM      3  C   UNL     1       2.882   7.082  18.020  0.00  0.00    +0.000 A 
ATOM      4  C   UNL     1       2.044   6.923  19.138  0.00  0.00    +0.000 A 
ATOM      5  N   UNL     1       1.455   8.196  19.423  0.00  0.00    +0.000 N 
ENDROOT
BRANCH   3   6
ATOM      6  C   UNL     1       3.776   6.088  17.413  0.00  0.00    +0.000 A 
ATOM      7  C   UNL     1       3.455   4.721  17.522  0.00  0.00    +0.000 A 
ATOM      8  C   UNL     1       4.230   3.746  16.890  0.00  0.00    +0.000 A 
ATOM      9  C   UNL     1       5.316   4.136  16.121  0.00  0.00    +0.000 A 
ATOM     10  F   UNL     1       6.030   3.208  15.469  0.00  0.00    +0.000 F 
ATOM     11  C   UNL     1       5.672   5.473  16.018  0.00  0.00    +0.000 A 
ATOM     12  C   UNL     1       4.932   6.442  16.701  0.00  0.00    +0.000 A 
ENDBRANCH   3   6
BRANCH   4  13
ATOM     13  C   UNL     1       1.856   5.697  19.974  0.00  0.00    +0.000 A 
ATOM     14  C   UNL     1       2.753   5.409  21.019  0.00  0.00    +0.000 A 
ATOM     15  C   UNL     1       2.746   4.170  21.667  0.00  0.00    +0.000 A 
ATOM     16  C   UNL     1       1.756   3.240  21.377  0.00  0.00    +0.000 A 
ATOM     17  C   UNL     1       0.796   3.538  20.416  0.00  0.00    +0.000 A 
ATOM     18  C   UNL     1       0.880   4.730  19.684  0.00  0.00    +0.000 A 
ENDBRANCH   4  13
BRANCH   1  20
ATOM     19  C   UNL     1      -0.007  10.686  18.179  0.00  0.00    +0.000 C 
ATOM     20  C   UNL     1       1.514  10.556  18.305  0.00  0.00    +0.000 C 
ATOM     21  C   UNL     1       1.987  11.395  19.506  0.00  0.00    +0.000 C 
ENDBRANCH   1  20
BRANCH   5  22
ATOM     22  C   UNL     1       0.590   8.457  20.509  0.00  0.00    +0.000 C 
ATOM     23  C   UNL     1       0.824   8.972  21.727  0.00  0.00    +0.000 C 
BRANCH  23  24
ATOM     24  C   UNL     1      -0.269   9.247  22.725  0.00  0.00    +0.000 C 
BRANCH  24  25
ATOM     25  O   UNL     1       0.337   9.708  23.930  0.00  0.00    +0.000 OA
ATOM     26  H   UNL     1       0.424  10.675  23.872  0.00  0.00    +0.000 HD
ENDBRANCH  24  25
BRANCH  24  27
ATOM     27  C   UNL     1      -1.243  10.325  22.237  0.00  0.00    +0.000 C 
BRANCH  27  28
ATOM     28  C   UNL     1      -1.494  11.440  23.261  0.00  0.00    +0.000 C 
BRANCH  28  29
ATOM     29  O   UNL     1      -0.515  12.471  23.098  0.00  0.00    +0.000 OA
ATOM     30  H   UNL     1      -0.971  13.330  23.052  0.00  0.00    +0.000 HD
ENDBRANCH  28  29
BRANCH  28  31
ATOM     31  C   UNL     1      -2.879  12.071  23.111  0.00  0.00    +0.000 C 
BRANCH  31  32
ATOM     32  C   UNL     1      -3.102  13.173  24.106  0.00  0.00    +0.000 C 
ATOM     33  O   UNL     1      -2.477  14.230  24.131  0.00  0.00    +0.000 OA
BRANCH  32  34
ATOM     34  O   UNL     1      -4.083  12.901  24.996  0.00  0.00    +0.000 OA
ATOM     35  H   UNL     1      -3.916  13.240  25.896  0.00  0.00    +0.000 HD
ENDBRANCH  32  34
ENDBRANCH  31  32
ENDBRANCH  28  31
ENDBRANCH  27  28
ENDBRANCH  24  27
ENDBRANCH  23  24
ENDBRANCH   5  22
TORSDOF 12
ENDMDL
