MODEL 1
REMARK VINA RESULT:      -8.3      0.000      0.000
REMARK  Name = 
REMARK  4 active torsions:
REMARK  status: ('A' for Active; 'I' for Inactive)
REMARK    1  A    between atoms: C_1  and  C_2
REMARK    2  A    between atoms: C_2  and  N_3
REMARK    3  A    between atoms: C_2  and  C_11
REMARK    4  A    between atoms: C_14  and  C_15
REMARK                            x       y       z     vdW  Elec       q    Type
REMARK                         _______ _______ _______ _____ _____    ______ ____
ROOT
ATOM      1  C   UNL     1       2.375   6.731  19.650  0.00  0.00    +0.000 A 
ATOM      2  C   UNL     1       1.733   7.471  20.650  0.00  0.00    +0.000 A 
ATOM      3  C   UNL     1       1.214   8.734  20.371  0.00  0.00    +0.000 A 
ATOM      4  C   UNL     1       1.320   9.286  19.079  0.00  0.00    +0.000 A 
ATOM      5  C   UNL     1       2.013   8.550  18.092  0.00  0.00    +0.000 A 
ATOM      6  C   UNL     1       2.531   7.287  18.375  0.00  0.00    +0.000 A 
ENDROOT
BRANCH   4   7
ATOM      7  C   UNL     1       0.653  10.583  18.748  0.00  0.00    +0.000 A 
ATOM      8  C   UNL     1       1.350  11.810  18.803  0.00  0.00    +0.000 A 
ATOM      9  C   UNL     1       0.695  13.017  18.539  0.00  0.00    +0.000 A 
ATOM     10  C   UNL     1      -0.664  13.024  18.235  0.00  0.00    +0.000 A 
ATOM     11  C   UNL     1      -1.373  11.824  18.181  0.00  0.00    +0.000 A 
ATOM     12  C   UNL     1      -0.722  10.614  18.427  0.00  0.00    +0.000 A 
ENDBRANCH   4   7
BRANCH   1  14
ATOM     13  C   UNL     1       1.526   4.582  20.419  0.00  0.00    +0.000 C 
ATOM     14  C   UNL     1       2.783   5.307  19.931  0.00  0.00    +0.000 C 
BRANCH  14  15
ATOM     15  N   UNL     1       3.310   4.591  18.778  0.00  0.00    +0.000 NA
ATOM     16  C   UNL     1       4.553   4.361  18.481  0.00  0.00    +0.000 C 
ATOM     17  C   UNL     1       5.721   4.893  19.279  0.00  0.00    +0.000 C 
ATOM     18  C   UNL     1       6.757   5.666  18.421  0.00  0.00    +0.000 C 
ATOM     19  C   UNL     1       7.512   4.733  17.448  0.00  0.00    +0.000 C 
ATOM     20  C   UNL     1       6.811   4.381  16.118  0.00  0.00    +0.000 C 
ATOM     21  C   UNL     1       5.282   4.289  16.157  0.00  0.00    +0.000 C 
ATOM     22  N   UNL     1       4.817   3.585  17.325  0.00  0.00    +0.000 N 
ATOM     23  H   UNL     1       5.177   2.630  17.459  0.00  0.00    +0.000 HD
ENDBRANCH  14  15
ENDBRANCH   1  14
TORSDOF 3
ENDMDL
MODEL 2
REMARK VINA RESULT:      -8.3      0.068      1.033
REMARK  Name = 
REMARK  4 active torsions:
REMARK  status: ('A' for Active; 'I' for Inactive)
REMARK    1  A    between atoms: C_1  and  C_2
REMARK    2  A    between atoms: C_2  and  N_3
REMARK    3  A    between atoms: C_2  and  C_11
REMARK    4  A    between atoms: C_14  and  C_15
REMARK                            x       y       z     vdW  Elec       q    Type
REMARK                         _______ _______ _______ _____ _____    ______ ____
ROOT
ATOM      1  C   UNL     1       2.358   6.695  19.673  0.00  0.00    +0.000 A 
ATOM      2  C   UNL     1       1.722   7.414  20.693  0.00  0.00    +0.000 A 
ATOM      3  C   UNL     1       1.203   8.683  20.444  0.00  0.00    +0.000 A 
ATOM      4  C   UNL     1       1.303   9.263  19.163  0.00  0.00    +0.000 A 
ATOM      5  C   UNL     1       1.988   8.548  18.157  0.00  0.00    +0.000 A 
ATOM      6  C   UNL     1       2.506   7.278  18.409  0.00  0.00    +0.000 A 
ENDROOT
BRANCH   4   7
ATOM      7  C   UNL     1       0.635  10.567  18.864  0.00  0.00    +0.000 A 
ATOM      8  C   UNL     1      -0.729  10.636  18.506  0.00  0.00    +0.000 A 
ATOM      9  C   UNL     1      -1.322  11.860  18.181  0.00  0.00    +0.000 A 
ATOM     10  C   UNL     1      -0.565  13.030  18.191  0.00  0.00    +0.000 A 
ATOM     11  C   UNL     1       0.785  12.983  18.537  0.00  0.00    +0.000 A 
ATOM     12  C   UNL     1       1.380  11.767  18.878  0.00  0.00    +0.000 A 
ENDBRANCH   4   7
BRANCH   1  14
ATOM     13  C   UNL     1       1.508   4.527  20.386  0.00  0.00    +0.000 C 
ATOM     14  C   UNL     1       2.766   5.264  19.922  0.00  0.00    +0.000 C 
BRANCH  14  15
ATOM     15  N   UNL     1       3.299   4.577  18.754  0.00  0.00    +0.000 NA
ATOM     16  C   UNL     1       4.543   4.352  18.459  0.00  0.00    +0.000 C 
ATOM     17  C   UNL     1       5.707   4.861  19.278  0.00  0.00    +0.000 C 
ATOM     18  C   UNL     1       6.751   5.653  18.447  0.00  0.00    +0.000 C 
ATOM     19  C   UNL     1       7.510   4.745  17.456  0.00  0.00    +0.000 C 
ATOM     20  C   UNL     1       6.817   4.429  16.113  0.00  0.00    +0.000 C 
ATOM     21  C   UNL     1       5.288   4.339  16.139  0.00  0.00    +0.000 C 
ATOM     22  N   UNL     1       4.813   3.606  17.286  0.00  0.00    +0.000 N 
ATOM     23  H   UNL     1       5.171   2.647  17.397  0.00  0.00    +0.000 HD
ENDBRANCH  14  15
ENDBRANCH   1  14
TORSDOF 3
ENDMDL
MODEL 3
REMARK VINA RESULT:      -8.1      0.375      1.097
REMARK  Name = 
REMARK  4 active torsions:
REMARK  status: ('A' for Active; 'I' for Inactive)
REMARK    1  A    between atoms: C_1  and  C_2
REMARK    2  A    between atoms: C_2  and  N_3
REMARK    3  A    between atoms: C_2  and  C_11
REMARK    4  A    between atoms: C_14  and  C_15
REMARK                            x       y       z     vdW  Elec       q    Type
REMARK                         _______ _______ _______ _____ _____    ______ ____
ROOT
ATOM      1  C   UNL     1       2.366   6.822  19.579  0.00  0.00    +0.000 A 
ATOM      2  C   UNL     1       2.523   7.391  18.309  0.00  0.00    +0.000 A 
ATOM      3  C   UNL     1       1.990   8.647  18.027  0.00  0.00    +0.000 A 
ATOM      4  C   UNL     1       1.290   9.370  19.014  0.00  0.00    +0.000 A 
ATOM      5  C   UNL     1       1.098   8.764  20.276  0.00  0.00    +0.000 A 
ATOM      6  C   UNL     1       1.632   7.507  20.554  0.00  0.00    +0.000 A 
ENDROOT
BRANCH   4   7
ATOM      7  C   UNL     1       0.831  10.769  18.751  0.00  0.00    +0.000 A 
ATOM      8  C   UNL     1       1.744  11.840  18.644  0.00  0.00    +0.000 A 
ATOM      9  C   UNL     1       1.291  13.148  18.447  0.00  0.00    +0.000 A 
ATOM     10  C   UNL     1      -0.075  13.413  18.373  0.00  0.00    +0.000 A 
ATOM     11  C   UNL     1      -0.993  12.370  18.483  0.00  0.00    +0.000 A 
ATOM     12  C   UNL     1      -0.549  11.059  18.662  0.00  0.00    +0.000 A 
ENDBRANCH   4   7
BRANCH   1  14
ATOM     13  C   UNL     1       2.108   4.685  20.719  0.00  0.00    +0.000 C 
ATOM     14  C   UNL     1       3.087   5.538  19.908  0.00  0.00    +0.000 C 
BRANCH  14  15
ATOM     15  N   UNL     1       3.515   4.772  18.747  0.00  0.00    +0.000 NA
ATOM     16  C   UNL     1       4.725   4.453  18.402  0.00  0.00    +0.000 C 
ATOM     17  C   UNL     1       5.960   4.918  19.141  0.00  0.00    +0.000 C 
ATOM     18  C   UNL     1       7.008   5.605  18.227  0.00  0.00    +0.000 C 
ATOM     19  C   UNL     1       7.656   4.610  17.240  0.00  0.00    +0.000 C 
ATOM     20  C   UNL     1       6.877   4.286  15.947  0.00  0.00    +0.000 C 
ATOM     21  C   UNL     1       5.348   4.298  16.052  0.00  0.00    +0.000 C 
ATOM     22  N   UNL     1       4.887   3.645  17.250  0.00  0.00    +0.000 N 
ATOM     23  H   UNL     1       5.188   2.670  17.386  0.00  0.00    +0.000 HD
ENDBRANCH  14  15
ENDBRANCH   1  14
TORSDOF 3
ENDMDL
MODEL 4
REMARK VINA RESULT:      -8.1      0.348      1.494
REMARK  Name = 
REMARK  4 active torsions:
REMARK  status: ('A' for Active; 'I' for Inactive)
REMARK    1  A    between atoms: C_1  and  C_2
REMARK    2  A    between atoms: C_2  and  N_3
REMARK    3  A    between atoms: C_2  and  C_11
REMARK    4  A    between atoms: C_14  and  C_15
REMARK                            x       y       z     vdW  Elec       q    Type
REMARK                         _______ _______ _______ _____ _____    ______ ____
ROOT
ATOM      1  C   UNL     1       2.334   6.880  19.663  0.00  0.00    +0.000 A 
ATOM      2  C   UNL     1       2.421   7.436  18.381  0.00  0.00    +0.000 A 
ATOM      3  C   UNL     1       1.851   8.678  18.109  0.00  0.00    +0.000 A 
ATOM      4  C   UNL     1       1.181   9.399  19.119  0.00  0.00    +0.000 A 
ATOM      5  C   UNL     1       1.059   8.805  20.395  0.00  0.00    +0.000 A 
ATOM      6  C   UNL     1       1.631   7.563  20.663  0.00  0.00    +0.000 A 
ENDROOT
BRANCH   4   7
ATOM      7  C   UNL     1       0.682  10.784  18.860  0.00  0.00    +0.000 A 
ATOM      8  C   UNL     1      -0.682  11.044  18.601  0.00  0.00    +0.000 A 
ATOM      9  C   UNL     1      -1.121  12.339  18.312  0.00  0.00    +0.000 A 
ATOM     10  C   UNL     1      -0.210  13.392  18.259  0.00  0.00    +0.000 A 
ATOM     11  C   UNL     1       1.142  13.156  18.506  0.00  0.00    +0.000 A 
ATOM     12  C   UNL     1       1.586  11.869  18.811  0.00  0.00    +0.000 A 
ENDBRANCH   4   7
BRANCH   1  14
ATOM     13  C   UNL     1       2.171   4.752  20.837  0.00  0.00    +0.000 C 
ATOM     14  C   UNL     1       3.095   5.616  19.974  0.00  0.00    +0.000 C 
BRANCH  14  15
ATOM     15  N   UNL     1       3.487   4.844  18.803  0.00  0.00    +0.000 NA
ATOM     16  C   UNL     1       4.685   4.505  18.435  0.00  0.00    +0.000 C 
ATOM     17  C   UNL     1       5.941   4.946  19.151  0.00  0.00    +0.000 C 
ATOM     18  C   UNL     1       6.984   5.617  18.219  0.00  0.00    +0.000 C 
ATOM     19  C   UNL     1       7.595   4.613  17.218  0.00  0.00    +0.000 C 
ATOM     20  C   UNL     1       6.786   4.306  15.939  0.00  0.00    +0.000 C 
ATOM     21  C   UNL     1       5.261   4.345  16.073  0.00  0.00    +0.000 C 
ATOM     22  N   UNL     1       4.811   3.697  17.279  0.00  0.00    +0.000 N 
ATOM     23  H   UNL     1       5.097   2.716  17.407  0.00  0.00    +0.000 HD
ENDBRANCH  14  15
ENDBRANCH   1  14
TORSDOF 3
ENDMDL
MODEL 5
REMARK VINA RESULT:      -7.9      4.850      6.950
REMARK  Name = 
REMARK  4 active torsions:
REMARK  status: ('A' for Active; 'I' for Inactive)
REMARK    1  A    between atoms: C_1  and  C_2
REMARK    2  A    between atoms: C_2  and  N_3
REMARK    3  A    between atoms: C_2  and  C_11
REMARK    4  A    between atoms: C_14  and  C_15
REMARK                            x       y       z     vdW  Elec       q    Type
REMARK                         _______ _______ _______ _____ _____    ______ ____
ROOT
ATOM      1  C   UNL     1       6.839   6.498  17.651  0.00  0.00    +0.000 A 
ATOM      2  C   UNL     1       6.570   7.752  17.090  0.00  0.00    +0.000 A 
ATOM      3  C   UNL     1       7.290   8.875  17.492  0.00  0.00    +0.000 A 
ATOM      4  C   UNL     1       8.305   8.769  18.464  0.00  0.00    +0.000 A 
ATOM      5  C   UNL     1       8.535   7.507  19.056  0.00  0.00    +0.000 A 
ATOM      6  C   UNL     1       7.812   6.386  18.652  0.00  0.00    +0.000 A 
ENDROOT
BRANCH   4   7
ATOM      7  C   UNL     1       9.162   9.948  18.801  0.00  0.00    +0.000 A 
ATOM      8  C   UNL     1       9.345  10.373  20.135  0.00  0.00    +0.000 A 
ATOM      9  C   UNL     1      10.109  11.507  20.425  0.00  0.00    +0.000 A 
ATOM     10  C   UNL     1      10.687  12.245  19.394  0.00  0.00    +0.000 A 
ATOM     11  C   UNL     1      10.514  11.845  18.069  0.00  0.00    +0.000 A 
ATOM     12  C   UNL     1       9.766  10.705  17.772  0.00  0.00    +0.000 A 
ENDBRANCH   4   7
BRANCH   1  14
ATOM     13  C   UNL     1       7.184   4.592  16.174  0.00  0.00    +0.000 C 
ATOM     14  C   UNL     1       6.162   5.274  17.086  0.00  0.00    +0.000 C 
BRANCH  14  15
ATOM     15  N   UNL     1       5.722   4.312  18.087  0.00  0.00    +0.000 NA
ATOM     16  C   UNL     1       4.633   3.605  18.090  0.00  0.00    +0.000 C 
ATOM     17  C   UNL     1       3.547   3.728  17.045  0.00  0.00    +0.000 C 
ATOM     18  C   UNL     1       2.137   3.973  17.642  0.00  0.00    +0.000 C 
ATOM     19  C   UNL     1       1.615   2.741  18.414  0.00  0.00    +0.000 C 
ATOM     20  C   UNL     1       2.098   2.561  19.869  0.00  0.00    +0.000 C 
ATOM     21  C   UNL     1       3.514   3.055  20.183  0.00  0.00    +0.000 C 
ATOM     22  N   UNL     1       4.452   2.687  19.153  0.00  0.00    +0.000 N 
ATOM     23  H   UNL     1       4.526   1.683  18.939  0.00  0.00    +0.000 HD
ENDBRANCH  14  15
ENDBRANCH   1  14
TORSDOF 3
ENDMDL
MODEL 6
REMARK VINA RESULT:      -7.9      4.837      6.981
REMARK  Name = 
REMARK  4 active torsions:
REMARK  status: ('A' for Active; 'I' for Inactive)
REMARK    1  A    between atoms: C_1  and  C_2
REMARK    2  A    between atoms: C_2  and  N_3
REMARK    3  A    between atoms: C_2  and  C_11
REMARK    4  A    between atoms: C_14  and  C_15
REMARK                            x       y       z     vdW  Elec       q    Type
REMARK                         _______ _______ _______ _____ _____    ______ ____
ROOT
ATOM      1  C   UNL     1       6.887   6.549  17.664  0.00  0.00    +0.000 A 
ATOM      2  C   UNL     1       6.606   7.797  17.095  0.00  0.00    +0.000 A 
ATOM      3  C   UNL     1       7.314   8.930  17.492  0.00  0.00    +0.000 A 
ATOM      4  C   UNL     1       8.327   8.840  18.468  0.00  0.00    +0.000 A 
ATOM      5  C   UNL     1       8.568   7.584  19.068  0.00  0.00    +0.000 A 
ATOM      6  C   UNL     1       7.857   6.453  18.668  0.00  0.00    +0.000 A 
ENDROOT
BRANCH   4   7
ATOM      7  C   UNL     1       9.171  10.028  18.801  0.00  0.00    +0.000 A 
ATOM      8  C   UNL     1       9.877  10.738  17.804  0.00  0.00    +0.000 A 
ATOM      9  C   UNL     1      10.700  11.816  18.143  0.00  0.00    +0.000 A 
ATOM     10  C   UNL     1      10.849  12.193  19.476  0.00  0.00    +0.000 A 
ATOM     11  C   UNL     1      10.166  11.502  20.475  0.00  0.00    +0.000 A 
ATOM     12  C   UNL     1       9.329  10.435  20.144  0.00  0.00    +0.000 A 
ENDBRANCH   4   7
BRANCH   1  14
ATOM     13  C   UNL     1       7.263   4.626  16.217  0.00  0.00    +0.000 C 
ATOM     14  C   UNL     1       6.223   5.316  17.104  0.00  0.00    +0.000 C 
BRANCH  14  15
ATOM     15  N   UNL     1       5.771   4.365  18.109  0.00  0.00    +0.000 NA
ATOM     16  C   UNL     1       4.683   3.657  18.106  0.00  0.00    +0.000 C 
ATOM     17  C   UNL     1       3.611   3.767  17.046  0.00  0.00    +0.000 C 
ATOM     18  C   UNL     1       2.192   4.017  17.622  0.00  0.00    +0.000 C 
ATOM     19  C   UNL     1       1.661   2.795  18.401  0.00  0.00    +0.000 C 
ATOM     20  C   UNL     1       2.126   2.631  19.865  0.00  0.00    +0.000 C 
ATOM     21  C   UNL     1       3.537   3.130  20.191  0.00  0.00    +0.000 C 
ATOM     22  N   UNL     1       4.488   2.751  19.177  0.00  0.00    +0.000 N 
ATOM     23  H   UNL     1       4.566   1.744  18.976  0.00  0.00    +0.000 HD
ENDBRANCH  14  15
ENDBRANCH   1  14
TORSDOF 3
ENDMDL
MODEL 7
REMARK VINA RESULT:      -7.7      1.138      1.500
REMARK  Name = 
REMARK  4 active torsions:
REMARK  status: ('A' for Active; 'I' for Inactive)
REMARK    1  A    between atoms: C_1  and  C_2
REMARK    2  A    between atoms: C_2  and  N_3
REMARK    3  A    between atoms: C_2  and  C_11
REMARK    4  A    between atoms: C_14  and  C_15
REMARK                            x       y       z     vdW  Elec       q    Type
REMARK                         _______ _______ _______ _____ _____    ______ ____
ROOT
ATOM      1  C   UNL     1       2.273   5.589  19.361  0.00  0.00    +0.000 A 
ATOM      2  C   UNL     1       1.780   6.049  20.588  0.00  0.00    +0.000 A 
ATOM      3  C   UNL     1       1.449   7.392  20.758  0.00  0.00    +0.000 A 
ATOM      4  C   UNL     1       1.598   8.310  19.698  0.00  0.00    +0.000 A 
ATOM      5  C   UNL     1       2.142   7.843  18.481  0.00  0.00    +0.000 A 
ATOM      6  C   UNL     1       2.472   6.498  18.315  0.00  0.00    +0.000 A 
ENDROOT
BRANCH   4   7
ATOM      7  C   UNL     1       1.124   9.721  19.841  0.00  0.00    +0.000 A 
ATOM      8  C   UNL     1       0.638  10.218  21.070  0.00  0.00    +0.000 A 
ATOM      9  C   UNL     1       0.152  11.525  21.171  0.00  0.00    +0.000 A 
ATOM     10  C   UNL     1       0.126  12.350  20.049  0.00  0.00    +0.000 A 
ATOM     11  C   UNL     1       0.595  11.877  18.824  0.00  0.00    +0.000 A 
ATOM     12  C   UNL     1       1.097  10.579  18.719  0.00  0.00    +0.000 A 
ENDBRANCH   4   7
BRANCH   1  14
ATOM     13  C   UNL     1       1.079   3.510  18.937  0.00  0.00    +0.000 C 
ATOM     14  C   UNL     1       2.471   4.109  19.151  0.00  0.00    +0.000 C 
BRANCH  14  15
ATOM     15  N   UNL     1       3.301   3.767  18.005  0.00  0.00    +0.000 NA
ATOM     16  C   UNL     1       4.597   3.769  17.930  0.00  0.00    +0.000 C 
ATOM     17  C   UNL     1       5.504   4.227  19.049  0.00  0.00    +0.000 C 
ATOM     18  C   UNL     1       6.531   5.306  18.614  0.00  0.00    +0.000 C 
ATOM     19  C   UNL     1       7.587   4.739  17.640  0.00  0.00    +0.000 C 
ATOM     20  C   UNL     1       7.196   4.642  16.150  0.00  0.00    +0.000 C 
ATOM     21  C   UNL     1       5.721   4.358  15.850  0.00  0.00    +0.000 C 
ATOM     22  N   UNL     1       5.183   3.338  16.714  0.00  0.00    +0.000 N 
ATOM     23  H   UNL     1       5.669   2.431  16.710  0.00  0.00    +0.000 HD
ENDBRANCH  14  15
ENDBRANCH   1  14
TORSDOF 3
ENDMDL
MODEL 8
REMARK VINA RESULT:      -7.7      3.017      7.886
REMARK  Name = 
REMARK  4 active torsions:
REMARK  status: ('A' for Active; 'I' for Inactive)
REMARK    1  A    between atoms: C_1  and  C_2
REMARK    2  A    between atoms: C_2  and  N_3
REMARK    3  A    between atoms: C_2  and  C_11
REMARK    4  A    between atoms: C_14  and  C_15
REMARK                            x       y       z     vdW  Elec       q    Type
REMARK                         _______ _______ _______ _____ _____    ______ ____
ROOT
ATOM      1  C   UNL     1       1.088   8.999  20.246  0.00  0.00    +0.000 A 
ATOM      2  C   UNL     1       1.514   7.762  20.743  0.00  0.00    +0.000 A 
ATOM      3  C   UNL     1       2.250   6.893  19.940  0.00  0.00    +0.000 A 
ATOM      4  C   UNL     1       2.584   7.245  18.617  0.00  0.00    +0.000 A 
ATOM      5  C   UNL     1       2.107   8.475  18.111  0.00  0.00    +0.000 A 
ATOM      6  C   UNL     1       1.371   9.341  18.918  0.00  0.00    +0.000 A 
ENDROOT
BRANCH   4   7
ATOM      7  C   UNL     1       3.480   6.370  17.799  0.00  0.00    +0.000 A 
ATOM      8  C   UNL     1       4.496   6.909  16.981  0.00  0.00    +0.000 A 
ATOM      9  C   UNL     1       5.290   6.077  16.186  0.00  0.00    +0.000 A 
ATOM     10  C   UNL     1       5.075   4.701  16.178  0.00  0.00    +0.000 A 
ATOM     11  C   UNL     1       4.072   4.149  16.975  0.00  0.00    +0.000 A 
ATOM     12  C   UNL     1       3.286   4.970  17.784  0.00  0.00    +0.000 A 
ENDBRANCH   4   7
BRANCH   1  14
ATOM     13  C   UNL     1       0.475   9.357  22.575  0.00  0.00    +0.000 C 
ATOM     14  C   UNL     1       0.436   9.987  21.181  0.00  0.00    +0.000 C 
BRANCH  14  15
ATOM     15  N   UNL     1       1.094  11.285  21.242  0.00  0.00    +0.000 NA
ATOM     16  C   UNL     1       0.673  12.416  20.765  0.00  0.00    +0.000 C 
ATOM     17  C   UNL     1      -0.595  12.568  19.956  0.00  0.00    +0.000 C 
ATOM     18  C   UNL     1      -0.381  13.281  18.595  0.00  0.00    +0.000 C 
ATOM     19  C   UNL     1      -0.008  14.769  18.774  0.00  0.00    +0.000 C 
ATOM     20  C   UNL     1       1.470  15.097  19.075  0.00  0.00    +0.000 C 
ATOM     21  C   UNL     1       2.245  14.061  19.895  0.00  0.00    +0.000 C 
ATOM     22  N   UNL     1       1.468  13.563  21.002  0.00  0.00    +0.000 N 
ATOM     23  H   UNL     1       1.114  14.266  21.666  0.00  0.00    +0.000 HD
ENDBRANCH  14  15
ENDBRANCH   1  14
TORSDOF 3
ENDMDL
MODEL 9
REMARK VINA RESULT:      -7.6      1.163      1.399
REMARK  Name = 
REMARK  4 active torsions:
REMARK  status: ('A' for Active; 'I' for Inactive)
REMARK    1  A    between atoms: C_1  and  C_2
REMARK    2  A    between atoms: C_2  and  N_3
REMARK    3  A    between atoms: C_2  and  C_11
REMARK    4  A    between atoms: C_14  and  C_15
REMARK                            x       y       z     vdW  Elec       q    Type
REMARK                         _______ _______ _______ _____ _____    ______ ____
ROOT
ATOM      1  C   UNL     1       2.286   7.174  19.712  0.00  0.00    +0.000 A 
ATOM      2  C   UNL     1       1.601   7.532  20.880  0.00  0.00    +0.000 A 
ATOM      3  C   UNL     1       0.825   8.689  20.917  0.00  0.00    +0.000 A 
ATOM      4  C   UNL     1       0.711   9.516  19.781  0.00  0.00    +0.000 A 
ATOM      5  C   UNL     1       1.446   9.169  18.625  0.00  0.00    +0.000 A 
ATOM      6  C   UNL     1       2.221   8.011  18.592  0.00  0.00    +0.000 A 
ENDROOT
BRANCH   4   7
ATOM      7  C   UNL     1      -0.220  10.685  19.781  0.00  0.00    +0.000 A 
ATOM      8  C   UNL     1      -0.911  11.083  18.616  0.00  0.00    +0.000 A 
ATOM      9  C   UNL     1      -1.739  12.209  18.624  0.00  0.00    +0.000 A 
ATOM     10  C   UNL     1      -1.878  12.967  19.785  0.00  0.00    +0.000 A 
ATOM     11  C   UNL     1      -1.201  12.595  20.945  0.00  0.00    +0.000 A 
ATOM     12  C   UNL     1      -0.385  11.463  20.950  0.00  0.00    +0.000 A 
ENDBRANCH   4   7
BRANCH   1  14
ATOM     13  C   UNL     1       2.002   4.805  20.199  0.00  0.00    +0.000 C 
ATOM     14  C   UNL     1       2.985   5.839  19.646  0.00  0.00    +0.000 C 
BRANCH  14  15
ATOM     15  N   UNL     1       3.378   5.430  18.304  0.00  0.00    +0.000 NA
ATOM     16  C   UNL     1       4.502   4.901  17.929  0.00  0.00    +0.000 C 
ATOM     17  C   UNL     1       5.680   4.684  18.852  0.00  0.00    +0.000 C 
ATOM     18  C   UNL     1       7.004   5.294  18.321  0.00  0.00    +0.000 C 
ATOM     19  C   UNL     1       7.519   4.555  17.066  0.00  0.00    +0.000 C 
ATOM     20  C   UNL     1       6.900   4.950  15.708  0.00  0.00    +0.000 C 
ATOM     21  C   UNL     1       5.432   5.387  15.730  0.00  0.00    +0.000 C 
ATOM     22  N   UNL     1       4.630   4.532  16.567  0.00  0.00    +0.000 N 
ATOM     23  H   UNL     1       4.639   3.528  16.340  0.00  0.00    +0.000 HD
ENDBRANCH  14  15
ENDBRANCH   1  14
TORSDOF 3
ENDMDL
