MODEL 1
REMARK VINA RESULT:      -7.7      0.000      0.000
REMARK  Name = 
REMARK  12 active torsions:
REMARK  status: ('A' for Active; 'I' for Inactive)
REMARK    1  A    between atoms: C_1  and  O_2
REMARK    2  A    between atoms: O_2  and  C_3
REMARK    3  A    between atoms: C_6  and  C_7
REMARK    4  A    between atoms: C_7  and  C_8
REMARK    5  A    between atoms: C_11  and  C_12
REMARK    6  A    between atoms: C_12  and  O_14
REMARK    7  A    between atoms: C_17  and  O_18
REMARK    8  A    between atoms: O_18  and  C_19
REMARK    9  A    between atoms: C_20  and  O_21
REMARK   10  A    between atoms: O_21  and  C_22
REMARK   11  A    between atoms: C_26  and  O_27
REMARK   12  A    between atoms: O_27  and  C_28
REMARK                            x       y       z     vdW  Elec       q    Type
REMARK                         _______ _______ _______ _____ _____    ______ ____
ROOT
ATOM      1  C   UNL     1       2.722   7.315  18.091  0.00  0.00    +0.000 A 
ATOM      2  N   UNL     1       1.917   6.776  19.090  0.00  0.00    +0.000 NA
ATOM      3  C   UNL     1       2.234   5.569  19.570  0.00  0.00    +0.000 A 
ATOM      4  C   UNL     1       3.131   4.815  18.928  0.00  0.00    +0.000 A 
ATOM      5  C   UNL     1       4.224   5.569  18.537  0.00  0.00    +0.000 A 
ATOM      6  C   UNL     1       5.491   5.238  19.031  0.00  0.00    +0.000 A 
ATOM      7  C   UNL     1       6.612   5.437  18.243  0.00  0.00    +0.000 A 
ATOM      8  C   UNL     1       6.361   5.889  16.951  0.00  0.00    +0.000 A 
ATOM      9  C   UNL     1       5.148   6.641  16.735  0.00  0.00    +0.000 A 
ATOM     10  C   UNL     1       4.018   6.636  17.689  0.00  0.00    +0.000 A 
ENDROOT
BRANCH   4  11
ATOM     11  C   UNL     1       2.562   4.132  17.663  0.00  0.00    +0.000 C 
ATOM     12  O   UNL     1       3.266   3.523  16.873  0.00  0.00    +0.000 OA
BRANCH  11  13
ATOM     13  O   UNL     1       1.234   4.322  17.438  0.00  0.00    +0.000 OA
ATOM     14  H   UNL     1       0.944   4.172  16.518  0.00  0.00    +0.000 HD
ENDBRANCH  11  13
ENDBRANCH   4  11
BRANCH   7  15
ATOM     15  O   UNL     1       7.873   5.127  18.647  0.00  0.00    +0.000 OA
ATOM     16  C   UNL     1       8.297   5.533  19.946  0.00  0.00    +0.000 C 
ENDBRANCH   7  15
BRANCH   8  17
ATOM     17  O   UNL     1       7.195   5.654  15.877  0.00  0.00    +0.000 OA
ATOM     18  C   UNL     1       6.914   4.483  15.049  0.00  0.00    +0.000 C 
ENDBRANCH   8  17
BRANCH   1  19
ATOM     19  C   UNL     1       2.323   8.781  17.841  0.00  0.00    +0.000 C 
BRANCH  19  23
ATOM     20  C   UNL     1      -0.776  10.854  20.252  0.00  0.00    +0.000 A 
ATOM     21  C   UNL     1      -0.960  10.652  18.856  0.00  0.00    +0.000 A 
ATOM     22  C   UNL     1       0.014   9.966  18.075  0.00  0.00    +0.000 A 
ATOM     23  C   UNL     1       1.188   9.478  18.633  0.00  0.00    +0.000 A 
ATOM     24  C   UNL     1       1.321   9.629  20.040  0.00  0.00    +0.000 A 
ATOM     25  C   UNL     1       0.362  10.331  20.823  0.00  0.00    +0.000 A 
BRANCH  20  27
ATOM     26  C   UNL     1      -1.494  12.965  21.161  0.00  0.00    +0.000 C 
ATOM     27  O   UNL     1      -1.658  11.568  21.021  0.00  0.00    +0.000 OA
ENDBRANCH  20  27
BRANCH  25  28
ATOM     28  O   UNL     1       0.732  10.382  22.167  0.00  0.00    +0.000 OA
ATOM     29  C   UNL     1       0.067   9.536  23.103  0.00  0.00    +0.000 C 
ENDBRANCH  25  28
ENDBRANCH  19  23
ENDBRANCH   1  19
TORSDOF 8
ENDMDL
MODEL 2
REMARK VINA RESULT:      -7.6      1.711      2.200
REMARK  Name = 
REMARK  12 active torsions:
REMARK  status: ('A' for Active; 'I' for Inactive)
REMARK    1  A    between atoms: C_1  and  O_2
REMARK    2  A    between atoms: O_2  and  C_3
REMARK    3  A    between atoms: C_6  and  C_7
REMARK    4  A    between atoms: C_7  and  C_8
REMARK    5  A    between atoms: C_11  and  C_12
REMARK    6  A    between atoms: C_12  and  O_14
REMARK    7  A    between atoms: C_17  and  O_18
REMARK    8  A    between atoms: O_18  and  C_19
REMARK    9  A    between atoms: C_20  and  O_21
REMARK   10  A    between atoms: O_21  and  C_22
REMARK   11  A    between atoms: C_26  and  O_27
REMARK   12  A    between atoms: O_27  and  C_28
REMARK                            x       y       z     vdW  Elec       q    Type
REMARK                         _______ _______ _______ _____ _____    ______ ____
ROOT
ATOM      1  C   UNL     1       2.020   5.564  20.219  0.00  0.00    +0.000 A 
ATOM      2  N   UNL     1       1.581   4.419  20.877  0.00  0.00    +0.000 NA
ATOM      3  C   UNL     1       2.094   3.243  20.503  0.00  0.00    +0.000 A 
ATOM      4  C   UNL     1       2.801   3.158  19.373  0.00  0.00    +0.000 A 
ATOM      5  C   UNL     1       3.684   4.218  19.258  0.00  0.00    +0.000 A 
ATOM      6  C   UNL     1       5.057   3.956  19.191  0.00  0.00    +0.000 A 
ATOM      7  C   UNL     1       5.880   4.778  18.439  0.00  0.00    +0.000 A 
ATOM      8  C   UNL     1       5.230   5.780  17.725  0.00  0.00    +0.000 A 
ATOM      9  C   UNL     1       3.967   6.251  18.241  0.00  0.00    +0.000 A 
ATOM     10  C   UNL     1       3.174   5.498  19.237  0.00  0.00    +0.000 A 
ENDROOT
BRANCH   4  11
ATOM     11  C   UNL     1       1.922   3.147  18.101  0.00  0.00    +0.000 C 
ATOM     12  O   UNL     1       2.385   3.296  16.982  0.00  0.00    +0.000 OA
BRANCH  11  13
ATOM     13  O   UNL     1       0.582   3.043  18.313  0.00  0.00    +0.000 OA
ATOM     14  H   UNL     1       0.127   2.372  17.769  0.00  0.00    +0.000 HD
ENDBRANCH  11  13
ENDBRANCH   4  11
BRANCH   7  15
ATOM     15  O   UNL     1       7.220   4.581  18.314  0.00  0.00    +0.000 OA
ATOM     16  C   UNL     1       8.109   5.456  19.003  0.00  0.00    +0.000 C 
ENDBRANCH   7  15
BRANCH   8  17
ATOM     17  O   UNL     1       5.720   6.336  16.561  0.00  0.00    +0.000 OA
ATOM     18  C   UNL     1       5.548   5.574  15.326  0.00  0.00    +0.000 C 
ENDBRANCH   8  17
BRANCH   1  19
ATOM     19  C   UNL     1       1.482   6.813  20.941  0.00  0.00    +0.000 C 
BRANCH  19  23
ATOM     20  C   UNL     1       1.189  10.851  19.120  0.00  0.00    +0.000 A 
ATOM     21  C   UNL     1       1.547   9.725  18.328  0.00  0.00    +0.000 A 
ATOM     22  C   UNL     1       1.619   8.419  18.893  0.00  0.00    +0.000 A 
ATOM     23  C   UNL     1       1.360   8.189  20.238  0.00  0.00    +0.000 A 
ATOM     24  C   UNL     1       0.939   9.315  20.995  0.00  0.00    +0.000 A 
ATOM     25  C   UNL     1       0.884  10.626  20.443  0.00  0.00    +0.000 A 
BRANCH  20  27
ATOM     26  C   UNL     1       2.387  12.848  18.506  0.00  0.00    +0.000 C 
ATOM     27  O   UNL     1       1.175  12.131  18.627  0.00  0.00    +0.000 OA
ENDBRANCH  20  27
BRANCH  25  28
ATOM     28  O   UNL     1       0.483  11.568  21.390  0.00  0.00    +0.000 OA
ATOM     29  C   UNL     1      -0.527  11.217  22.333  0.00  0.00    +0.000 C 
ENDBRANCH  25  28
ENDBRANCH  19  23
ENDBRANCH   1  19
TORSDOF 8
ENDMDL
MODEL 3
REMARK VINA RESULT:      -7.5      1.084      1.302
REMARK  Name = 
REMARK  12 active torsions:
REMARK  status: ('A' for Active; 'I' for Inactive)
REMARK    1  A    between atoms: C_1  and  O_2
REMARK    2  A    between atoms: O_2  and  C_3
REMARK    3  A    between atoms: C_6  and  C_7
REMARK    4  A    between atoms: C_7  and  C_8
REMARK    5  A    between atoms: C_11  and  C_12
REMARK    6  A    between atoms: C_12  and  O_14
REMARK    7  A    between atoms: C_17  and  O_18
REMARK    8  A    between atoms: O_18  and  C_19
REMARK    9  A    between atoms: C_20  and  O_21
REMARK   10  A    between atoms: O_21  and  C_22
REMARK   11  A    between atoms: C_26  and  O_27
REMARK   12  A    between atoms: O_27  and  C_28
REMARK                            x       y       z     vdW  Elec       q    Type
REMARK                         _______ _______ _______ _____ _____    ______ ____
ROOT
ATOM      1  C   UNL     1       2.823   7.428  18.077  0.00  0.00    +0.000 A 
ATOM      2  N   UNL     1       1.984   6.930  19.070  0.00  0.00    +0.000 NA
ATOM      3  C   UNL     1       2.238   5.710  19.554  0.00  0.00    +0.000 A 
ATOM      4  C   UNL     1       3.102   4.913  18.920  0.00  0.00    +0.000 A 
ATOM      5  C   UNL     1       4.234   5.611  18.538  0.00  0.00    +0.000 A 
ATOM      6  C   UNL     1       5.479   5.219  19.043  0.00  0.00    +0.000 A 
ATOM      7  C   UNL     1       6.616   5.362  18.264  0.00  0.00    +0.000 A 
ATOM      8  C   UNL     1       6.398   5.825  16.970  0.00  0.00    +0.000 A 
ATOM      9  C   UNL     1       5.224   6.635  16.743  0.00  0.00    +0.000 A 
ATOM     10  C   UNL     1       4.087   6.686  17.688  0.00  0.00    +0.000 A 
ENDROOT
BRANCH   4  11
ATOM     11  C   UNL     1       2.512   4.256  17.651  0.00  0.00    +0.000 C 
ATOM     12  O   UNL     1       3.200   3.654  16.842  0.00  0.00    +0.000 OA
BRANCH  11  13
ATOM     13  O   UNL     1       1.183   4.463  17.445  0.00  0.00    +0.000 OA
ATOM     14  H   UNL     1       0.950   4.818  16.566  0.00  0.00    +0.000 HD
ENDBRANCH  11  13
ENDBRANCH   4  11
BRANCH   7  15
ATOM     15  O   UNL     1       7.857   4.992  18.679  0.00  0.00    +0.000 OA
ATOM     16  C   UNL     1       8.378   5.563  19.877  0.00  0.00    +0.000 C 
ENDBRANCH   7  15
BRANCH   8  17
ATOM     17  O   UNL     1       7.228   5.548  15.903  0.00  0.00    +0.000 OA
ATOM     18  C   UNL     1       6.799   4.513  14.965  0.00  0.00    +0.000 C 
ENDBRANCH   8  17
BRANCH   1  19
ATOM     19  C   UNL     1       2.498   8.911  17.823  0.00  0.00    +0.000 C 
BRANCH  19  23
ATOM     20  C   UNL     1      -1.340  10.859  18.909  0.00  0.00    +0.000 A 
ATOM     21  C   UNL     1      -1.264   9.986  17.789  0.00  0.00    +0.000 A 
ATOM     22  C   UNL     1      -0.045   9.333  17.444  0.00  0.00    +0.000 A 
ATOM     23  C   UNL     1       1.121   9.530  18.172  0.00  0.00    +0.000 A 
ATOM     24  C   UNL     1       1.007  10.352  19.325  0.00  0.00    +0.000 A 
ATOM     25  C   UNL     1      -0.202  11.023  19.665  0.00  0.00    +0.000 A 
BRANCH  20  27
ATOM     26  C   UNL     1      -3.574  11.556  18.339  0.00  0.00    +0.000 C 
ATOM     27  O   UNL     1      -2.477  11.556  19.230  0.00  0.00    +0.000 OA
ENDBRANCH  20  27
BRANCH  25  28
ATOM     28  O   UNL     1      -0.055  11.801  20.812  0.00  0.00    +0.000 OA
ATOM     29  C   UNL     1       0.968  12.794  20.852  0.00  0.00    +0.000 C 
ENDBRANCH  25  28
ENDBRANCH  19  23
ENDBRANCH   1  19
TORSDOF 8
ENDMDL
MODEL 4
REMARK VINA RESULT:      -7.4      1.211      2.117
REMARK  Name = 
REMARK  12 active torsions:
REMARK  status: ('A' for Active; 'I' for Inactive)
REMARK    1  A    between atoms: C_1  and  O_2
REMARK    2  A    between atoms: O_2  and  C_3
REMARK    3  A    between atoms: C_6  and  C_7
REMARK    4  A    between atoms: C_7  and  C_8
REMARK    5  A    between atoms: C_11  and  C_12
REMARK    6  A    between atoms: C_12  and  O_14
REMARK    7  A    between atoms: C_17  and  O_18
REMARK    8  A    between atoms: O_18  and  C_19
REMARK    9  A    between atoms: C_20  and  O_21
REMARK   10  A    between atoms: O_21  and  C_22
REMARK   11  A    between atoms: C_26  and  O_27
REMARK   12  A    between atoms: O_27  and  C_28
REMARK                            x       y       z     vdW  Elec       q    Type
REMARK                         _______ _______ _______ _____ _____    ______ ____
ROOT
ATOM      1  C   UNL     1       2.822   7.462  18.046  0.00  0.00    +0.000 A 
ATOM      2  N   UNL     1       1.972   6.997  19.044  0.00  0.00    +0.000 NA
ATOM      3  C   UNL     1       2.203   5.783  19.553  0.00  0.00    +0.000 A 
ATOM      4  C   UNL     1       3.056   4.959  18.938  0.00  0.00    +0.000 A 
ATOM      5  C   UNL     1       4.201   5.631  18.546  0.00  0.00    +0.000 A 
ATOM      6  C   UNL     1       5.437   5.228  19.064  0.00  0.00    +0.000 A 
ATOM      7  C   UNL     1       6.578   5.337  18.286  0.00  0.00    +0.000 A 
ATOM      8  C   UNL     1       6.373   5.777  16.982  0.00  0.00    +0.000 A 
ATOM      9  C   UNL     1       5.214   6.603  16.736  0.00  0.00    +0.000 A 
ATOM     10  C   UNL     1       4.075   6.692  17.675  0.00  0.00    +0.000 A 
ENDROOT
BRANCH   4  11
ATOM     11  C   UNL     1       2.459   4.288  17.679  0.00  0.00    +0.000 C 
ATOM     12  O   UNL     1       3.128   3.610  16.916  0.00  0.00    +0.000 OA
BRANCH  11  13
ATOM     13  O   UNL     1       1.151   4.570  17.427  0.00  0.00    +0.000 OA
ATOM     14  H   UNL     1       0.586   3.792  17.257  0.00  0.00    +0.000 HD
ENDBRANCH  11  13
ENDBRANCH   4  11
BRANCH   7  15
ATOM     15  O   UNL     1       7.812   4.954  18.713  0.00  0.00    +0.000 OA
ATOM     16  C   UNL     1       8.336   5.533  19.906  0.00  0.00    +0.000 C 
ENDBRANCH   7  15
BRANCH   8  17
ATOM     17  O   UNL     1       7.202   5.466  15.925  0.00  0.00    +0.000 OA
ATOM     18  C   UNL     1       6.777   4.393  15.028  0.00  0.00    +0.000 C 
ENDBRANCH   8  17
BRANCH   1  19
ATOM     19  C   UNL     1       2.523   8.945  17.761  0.00  0.00    +0.000 C 
BRANCH  19  23
ATOM     20  C   UNL     1      -1.291  10.779  19.102  0.00  0.00    +0.000 A 
ATOM     21  C   UNL     1      -0.097  10.962  19.854  0.00  0.00    +0.000 A 
ATOM     22  C   UNL     1       1.140  10.401  19.422  0.00  0.00    +0.000 A 
ATOM     23  C   UNL     1       1.233   9.642  18.262  0.00  0.00    +0.000 A 
ATOM     24  C   UNL     1       0.045   9.529  17.492  0.00  0.00    +0.000 A 
ATOM     25  C   UNL     1      -1.199  10.069  17.927  0.00  0.00    +0.000 A 
BRANCH  20  27
ATOM     26  C   UNL     1      -2.601  12.519  20.130  0.00  0.00    +0.000 C 
ATOM     27  O   UNL     1      -2.510  11.246  19.521  0.00  0.00    +0.000 OA
ENDBRANCH  20  27
BRANCH  25  28
ATOM     28  O   UNL     1      -2.225   9.794  17.024  0.00  0.00    +0.000 OA
ATOM     29  C   UNL     1      -2.610  10.796  16.084  0.00  0.00    +0.000 C 
ENDBRANCH  25  28
ENDBRANCH  19  23
ENDBRANCH   1  19
TORSDOF 8
ENDMDL
MODEL 5
REMARK VINA RESULT:      -7.4      0.887      1.730
REMARK  Name = 
REMARK  12 active torsions:
REMARK  status: ('A' for Active; 'I' for Inactive)
REMARK    1  A    between atoms: C_1  and  O_2
REMARK    2  A    between atoms: O_2  and  C_3
REMARK    3  A    between atoms: C_6  and  C_7
REMARK    4  A    between atoms: C_7  and  C_8
REMARK    5  A    between atoms: C_11  and  C_12
REMARK    6  A    between atoms: C_12  and  O_14
REMARK    7  A    between atoms: C_17  and  O_18
REMARK    8  A    between atoms: O_18  and  C_19
REMARK    9  A    between atoms: C_20  and  O_21
REMARK   10  A    between atoms: O_21  and  C_22
REMARK   11  A    between atoms: C_26  and  O_27
REMARK   12  A    between atoms: O_27  and  C_28
REMARK                            x       y       z     vdW  Elec       q    Type
REMARK                         _______ _______ _______ _____ _____    ______ ____
ROOT
ATOM      1  C   UNL     1       2.675   7.107  18.127  0.00  0.00    +0.000 A 
ATOM      2  N   UNL     1       1.894   6.495  19.104  0.00  0.00    +0.000 NA
ATOM      3  C   UNL     1       2.278   5.297  19.557  0.00  0.00    +0.000 A 
ATOM      4  C   UNL     1       3.223   4.615  18.905  0.00  0.00    +0.000 A 
ATOM      5  C   UNL     1       4.273   5.441  18.545  0.00  0.00    +0.000 A 
ATOM      6  C   UNL     1       5.553   5.173  19.044  0.00  0.00    +0.000 A 
ATOM      7  C   UNL     1       6.668   5.457  18.273  0.00  0.00    +0.000 A 
ATOM      8  C   UNL     1       6.402   5.927  16.990  0.00  0.00    +0.000 A 
ATOM      9  C   UNL     1       5.148   6.612  16.781  0.00  0.00    +0.000 A 
ATOM     10  C   UNL     1       4.012   6.516  17.722  0.00  0.00    +0.000 A 
ENDROOT
BRANCH   4  11
ATOM     11  C   UNL     1       2.708   3.932  17.617  0.00  0.00    +0.000 C 
ATOM     12  O   UNL     1       3.455   3.407  16.808  0.00  0.00    +0.000 OA
BRANCH  11  13
ATOM     13  O   UNL     1       1.368   4.026  17.398  0.00  0.00    +0.000 OA
ATOM     14  H   UNL     1       0.834   3.305  17.782  0.00  0.00    +0.000 HD
ENDBRANCH  11  13
ENDBRANCH   4  11
BRANCH   7  15
ATOM     15  O   UNL     1       7.941   5.212  18.682  0.00  0.00    +0.000 OA
ATOM     16  C   UNL     1       8.291   5.485  20.037  0.00  0.00    +0.000 C 
ENDBRANCH   7  15
BRANCH   8  17
ATOM     17  O   UNL     1       7.258   5.769  15.919  0.00  0.00    +0.000 OA
ATOM     18  C   UNL     1       7.002   4.654  15.010  0.00  0.00    +0.000 C 
ENDBRANCH   8  17
BRANCH   1  19
ATOM     19  C   UNL     1       2.192   8.552  17.910  0.00  0.00    +0.000 C 
BRANCH  19  23
ATOM     20  C   UNL     1      -0.384  10.765  20.770  0.00  0.00    +0.000 A 
ATOM     21  C   UNL     1       0.468   9.720  21.223  0.00  0.00    +0.000 A 
ATOM     22  C   UNL     1       1.320   9.019  20.321  0.00  0.00    +0.000 A 
ATOM     23  C   UNL     1       1.346   9.311  18.964  0.00  0.00    +0.000 A 
ATOM     24  C   UNL     1       0.538  10.402  18.544  0.00  0.00    +0.000 A 
ATOM     25  C   UNL     1      -0.330  11.093  19.435  0.00  0.00    +0.000 A 
BRANCH  20  27
ATOM     26  C   UNL     1      -1.268  11.128  22.980  0.00  0.00    +0.000 C 
ATOM     27  O   UNL     1      -1.265  11.414  21.596  0.00  0.00    +0.000 OA
ENDBRANCH  20  27
BRANCH  25  28
ATOM     28  O   UNL     1      -1.049  12.094  18.782  0.00  0.00    +0.000 OA
ATOM     29  C   UNL     1      -0.460  13.385  18.630  0.00  0.00    +0.000 C 
ENDBRANCH  25  28
ENDBRANCH  19  23
ENDBRANCH   1  19
TORSDOF 8
ENDMDL
MODEL 6
REMARK VINA RESULT:      -7.3      3.004      8.706
REMARK  Name = 
REMARK  12 active torsions:
REMARK  status: ('A' for Active; 'I' for Inactive)
REMARK    1  A    between atoms: C_1  and  O_2
REMARK    2  A    between atoms: O_2  and  C_3
REMARK    3  A    between atoms: C_6  and  C_7
REMARK    4  A    between atoms: C_7  and  C_8
REMARK    5  A    between atoms: C_11  and  C_12
REMARK    6  A    between atoms: C_12  and  O_14
REMARK    7  A    between atoms: C_17  and  O_18
REMARK    8  A    between atoms: O_18  and  C_19
REMARK    9  A    between atoms: C_20  and  O_21
REMARK   10  A    between atoms: O_21  and  C_22
REMARK   11  A    between atoms: C_26  and  O_27
REMARK   12  A    between atoms: O_27  and  C_28
REMARK                            x       y       z     vdW  Elec       q    Type
REMARK                         _______ _______ _______ _____ _____    ______ ____
ROOT
ATOM      1  C   UNL     1      -0.135  10.658  20.251  0.00  0.00    +0.000 A 
ATOM      2  N   UNL     1       0.034  11.778  21.060  0.00  0.00    +0.000 NA
ATOM      3  C   UNL     1      -0.641  12.888  20.746  0.00  0.00    +0.000 A 
ATOM      4  C   UNL     1      -1.243  12.983  19.558  0.00  0.00    +0.000 A 
ATOM      5  C   UNL     1      -1.912  11.813  19.245  0.00  0.00    +0.000 A 
ATOM      6  C   UNL     1      -3.298  11.851  19.052  0.00  0.00    +0.000 A 
ATOM      7  C   UNL     1      -3.891  10.995  18.139  0.00  0.00    +0.000 A 
ATOM      8  C   UNL     1      -3.013  10.201  17.408  0.00  0.00    +0.000 A 
ATOM      9  C   UNL     1      -1.740   9.889  18.013  0.00  0.00    +0.000 A 
ATOM     10  C   UNL     1      -1.187  10.644  19.158  0.00  0.00    +0.000 A 
ENDROOT
BRANCH   4  11
ATOM     11  C   UNL     1      -0.266  13.283  18.398  0.00  0.00    +0.000 C 
ATOM     12  O   UNL     1       0.863  13.707  18.584  0.00  0.00    +0.000 OA
BRANCH  11  13
ATOM     13  O   UNL     1      -0.772  13.122  17.145  0.00  0.00    +0.000 OA
ATOM     14  H   UNL     1      -1.140  13.930  16.740  0.00  0.00    +0.000 HD
ENDBRANCH  11  13
ENDBRANCH   4  11
BRANCH   7  15
ATOM     15  O   UNL     1      -5.227  10.983  17.885  0.00  0.00    +0.000 OA
ATOM     16  C   UNL     1      -5.824  12.134  17.294  0.00  0.00    +0.000 C 
ENDBRANCH   7  15
BRANCH   8  17
ATOM     17  O   UNL     1      -3.287   9.707  16.149  0.00  0.00    +0.000 OA
ATOM     18  C   UNL     1      -3.032  10.587  15.010  0.00  0.00    +0.000 C 
ENDBRANCH   8  17
BRANCH   1  19
ATOM     19  C   UNL     1       0.544   9.441  20.905  0.00  0.00    +0.000 C 
BRANCH  19  23
ATOM     20  C   UNL     1       2.779   6.324  18.670  0.00  0.00    +0.000 A 
ATOM     21  C   UNL     1       2.534   7.597  18.085  0.00  0.00    +0.000 A 
ATOM     22  C   UNL     1       1.841   8.616  18.801  0.00  0.00    +0.000 A 
ATOM     23  C   UNL     1       1.362   8.409  20.088  0.00  0.00    +0.000 A 
ATOM     24  C   UNL     1       1.677   7.156  20.678  0.00  0.00    +0.000 A 
ATOM     25  C   UNL     1       2.351   6.126  19.963  0.00  0.00    +0.000 A 
BRANCH  20  27
ATOM     26  C   UNL     1       2.591   4.264  17.436  0.00  0.00    +0.000 C 
ATOM     27  O   UNL     1       3.382   5.298  17.988  0.00  0.00    +0.000 OA
ENDBRANCH  20  27
BRANCH  25  28
ATOM     28  O   UNL     1       2.507   4.977  20.738  0.00  0.00    +0.000 OA
ATOM     29  C   UNL     1       1.419   4.062  20.850  0.00  0.00    +0.000 C 
ENDBRANCH  25  28
ENDBRANCH  19  23
ENDBRANCH   1  19
TORSDOF 8
ENDMDL
MODEL 7
REMARK VINA RESULT:      -7.3      1.467      2.043
REMARK  Name = 
REMARK  12 active torsions:
REMARK  status: ('A' for Active; 'I' for Inactive)
REMARK    1  A    between atoms: C_1  and  O_2
REMARK    2  A    between atoms: O_2  and  C_3
REMARK    3  A    between atoms: C_6  and  C_7
REMARK    4  A    between atoms: C_7  and  C_8
REMARK    5  A    between atoms: C_11  and  C_12
REMARK    6  A    between atoms: C_12  and  O_14
REMARK    7  A    between atoms: C_17  and  O_18
REMARK    8  A    between atoms: O_18  and  C_19
REMARK    9  A    between atoms: C_20  and  O_21
REMARK   10  A    between atoms: O_21  and  C_22
REMARK   11  A    between atoms: C_26  and  O_27
REMARK   12  A    between atoms: O_27  and  C_28
REMARK                            x       y       z     vdW  Elec       q    Type
REMARK                         _______ _______ _______ _____ _____    ______ ____
ROOT
ATOM      1  C   UNL     1       2.118   5.786  20.227  0.00  0.00    +0.000 A 
ATOM      2  N   UNL     1       1.619   4.665  20.882  0.00  0.00    +0.000 NA
ATOM      3  C   UNL     1       2.040   3.461  20.480  0.00  0.00    +0.000 A 
ATOM      4  C   UNL     1       2.708   3.344  19.329  0.00  0.00    +0.000 A 
ATOM      5  C   UNL     1       3.658   4.342  19.203  0.00  0.00    +0.000 A 
ATOM      6  C   UNL     1       5.007   3.987  19.094  0.00  0.00    +0.000 A 
ATOM      7  C   UNL     1       5.865   4.762  18.329  0.00  0.00    +0.000 A 
ATOM      8  C   UNL     1       5.267   5.816  17.646  0.00  0.00    +0.000 A 
ATOM      9  C   UNL     1       4.054   6.366  18.203  0.00  0.00    +0.000 A 
ATOM     10  C   UNL     1       3.238   5.655  19.212  0.00  0.00    +0.000 A 
ENDROOT
BRANCH   4  11
ATOM     11  C   UNL     1       1.796   3.412  18.083  0.00  0.00    +0.000 C 
ATOM     12  O   UNL     1       0.577   3.409  18.159  0.00  0.00    +0.000 OA
BRANCH  11  13
ATOM     13  O   UNL     1       2.437   3.390  16.883  0.00  0.00    +0.000 OA
ATOM     14  H   UNL     1       2.011   2.844  16.195  0.00  0.00    +0.000 HD
ENDBRANCH  11  13
ENDBRANCH   4  11
BRANCH   7  15
ATOM     15  O   UNL     1       7.184   4.474  18.164  0.00  0.00    +0.000 OA
ATOM     16  C   UNL     1       8.151   5.282  18.832  0.00  0.00    +0.000 C 
ENDBRANCH   7  15
BRANCH   8  17
ATOM     17  O   UNL     1       5.761   6.354  16.475  0.00  0.00    +0.000 OA
ATOM     18  C   UNL     1       5.571   5.584  15.247  0.00  0.00    +0.000 C 
ENDBRANCH   8  17
BRANCH   1  19
ATOM     19  C   UNL     1       1.688   7.059  20.979  0.00  0.00    +0.000 C 
BRANCH  19  23
ATOM     20  C   UNL     1       0.235  10.793  19.068  0.00  0.00    +0.000 A 
ATOM     21  C   UNL     1       1.058   9.884  18.346  0.00  0.00    +0.000 A 
ATOM     22  C   UNL     1       1.510   8.670  18.938  0.00  0.00    +0.000 A 
ATOM     23  C   UNL     1       1.183   8.326  20.243  0.00  0.00    +0.000 A 
ATOM     24  C   UNL     1       0.306   9.213  20.922  0.00  0.00    +0.000 A 
ATOM     25  C   UNL     1      -0.134  10.438  20.345  0.00  0.00    +0.000 A 
BRANCH  20  27
ATOM     26  C   UNL     1      -1.421  12.113  17.922  0.00  0.00    +0.000 C 
ATOM     27  O   UNL     1      -0.162  12.001  18.555  0.00  0.00    +0.000 OA
ENDBRANCH  20  27
BRANCH  25  28
ATOM     28  O   UNL     1      -0.952  11.155  21.217  0.00  0.00    +0.000 OA
ATOM     29  C   UNL     1      -0.790  10.979  22.623  0.00  0.00    +0.000 C 
ENDBRANCH  25  28
ENDBRANCH  19  23
ENDBRANCH   1  19
TORSDOF 8
ENDMDL
MODEL 8
REMARK VINA RESULT:      -7.2      2.593      8.559
REMARK  Name = 
REMARK  12 active torsions:
REMARK  status: ('A' for Active; 'I' for Inactive)
REMARK    1  A    between atoms: C_1  and  O_2
REMARK    2  A    between atoms: O_2  and  C_3
REMARK    3  A    between atoms: C_6  and  C_7
REMARK    4  A    between atoms: C_7  and  C_8
REMARK    5  A    between atoms: C_11  and  C_12
REMARK    6  A    between atoms: C_12  and  O_14
REMARK    7  A    between atoms: C_17  and  O_18
REMARK    8  A    between atoms: O_18  and  C_19
REMARK    9  A    between atoms: C_20  and  O_21
REMARK   10  A    between atoms: O_21  and  C_22
REMARK   11  A    between atoms: C_26  and  O_27
REMARK   12  A    between atoms: O_27  and  C_28
REMARK                            x       y       z     vdW  Elec       q    Type
REMARK                         _______ _______ _______ _____ _____    ______ ____
ROOT
ATOM      1  C   UNL     1       0.400  10.060  20.383  0.00  0.00    +0.000 A 
ATOM      2  N   UNL     1       0.631  10.813  21.530  0.00  0.00    +0.000 NA
ATOM      3  C   UNL     1       0.131  12.052  21.581  0.00  0.00    +0.000 A 
ATOM      4  C   UNL     1      -0.342  12.621  20.469  0.00  0.00    +0.000 A 
ATOM      5  C   UNL     1      -1.119  11.731  19.748  0.00  0.00    +0.000 A 
ATOM      6  C   UNL     1      -2.465  12.035  19.517  0.00  0.00    +0.000 A 
ATOM      7  C   UNL     1      -3.073  11.626  18.341  0.00  0.00    +0.000 A 
ATOM      8  C   UNL     1      -2.236  10.995  17.425  0.00  0.00    +0.000 A 
ATOM      9  C   UNL     1      -1.073  10.317  17.946  0.00  0.00    +0.000 A 
ATOM     10  C   UNL     1      -0.539  10.562  19.303  0.00  0.00    +0.000 A 
ENDROOT
BRANCH   4  11
ATOM     11  C   UNL     1       0.768  13.137  19.525  0.00  0.00    +0.000 C 
ATOM     12  O   UNL     1       0.533  13.556  18.403  0.00  0.00    +0.000 OA
BRANCH  11  13
ATOM     13  O   UNL     1       2.040  13.019  19.993  0.00  0.00    +0.000 OA
ATOM     14  H   UNL     1       2.121  12.602  20.872  0.00  0.00    +0.000 HD
ENDBRANCH  11  13
ENDBRANCH   4  11
BRANCH   7  15
ATOM     15  O   UNL     1      -4.371  11.895  18.038  0.00  0.00    +0.000 OA
ATOM     16  C   UNL     1      -5.348  10.876  18.239  0.00  0.00    +0.000 C 
ENDBRANCH   7  15
BRANCH   8  17
ATOM     17  O   UNL     1      -2.452  10.990  16.062  0.00  0.00    +0.000 OA
ATOM     18  C   UNL     1      -2.980   9.764  15.468  0.00  0.00    +0.000 C 
ENDBRANCH   8  17
BRANCH   1  19
ATOM     19  C   UNL     1       0.860   8.610  20.616  0.00  0.00    +0.000 C 
BRANCH  19  23
ATOM     20  C   UNL     1       3.647   6.367  17.987  0.00  0.00    +0.000 A 
ATOM     21  C   UNL     1       3.168   7.651  17.605  0.00  0.00    +0.000 A 
ATOM     22  C   UNL     1       2.293   8.393  18.450  0.00  0.00    +0.000 A 
ATOM     23  C   UNL     1       1.860   7.895  19.672  0.00  0.00    +0.000 A 
ATOM     24  C   UNL     1       2.404   6.643  20.065  0.00  0.00    +0.000 A 
ATOM     25  C   UNL     1       3.262   5.886  19.217  0.00  0.00    +0.000 A 
BRANCH  20  27
ATOM     26  C   UNL     1       5.128   6.197  16.095  0.00  0.00    +0.000 C 
ATOM     27  O   UNL     1       4.435   5.596  17.171  0.00  0.00    +0.000 OA
ENDBRANCH  20  27
BRANCH  25  28
ATOM     28  O   UNL     1       3.631   4.677  19.805  0.00  0.00    +0.000 OA
ATOM     29  C   UNL     1       2.738   3.567  19.730  0.00  0.00    +0.000 C 
ENDBRANCH  25  28
ENDBRANCH  19  23
ENDBRANCH   1  19
TORSDOF 8
ENDMDL
MODEL 9
REMARK VINA RESULT:      -7.2      1.839      4.290
REMARK  Name = 
REMARK  12 active torsions:
REMARK  status: ('A' for Active; 'I' for Inactive)
REMARK    1  A    between atoms: C_1  and  O_2
REMARK    2  A    between atoms: O_2  and  C_3
REMARK    3  A    between atoms: C_6  and  C_7
REMARK    4  A    between atoms: C_7  and  C_8
REMARK    5  A    between atoms: C_11  and  C_12
REMARK    6  A    between atoms: C_12  and  O_14
REMARK    7  A    between atoms: C_17  and  O_18
REMARK    8  A    between atoms: O_18  and  C_19
REMARK    9  A    between atoms: C_20  and  O_21
REMARK   10  A    between atoms: O_21  and  C_22
REMARK   11  A    between atoms: C_26  and  O_27
REMARK   12  A    between atoms: O_27  and  C_28
REMARK                            x       y       z     vdW  Elec       q    Type
REMARK                         _______ _______ _______ _____ _____    ______ ____
ROOT
ATOM      1  C   UNL     1       3.849   7.004  17.605  0.00  0.00    +0.000 A 
ATOM      2  N   UNL     1       4.697   7.085  16.505  0.00  0.00    +0.000 NA
ATOM      3  C   UNL     1       5.532   6.066  16.277  0.00  0.00    +0.000 A 
ATOM      4  C   UNL     1       5.716   5.138  17.220  0.00  0.00    +0.000 A 
ATOM      5  C   UNL     1       4.511   4.761  17.788  0.00  0.00    +0.000 A 
ATOM      6  C   UNL     1       4.100   3.427  17.687  0.00  0.00    +0.000 A 
ATOM      7  C   UNL     1       3.363   2.854  18.711  0.00  0.00    +0.000 A 
ATOM      8  C   UNL     1       3.161   3.662  19.826  0.00  0.00    +0.000 A 
ATOM      9  C   UNL     1       3.178   5.091  19.621  0.00  0.00    +0.000 A 
ATOM     10  C   UNL     1       3.749   5.724  18.413  0.00  0.00    +0.000 A 
ENDROOT
BRANCH   4  11
ATOM     11  C   UNL     1       6.642   5.605  18.366  0.00  0.00    +0.000 C 
ATOM     12  O   UNL     1       6.735   5.001  19.423  0.00  0.00    +0.000 OA
BRANCH  11  13
ATOM     13  O   UNL     1       7.289   6.784  18.157  0.00  0.00    +0.000 OA
ATOM     14  H   UNL     1       6.720   7.576  18.167  0.00  0.00    +0.000 HD
ENDBRANCH  11  13
ENDBRANCH   4  11
BRANCH   7  15
ATOM     15  O   UNL     1       2.940   1.561  18.693  0.00  0.00    +0.000 OA
ATOM     16  C   UNL     1       1.541   1.299  18.614  0.00  0.00    +0.000 C 
ENDBRANCH   7  15
BRANCH   8  17
ATOM     17  O   UNL     1       2.955   3.177  21.101  0.00  0.00    +0.000 OA
ATOM     18  C   UNL     1       1.592   3.215  21.625  0.00  0.00    +0.000 C 
ENDBRANCH   8  17
BRANCH   1  19
ATOM     19  C   UNL     1       2.830   8.157  17.558  0.00  0.00    +0.000 C 
BRANCH  19  23
ATOM     20  C   UNL     1       0.257   9.414  20.951  0.00  0.00    +0.000 A 
ATOM     21  C   UNL     1       1.133   8.301  21.081  0.00  0.00    +0.000 A 
ATOM     22  C   UNL     1       1.983   7.902  20.010  0.00  0.00    +0.000 A 
ATOM     23  C   UNL     1       1.985   8.568  18.791  0.00  0.00    +0.000 A 
ATOM     24  C   UNL     1       1.153   9.717  18.705  0.00  0.00    +0.000 A 
ATOM     25  C   UNL     1       0.286  10.109  19.764  0.00  0.00    +0.000 A 
BRANCH  20  27
ATOM     26  C   UNL     1      -0.239   9.685  23.292  0.00  0.00    +0.000 C 
ATOM     27  O   UNL     1      -0.623   9.784  21.935  0.00  0.00    +0.000 OA
ENDBRANCH  20  27
BRANCH  25  28
ATOM     28  O   UNL     1      -0.458  11.239  19.428  0.00  0.00    +0.000 OA
ATOM     29  C   UNL     1      -1.680  11.078  18.711  0.00  0.00    +0.000 C 
ENDBRANCH  25  28
ENDBRANCH  19  23
ENDBRANCH   1  19
TORSDOF 8
ENDMDL
