MODEL 1
REMARK VINA RESULT:      -7.8      0.000      0.000
REMARK  Name = 
REMARK  7 active torsions:
REMARK  status: ('A' for Active; 'I' for Inactive)
REMARK    1  A    between atoms: C_1  and  C_2
REMARK    2  A    between atoms: C_4  and  C_5
REMARK    3  A    between atoms: N_6  and  C_7
REMARK    4  A    between atoms: C_7  and  C_8
REMARK    5  A    between atoms: N_10  and  C_11
REMARK    6  A    between atoms: C_11  and  C_12
REMARK    7  A    between atoms: C_20  and  C_21
REMARK                            x       y       z     vdW  Elec       q    Type
REMARK                         _______ _______ _______ _____ _____    ______ ____
ROOT
ATOM      1  C   UNL     1       7.541   5.916  17.824  0.00  0.00    +0.000 C 
ENDROOT
BRANCH   1   7
ATOM      2  C   UNL     1       2.860   2.560  17.234  0.00  0.00    +0.000 C 
ATOM      3  C   UNL     1       4.049   3.460  17.454  0.00  0.00    +0.000 A 
ATOM      4  C   UNL     1       4.941   3.682  16.329  0.00  0.00    +0.000 A 
ATOM      5  C   UNL     1       6.021   4.477  16.425  0.00  0.00    +0.000 A 
ATOM      6  C   UNL     1       6.925   4.651  15.234  0.00  0.00    +0.000 C 
ATOM      7  N   UNL     1       6.322   5.119  17.640  0.00  0.00    +0.000 N 
ATOM      8  C   UNL     1       5.516   4.939  18.776  0.00  0.00    +0.000 A 
ATOM      9  O   UNL     1       5.783   5.459  19.860  0.00  0.00    +0.000 OA
ATOM     10  C   UNL     1       4.318   4.064  18.630  0.00  0.00    +0.000 A 
BRANCH  10  11
ATOM     11  C   UNL     1       3.478   3.871  19.773  0.00  0.00    +0.000 C 
ATOM     12  N   UNL     1       2.796   3.644  20.685  0.00  0.00    +0.000 NA
ENDBRANCH  10  11
ENDBRANCH   1   7
BRANCH   1  13
ATOM     13  C   UNL     1       7.428   7.427  17.567  0.00  0.00    +0.000 C 
ATOM     14  O   UNL     1       6.604   7.880  16.770  0.00  0.00    +0.000 OA
ATOM     15  N   UNL     1       8.294   8.253  18.256  0.00  0.00    +0.000 N 
ATOM     16  H   UNL     1       8.973   7.873  18.909  0.00  0.00    +0.000 HD
BRANCH  15  17
ATOM     17  C   UNL     1       8.307   9.670  17.943  0.00  0.00    +0.000 C 
BRANCH  17  18
ATOM     18  C   UNL     1       9.392  10.459  18.629  0.00  0.00    +0.000 A 
ATOM     19  C   UNL     1      10.421  11.062  17.887  0.00  0.00    +0.000 A 
ATOM     20  C   UNL     1      11.383  11.857  18.516  0.00  0.00    +0.000 A 
ATOM     21  C   UNL     1      11.322  12.066  19.893  0.00  0.00    +0.000 A 
ATOM     22  C   UNL     1      10.298  11.483  20.637  0.00  0.00    +0.000 A 
ATOM     23  C   UNL     1       9.338  10.687  20.010  0.00  0.00    +0.000 A 
ENDBRANCH  17  18
ENDBRANCH  15  17
ENDBRANCH   1  13
TORSDOF 5
ENDMDL
MODEL 2
REMARK VINA RESULT:      -7.7      0.109      1.033
REMARK  Name = 
REMARK  7 active torsions:
REMARK  status: ('A' for Active; 'I' for Inactive)
REMARK    1  A    between atoms: C_1  and  C_2
REMARK    2  A    between atoms: C_4  and  C_5
REMARK    3  A    between atoms: N_6  and  C_7
REMARK    4  A    between atoms: C_7  and  C_8
REMARK    5  A    between atoms: N_10  and  C_11
REMARK    6  A    between atoms: C_11  and  C_12
REMARK    7  A    between atoms: C_20  and  C_21
REMARK                            x       y       z     vdW  Elec       q    Type
REMARK                         _______ _______ _______ _____ _____    ______ ____
ROOT
ATOM      1  C   UNL     1       7.494   5.929  17.884  0.00  0.00    +0.000 C 
ENDROOT
BRANCH   1   7
ATOM      2  C   UNL     1       2.819   2.572  17.252  0.00  0.00    +0.000 C 
ATOM      3  C   UNL     1       4.004   3.475  17.482  0.00  0.00    +0.000 A 
ATOM      4  C   UNL     1       4.928   3.664  16.377  0.00  0.00    +0.000 A 
ATOM      5  C   UNL     1       6.008   4.458  16.481  0.00  0.00    +0.000 A 
ATOM      6  C   UNL     1       6.946   4.597  15.312  0.00  0.00    +0.000 C 
ATOM      7  N   UNL     1       6.277   5.131  17.687  0.00  0.00    +0.000 N 
ATOM      8  C   UNL     1       5.439   4.984  18.804  0.00  0.00    +0.000 A 
ATOM      9  O   UNL     1       5.677   5.532  19.881  0.00  0.00    +0.000 OA
ATOM     10  C   UNL     1       4.242   4.109  18.648  0.00  0.00    +0.000 A 
BRANCH  10  11
ATOM     11  C   UNL     1       3.370   3.950  19.772  0.00  0.00    +0.000 C 
ATOM     12  N   UNL     1       2.703   3.869  20.719  0.00  0.00    +0.000 NA
ENDBRANCH  10  11
ENDBRANCH   1   7
BRANCH   1  13
ATOM     13  C   UNL     1       7.405   7.425  17.541  0.00  0.00    +0.000 C 
ATOM     14  O   UNL     1       6.598   7.844  16.709  0.00  0.00    +0.000 OA
ATOM     15  N   UNL     1       8.274   8.277  18.196  0.00  0.00    +0.000 N 
ATOM     16  H   UNL     1       8.938   7.925  18.878  0.00  0.00    +0.000 HD
BRANCH  15  17
ATOM     17  C   UNL     1       8.310   9.673  17.804  0.00  0.00    +0.000 C 
BRANCH  17  18
ATOM     18  C   UNL     1       9.316  10.512  18.550  0.00  0.00    +0.000 A 
ATOM     19  C   UNL     1       9.272  10.611  19.950  0.00  0.00    +0.000 A 
ATOM     20  C   UNL     1      10.252  11.326  20.646  0.00  0.00    +0.000 A 
ATOM     21  C   UNL     1      11.290  11.944  19.950  0.00  0.00    +0.000 A 
ATOM     22  C   UNL     1      11.350  11.842  18.561  0.00  0.00    +0.000 A 
ATOM     23  C   UNL     1      10.372  11.128  17.865  0.00  0.00    +0.000 A 
ENDBRANCH  17  18
ENDBRANCH  15  17
ENDBRANCH   1  13
TORSDOF 5
ENDMDL
MODEL 3
REMARK VINA RESULT:      -7.6      3.915      6.353
REMARK  Name = 
REMARK  7 active torsions:
REMARK  status: ('A' for Active; 'I' for Inactive)
REMARK    1  A    between atoms: C_1  and  C_2
REMARK    2  A    between atoms: C_4  and  C_5
REMARK    3  A    between atoms: N_6  and  C_7
REMARK    4  A    between atoms: C_7  and  C_8
REMARK    5  A    between atoms: N_10  and  C_11
REMARK    6  A    between atoms: C_11  and  C_12
REMARK    7  A    between atoms: C_20  and  C_21
REMARK                            x       y       z     vdW  Elec       q    Type
REMARK                         _______ _______ _______ _____ _____    ______ ____
ROOT
ATOM      1  C   UNL     1       3.528   3.695  20.096  0.00  0.00    +0.000 C 
ENDROOT
BRANCH   1   7
ATOM      2  C   UNL     1       5.609   4.707  14.788  0.00  0.00    +0.000 C 
ATOM      3  C   UNL     1       5.130   4.479  16.199  0.00  0.00    +0.000 A 
ATOM      4  C   UNL     1       4.046   3.532  16.396  0.00  0.00    +0.000 A 
ATOM      5  C   UNL     1       3.558   3.254  17.617  0.00  0.00    +0.000 A 
ATOM      6  C   UNL     1       2.416   2.284  17.760  0.00  0.00    +0.000 C 
ATOM      7  N   UNL     1       4.091   3.889  18.753  0.00  0.00    +0.000 N 
ATOM      8  C   UNL     1       5.129   4.828  18.641  0.00  0.00    +0.000 A 
ATOM      9  O   UNL     1       5.583   5.426  19.618  0.00  0.00    +0.000 OA
ATOM     10  C   UNL     1       5.657   5.100  17.273  0.00  0.00    +0.000 A 
BRANCH  10  11
ATOM     11  C   UNL     1       6.719   6.050  17.136  0.00  0.00    +0.000 C 
ATOM     12  N   UNL     1       7.621   6.780  17.069  0.00  0.00    +0.000 NA
ENDBRANCH  10  11
ENDBRANCH   1   7
BRANCH   1  13
ATOM     13  C   UNL     1       2.373   4.623  20.505  0.00  0.00    +0.000 C 
ATOM     14  O   UNL     1       1.244   4.178  20.725  0.00  0.00    +0.000 OA
ATOM     15  N   UNL     1       2.649   5.972  20.602  0.00  0.00    +0.000 N 
ATOM     16  H   UNL     1       3.579   6.332  20.415  0.00  0.00    +0.000 HD
BRANCH  15  17
ATOM     17  C   UNL     1       1.556   6.892  20.856  0.00  0.00    +0.000 C 
BRANCH  17  18
ATOM     18  C   UNL     1       1.548   8.120  19.983  0.00  0.00    +0.000 A 
ATOM     19  C   UNL     1       2.151   8.105  18.714  0.00  0.00    +0.000 A 
ATOM     20  C   UNL     1       2.076   9.219  17.874  0.00  0.00    +0.000 A 
ATOM     21  C   UNL     1       1.389  10.359  18.290  0.00  0.00    +0.000 A 
ATOM     22  C   UNL     1       0.776  10.382  19.541  0.00  0.00    +0.000 A 
ATOM     23  C   UNL     1       0.852   9.269  20.381  0.00  0.00    +0.000 A 
ENDBRANCH  17  18
ENDBRANCH  15  17
ENDBRANCH   1  13
TORSDOF 5
ENDMDL
MODEL 4
REMARK VINA RESULT:      -7.6      3.868      6.375
REMARK  Name = 
REMARK  7 active torsions:
REMARK  status: ('A' for Active; 'I' for Inactive)
REMARK    1  A    between atoms: C_1  and  C_2
REMARK    2  A    between atoms: C_4  and  C_5
REMARK    3  A    between atoms: N_6  and  C_7
REMARK    4  A    between atoms: C_7  and  C_8
REMARK    5  A    between atoms: N_10  and  C_11
REMARK    6  A    between atoms: C_11  and  C_12
REMARK    7  A    between atoms: C_20  and  C_21
REMARK                            x       y       z     vdW  Elec       q    Type
REMARK                         _______ _______ _______ _____ _____    ______ ____
ROOT
ATOM      1  C   UNL     1       3.756   3.600  20.076  0.00  0.00    +0.000 C 
ENDROOT
BRANCH   1   7
ATOM      2  C   UNL     1       5.665   4.790  14.741  0.00  0.00    +0.000 C 
ATOM      3  C   UNL     1       5.231   4.517  16.158  0.00  0.00    +0.000 A 
ATOM      4  C   UNL     1       4.185   3.529  16.361  0.00  0.00    +0.000 A 
ATOM      5  C   UNL     1       3.738   3.210  17.588  0.00  0.00    +0.000 A 
ATOM      6  C   UNL     1       2.634   2.198  17.739  0.00  0.00    +0.000 C 
ATOM      7  N   UNL     1       4.278   3.841  18.724  0.00  0.00    +0.000 N 
ATOM      8  C   UNL     1       5.279   4.818  18.606  0.00  0.00    +0.000 A 
ATOM      9  O   UNL     1       5.737   5.411  19.583  0.00  0.00    +0.000 OA
ATOM     10  C   UNL     1       5.762   5.135  17.232  0.00  0.00    +0.000 A 
BRANCH  10  11
ATOM     11  C   UNL     1       6.788   6.124  17.088  0.00  0.00    +0.000 C 
ATOM     12  N   UNL     1       7.667   6.878  16.996  0.00  0.00    +0.000 NA
ENDBRANCH  10  11
ENDBRANCH   1   7
BRANCH   1  13
ATOM     13  C   UNL     1       2.610   4.509  20.549  0.00  0.00    +0.000 C 
ATOM     14  O   UNL     1       1.548   4.037  20.959  0.00  0.00    +0.000 OA
ATOM     15  N   UNL     1       2.815   5.873  20.483  0.00  0.00    +0.000 N 
ATOM     16  H   UNL     1       3.691   6.255  20.141  0.00  0.00    +0.000 HD
BRANCH  15  17
ATOM     17  C   UNL     1       1.712   6.762  20.796  0.00  0.00    +0.000 C 
BRANCH  17  18
ATOM     18  C   UNL     1       1.590   7.961  19.892  0.00  0.00    +0.000 A 
ATOM     19  C   UNL     1       0.925   9.121  20.321  0.00  0.00    +0.000 A 
ATOM     20  C   UNL     1       0.880  10.259  19.511  0.00  0.00    +0.000 A 
ATOM     21  C   UNL     1       1.506  10.253  18.266  0.00  0.00    +0.000 A 
ATOM     22  C   UNL     1       2.179   9.111  17.834  0.00  0.00    +0.000 A 
ATOM     23  C   UNL     1       2.224   7.974  18.642  0.00  0.00    +0.000 A 
ENDBRANCH  17  18
ENDBRANCH  15  17
ENDBRANCH   1  13
TORSDOF 5
ENDMDL
MODEL 5
REMARK VINA RESULT:      -7.1      4.877      6.792
REMARK  Name = 
REMARK  7 active torsions:
REMARK  status: ('A' for Active; 'I' for Inactive)
REMARK    1  A    between atoms: C_1  and  C_2
REMARK    2  A    between atoms: C_4  and  C_5
REMARK    3  A    between atoms: N_6  and  C_7
REMARK    4  A    between atoms: C_7  and  C_8
REMARK    5  A    between atoms: N_10  and  C_11
REMARK    6  A    between atoms: C_11  and  C_12
REMARK    7  A    between atoms: C_20  and  C_21
REMARK                            x       y       z     vdW  Elec       q    Type
REMARK                         _______ _______ _______ _____ _____    ______ ____
ROOT
ATOM      1  C   UNL     1       3.951   3.673  18.575  0.00  0.00    +0.000 C 
ENDROOT
BRANCH   1   7
ATOM      2  C   UNL     1       1.075   8.135  20.887  0.00  0.00    +0.000 C 
ATOM      3  C   UNL     1       1.822   7.011  20.216  0.00  0.00    +0.000 A 
ATOM      4  C   UNL     1       1.926   5.752  20.934  0.00  0.00    +0.000 A 
ATOM      5  C   UNL     1       2.563   4.688  20.414  0.00  0.00    +0.000 A 
ATOM      6  C   UNL     1       2.663   3.416  21.213  0.00  0.00    +0.000 C 
ATOM      7  N   UNL     1       3.160   4.772  19.143  0.00  0.00    +0.000 N 
ATOM      8  C   UNL     1       3.116   5.961  18.397  0.00  0.00    +0.000 A 
ATOM      9  O   UNL     1       3.667   6.069  17.300  0.00  0.00    +0.000 OA
ATOM     10  C   UNL     1       2.388   7.115  18.997  0.00  0.00    +0.000 A 
BRANCH  10  11
ATOM     11  C   UNL     1       2.325   8.335  18.251  0.00  0.00    +0.000 C 
ATOM     12  N   UNL     1       2.217   9.298  17.609  0.00  0.00    +0.000 NA
ENDBRANCH  10  11
ENDBRANCH   1   7
BRANCH   1  13
ATOM     13  C   UNL     1       5.355   4.025  18.055  0.00  0.00    +0.000 C 
ATOM     14  O   UNL     1       6.264   4.333  18.829  0.00  0.00    +0.000 OA
ATOM     15  N   UNL     1       5.551   3.992  16.689  0.00  0.00    +0.000 N 
ATOM     16  H   UNL     1       4.797   3.740  16.057  0.00  0.00    +0.000 HD
BRANCH  15  17
ATOM     17  C   UNL     1       6.821   4.444  16.154  0.00  0.00    +0.000 C 
BRANCH  17  18
ATOM     18  C   UNL     1       6.930   4.389  14.652  0.00  0.00    +0.000 A 
ATOM     19  C   UNL     1       6.119   3.520  13.904  0.00  0.00    +0.000 A 
ATOM     20  C   UNL     1       6.166   3.525  12.507  0.00  0.00    +0.000 A 
ATOM     21  C   UNL     1       7.018   4.406  11.842  0.00  0.00    +0.000 A 
ATOM     22  C   UNL     1       7.818   5.281  12.574  0.00  0.00    +0.000 A 
ATOM     23  C   UNL     1       7.773   5.275  13.969  0.00  0.00    +0.000 A 
ENDBRANCH  17  18
ENDBRANCH  15  17
ENDBRANCH   1  13
TORSDOF 5
ENDMDL
MODEL 6
REMARK VINA RESULT:      -7.1      2.116      2.852
REMARK  Name = 
REMARK  7 active torsions:
REMARK  status: ('A' for Active; 'I' for Inactive)
REMARK    1  A    between atoms: C_1  and  C_2
REMARK    2  A    between atoms: C_4  and  C_5
REMARK    3  A    between atoms: N_6  and  C_7
REMARK    4  A    between atoms: C_7  and  C_8
REMARK    5  A    between atoms: N_10  and  C_11
REMARK    6  A    between atoms: C_11  and  C_12
REMARK    7  A    between atoms: C_20  and  C_21
REMARK                            x       y       z     vdW  Elec       q    Type
REMARK                         _______ _______ _______ _____ _____    ______ ____
ROOT
ATOM      1  C   UNL     1       5.069   6.606  16.220  0.00  0.00    +0.000 C 
ENDROOT
BRANCH   1   7
ATOM      2  C   UNL     1       1.430   3.981  19.879  0.00  0.00    +0.000 C 
ATOM      3  C   UNL     1       2.420   4.599  18.926  0.00  0.00    +0.000 A 
ATOM      4  C   UNL     1       2.359   6.038  18.734  0.00  0.00    +0.000 A 
ATOM      5  C   UNL     1       3.207   6.682  17.913  0.00  0.00    +0.000 A 
ATOM      6  C   UNL     1       3.082   8.171  17.732  0.00  0.00    +0.000 C 
ATOM      7  N   UNL     1       4.186   5.964  17.202  0.00  0.00    +0.000 N 
ATOM      8  C   UNL     1       4.295   4.569  17.323  0.00  0.00    +0.000 A 
ATOM      9  O   UNL     1       5.118   3.916  16.680  0.00  0.00    +0.000 OA
ATOM     10  C   UNL     1       3.350   3.890  18.254  0.00  0.00    +0.000 A 
BRANCH  10  11
ATOM     11  C   UNL     1       3.447   2.469  18.398  0.00  0.00    +0.000 C 
ATOM     12  N   UNL     1       3.570   1.315  18.456  0.00  0.00    +0.000 NA
ENDBRANCH  10  11
ENDBRANCH   1   7
BRANCH   1  13
ATOM     13  C   UNL     1       6.532   6.823  16.639  0.00  0.00    +0.000 C 
ATOM     14  O   UNL     1       7.411   6.017  16.329  0.00  0.00    +0.000 OA
ATOM     15  N   UNL     1       6.816   7.950  17.385  0.00  0.00    +0.000 N 
ATOM     16  H   UNL     1       6.086   8.608  17.639  0.00  0.00    +0.000 HD
BRANCH  15  17
ATOM     17  C   UNL     1       8.158   8.120  17.909  0.00  0.00    +0.000 C 
BRANCH  17  18
ATOM     18  C   UNL     1       8.508   9.532  18.301  0.00  0.00    +0.000 A 
ATOM     19  C   UNL     1       9.286   9.790  19.442  0.00  0.00    +0.000 A 
ATOM     20  C   UNL     1       9.675  11.094  19.761  0.00  0.00    +0.000 A 
ATOM     21  C   UNL     1       9.298  12.154  18.938  0.00  0.00    +0.000 A 
ATOM     22  C   UNL     1       8.537  11.909  17.797  0.00  0.00    +0.000 A 
ATOM     23  C   UNL     1       8.146  10.607  17.478  0.00  0.00    +0.000 A 
ENDBRANCH  17  18
ENDBRANCH  15  17
ENDBRANCH   1  13
TORSDOF 5
ENDMDL
MODEL 7
REMARK VINA RESULT:      -7.1      2.914      5.509
REMARK  Name = 
REMARK  7 active torsions:
REMARK  status: ('A' for Active; 'I' for Inactive)
REMARK    1  A    between atoms: C_1  and  C_2
REMARK    2  A    between atoms: C_4  and  C_5
REMARK    3  A    between atoms: N_6  and  C_7
REMARK    4  A    between atoms: C_7  and  C_8
REMARK    5  A    between atoms: N_10  and  C_11
REMARK    6  A    between atoms: C_11  and  C_12
REMARK    7  A    between atoms: C_20  and  C_21
REMARK                            x       y       z     vdW  Elec       q    Type
REMARK                         _______ _______ _______ _____ _____    ______ ____
ROOT
ATOM      1  C   UNL     1       3.117   3.782  18.633  0.00  0.00    +0.000 C 
ENDROOT
BRANCH   1   7
ATOM      2  C   UNL     1       1.106   8.680  20.975  0.00  0.00    +0.000 C 
ATOM      3  C   UNL     1       1.630   7.441  20.296  0.00  0.00    +0.000 A 
ATOM      4  C   UNL     1       1.576   6.194  21.040  0.00  0.00    +0.000 A 
ATOM      5  C   UNL     1       2.009   5.034  20.515  0.00  0.00    +0.000 A 
ATOM      6  C   UNL     1       1.953   3.777  21.340  0.00  0.00    +0.000 C 
ATOM      7  N   UNL     1       2.540   5.002  19.213  0.00  0.00    +0.000 N 
ATOM      8  C   UNL     1       2.641   6.169  18.440  0.00  0.00    +0.000 A 
ATOM      9  O   UNL     1       3.140   6.170  17.313  0.00  0.00    +0.000 OA
ATOM     10  C   UNL     1       2.136   7.434  19.046  0.00  0.00    +0.000 A 
BRANCH  10  11
ATOM     11  C   UNL     1       2.223   8.636  18.273  0.00  0.00    +0.000 C 
ATOM     12  N   UNL     1       2.222   9.619  17.655  0.00  0.00    +0.000 NA
ENDBRANCH  10  11
ENDBRANCH   1   7
BRANCH   1  13
ATOM     13  C   UNL     1       4.650   3.715  18.542  0.00  0.00    +0.000 C 
ATOM     14  O   UNL     1       5.335   3.394  19.515  0.00  0.00    +0.000 OA
ATOM     15  N   UNL     1       5.227   4.040  17.330  0.00  0.00    +0.000 N 
ATOM     16  H   UNL     1       4.657   4.306  16.533  0.00  0.00    +0.000 HD
BRANCH  15  17
ATOM     17  C   UNL     1       6.673   4.115  17.242  0.00  0.00    +0.000 C 
BRANCH  17  18
ATOM     18  C   UNL     1       7.260   5.452  17.615  0.00  0.00    +0.000 A 
ATOM     19  C   UNL     1       7.082   6.572  16.786  0.00  0.00    +0.000 A 
ATOM     20  C   UNL     1       7.560   7.828  17.170  0.00  0.00    +0.000 A 
ATOM     21  C   UNL     1       8.214   7.980  18.392  0.00  0.00    +0.000 A 
ATOM     22  C   UNL     1       8.386   6.879  19.228  0.00  0.00    +0.000 A 
ATOM     23  C   UNL     1       7.910   5.623  18.844  0.00  0.00    +0.000 A 
ENDBRANCH  17  18
ENDBRANCH  15  17
ENDBRANCH   1  13
TORSDOF 5
ENDMDL
MODEL 8
REMARK VINA RESULT:      -7.0      1.584      1.717
REMARK  Name = 
REMARK  7 active torsions:
REMARK  status: ('A' for Active; 'I' for Inactive)
REMARK    1  A    between atoms: C_1  and  C_2
REMARK    2  A    between atoms: C_4  and  C_5
REMARK    3  A    between atoms: N_6  and  C_7
REMARK    4  A    between atoms: C_7  and  C_8
REMARK    5  A    between atoms: N_10  and  C_11
REMARK    6  A    between atoms: C_11  and  C_12
REMARK    7  A    between atoms: C_20  and  C_21
REMARK                            x       y       z     vdW  Elec       q    Type
REMARK                         _______ _______ _______ _____ _____    ______ ____
ROOT
ATOM      1  C   UNL     1       5.685   6.689  16.437  0.00  0.00    +0.000 C 
ENDROOT
BRANCH   1   7
ATOM      2  C   UNL     1       2.473   2.184  18.143  0.00  0.00    +0.000 C 
ATOM      3  C   UNL     1       3.260   3.404  17.738  0.00  0.00    +0.000 A 
ATOM      4  C   UNL     1       4.236   3.249  16.672  0.00  0.00    +0.000 A 
ATOM      5  C   UNL     1       4.979   4.281  16.234  0.00  0.00    +0.000 A 
ATOM      6  C   UNL     1       5.993   4.058  15.145  0.00  0.00    +0.000 C 
ATOM      7  N   UNL     1       4.830   5.555  16.811  0.00  0.00    +0.000 N 
ATOM      8  C   UNL     1       3.920   5.778  17.856  0.00  0.00    +0.000 A 
ATOM      9  O   UNL     1       3.802   6.876  18.402  0.00  0.00    +0.000 OA
ATOM     10  C   UNL     1       3.101   4.616  18.306  0.00  0.00    +0.000 A 
BRANCH  10  11
ATOM     11  C   UNL     1       2.161   4.821  19.366  0.00  0.00    +0.000 C 
ATOM     12  N   UNL     1       1.419   5.058  20.228  0.00  0.00    +0.000 NA
ENDBRANCH  10  11
ENDBRANCH   1   7
BRANCH   1  13
ATOM     13  C   UNL     1       6.938   6.926  17.296  0.00  0.00    +0.000 C 
ATOM     14  O   UNL     1       7.511   5.993  17.861  0.00  0.00    +0.000 OA
ATOM     15  N   UNL     1       7.385   8.227  17.416  0.00  0.00    +0.000 N 
ATOM     16  H   UNL     1       6.907   8.991  16.950  0.00  0.00    +0.000 HD
BRANCH  15  17
ATOM     17  C   UNL     1       8.483   8.507  18.322  0.00  0.00    +0.000 C 
BRANCH  17  18
ATOM     18  C   UNL     1       8.809   9.969  18.488  0.00  0.00    +0.000 A 
ATOM     19  C   UNL     1       8.336  10.920  17.568  0.00  0.00    +0.000 A 
ATOM     20  C   UNL     1       8.573  12.283  17.765  0.00  0.00    +0.000 A 
ATOM     21  C   UNL     1       9.279  12.712  18.888  0.00  0.00    +0.000 A 
ATOM     22  C   UNL     1       9.743  11.779  19.813  0.00  0.00    +0.000 A 
ATOM     23  C   UNL     1       9.507  10.416  19.617  0.00  0.00    +0.000 A 
ENDBRANCH  17  18
ENDBRANCH  15  17
ENDBRANCH   1  13
TORSDOF 5
ENDMDL
MODEL 9
REMARK VINA RESULT:      -6.9      2.134      2.611
REMARK  Name = 
REMARK  7 active torsions:
REMARK  status: ('A' for Active; 'I' for Inactive)
REMARK    1  A    between atoms: C_1  and  C_2
REMARK    2  A    between atoms: C_4  and  C_5
REMARK    3  A    between atoms: N_6  and  C_7
REMARK    4  A    between atoms: C_7  and  C_8
REMARK    5  A    between atoms: N_10  and  C_11
REMARK    6  A    between atoms: C_11  and  C_12
REMARK    7  A    between atoms: C_20  and  C_21
REMARK                            x       y       z     vdW  Elec       q    Type
REMARK                         _______ _______ _______ _____ _____    ______ ____
ROOT
ATOM      1  C   UNL     1       5.723   6.707  16.687  0.00  0.00    +0.000 C 
ENDROOT
BRANCH   1   7
ATOM      2  C   UNL     1       1.248   3.800  18.934  0.00  0.00    +0.000 C 
ATOM      3  C   UNL     1       2.456   4.492  18.356  0.00  0.00    +0.000 A 
ATOM      4  C   UNL     1       2.418   5.942  18.261  0.00  0.00    +0.000 A 
ATOM      5  C   UNL     1       3.450   6.649  17.770  0.00  0.00    +0.000 A 
ATOM      6  C   UNL     1       3.347   8.147  17.671  0.00  0.00    +0.000 C 
ATOM      7  N   UNL     1       4.610   5.990  17.322  0.00  0.00    +0.000 N 
ATOM      8  C   UNL     1       4.713   4.590  17.367  0.00  0.00    +0.000 A 
ATOM      9  O   UNL     1       5.702   3.990  16.943  0.00  0.00    +0.000 OA
ATOM     10  C   UNL     1       3.556   3.839  17.932  0.00  0.00    +0.000 A 
BRANCH  10  11
ATOM     11  C   UNL     1       3.642   2.411  17.993  0.00  0.00    +0.000 C 
ATOM     12  N   UNL     1       3.741   1.259  18.109  0.00  0.00    +0.000 NA
ENDBRANCH  10  11
ENDBRANCH   1   7
BRANCH   1  13
ATOM     13  C   UNL     1       6.915   7.074  17.586  0.00  0.00    +0.000 C 
ATOM     14  O   UNL     1       7.375   6.268  18.397  0.00  0.00    +0.000 OA
ATOM     15  N   UNL     1       7.439   8.345  17.454  0.00  0.00    +0.000 N 
ATOM     16  H   UNL     1       7.053   9.004  16.786  0.00  0.00    +0.000 HD
BRANCH  15  17
ATOM     17  C   UNL     1       8.476   8.772  18.375  0.00  0.00    +0.000 C 
BRANCH  17  18
ATOM     18  C   UNL     1       8.855  10.226  18.269  0.00  0.00    +0.000 A 
ATOM     19  C   UNL     1       8.053  11.128  17.551  0.00  0.00    +0.000 A 
ATOM     20  C   UNL     1       8.363  12.490  17.519  0.00  0.00    +0.000 A 
ATOM     21  C   UNL     1       9.475  12.968  18.212  0.00  0.00    +0.000 A 
ATOM     22  C   UNL     1      10.271  12.084  18.938  0.00  0.00    +0.000 A 
ATOM     23  C   UNL     1       9.962  10.723  18.970  0.00  0.00    +0.000 A 
ENDBRANCH  17  18
ENDBRANCH  15  17
ENDBRANCH   1  13
TORSDOF 5
ENDMDL
