MODEL 1
REMARK VINA RESULT:      -8.9      0.000      0.000
REMARK  Name = 
REMARK  4 active torsions:
REMARK  status: ('A' for Active; 'I' for Inactive)
REMARK    1  A    between atoms: C_1  and  C_2
REMARK    2  A    between atoms: C_2  and  C_3
REMARK    3  A    between atoms: C_2  and  N_17
REMARK    4  A    between atoms: C_8  and  C_9
REMARK                            x       y       z     vdW  Elec       q    Type
REMARK                         _______ _______ _______ _____ _____    ______ ____
ROOT
ATOM      1  C   UNL     1       2.104   5.231  19.906  0.00  0.00    +0.000 C 
ATOM      2  O   UNL     1       1.321   5.325  20.853  0.00  0.00    +0.000 OA
ATOM      3  N   UNL     1       2.496   6.268  19.081  0.00  0.00    +0.000 N 
ATOM      4  C   UNL     1       2.028   7.536  19.271  0.00  0.00    +0.000 A 
ATOM      5  N   UNL     1       1.420   8.016  20.321  0.00  0.00    +0.000 NA
ATOM      6  C   UNL     1       1.031   9.325  20.083  0.00  0.00    +0.000 A 
ATOM      7  C   UNL     1       1.389   9.814  18.841  0.00  0.00    +0.000 A 
ATOM      8  S   UNL     1       2.266   8.613  17.973  0.00  0.00    +0.000 S 
ATOM      9  H   UNL     1       2.971   6.080  18.199  0.00  0.00    +0.000 HD
ENDROOT
BRANCH   6  10
ATOM     10  C   UNL     1       0.290  10.077  21.089  0.00  0.00    +0.000 A 
ATOM     11  C   UNL     1      -0.098   9.453  22.274  0.00  0.00    +0.000 A 
ATOM     12  C   UNL     1      -0.819  10.177  23.218  0.00  0.00    +0.000 A 
ATOM     13  C   UNL     1      -1.139  11.502  22.951  0.00  0.00    +0.000 A 
ATOM     14  C   UNL     1      -0.712  12.052  21.751  0.00  0.00    +0.000 A 
ATOM     15  N   UNL     1      -0.007  11.374  20.817  0.00  0.00    +0.000 NA
ENDBRANCH   6  10
BRANCH   1  17
ATOM     16  C   UNL     1       3.187   3.112  20.831  0.00  0.00    +0.000 C 
ATOM     17  C   UNL     1       2.723   3.859  19.585  0.00  0.00    +0.000 C 
BRANCH  17  18
ATOM     18  N   UNL     1       3.760   3.924  18.558  0.00  0.00    +0.000 N 
ATOM     19  C   UNL     1       4.932   4.634  18.753  0.00  0.00    +0.000 C 
ATOM     20  O   UNL     1       5.373   5.074  19.800  0.00  0.00    +0.000 OA
ATOM     21  C   UNL     1       5.466   4.941  17.377  0.00  0.00    +0.000 C 
ATOM     22  C   UNL     1       6.947   5.144  17.150  0.00  0.00    +0.000 C 
ATOM     23  C   UNL     1       7.183   5.321  15.641  0.00  0.00    +0.000 C 
ATOM     24  C   UNL     1       6.593   4.170  14.813  0.00  0.00    +0.000 C 
ATOM     25  C   UNL     1       5.106   3.929  15.116  0.00  0.00    +0.000 C 
ATOM     26  C   UNL     1       4.942   3.742  16.606  0.00  0.00    +0.000 C 
ATOM     27  C   UNL     1       3.576   3.661  17.222  0.00  0.00    +0.000 C 
ATOM     28  O   UNL     1       2.530   3.383  16.660  0.00  0.00    +0.000 OA
ENDBRANCH  17  18
ENDBRANCH   1  17
TORSDOF 3
ENDMDL
MODEL 2
REMARK VINA RESULT:      -8.4      0.567      1.800
REMARK  Name = 
REMARK  4 active torsions:
REMARK  status: ('A' for Active; 'I' for Inactive)
REMARK    1  A    between atoms: C_1  and  C_2
REMARK    2  A    between atoms: C_2  and  C_3
REMARK    3  A    between atoms: C_2  and  N_17
REMARK    4  A    between atoms: C_8  and  C_9
REMARK                            x       y       z     vdW  Elec       q    Type
REMARK                         _______ _______ _______ _____ _____    ______ ____
ROOT
ATOM      1  C   UNL     1       2.075   5.908  19.852  0.00  0.00    +0.000 C 
ATOM      2  O   UNL     1       1.340   5.963  20.839  0.00  0.00    +0.000 OA
ATOM      3  N   UNL     1       2.370   6.964  19.010  0.00  0.00    +0.000 N 
ATOM      4  C   UNL     1       1.850   8.206  19.229  0.00  0.00    +0.000 A 
ATOM      5  N   UNL     1       1.276   8.656  20.311  0.00  0.00    +0.000 NA
ATOM      6  C   UNL     1       0.810   9.944  20.098  0.00  0.00    +0.000 A 
ATOM      7  C   UNL     1       1.076  10.451  18.840  0.00  0.00    +0.000 A 
ATOM      8  S   UNL     1       1.964   9.295  17.922  0.00  0.00    +0.000 S 
ATOM      9  H   UNL     1       2.805   6.800  18.103  0.00  0.00    +0.000 HD
ENDROOT
BRANCH   6  10
ATOM     10  C   UNL     1       0.088  10.658  21.144  0.00  0.00    +0.000 A 
ATOM     11  C   UNL     1      -0.419   9.956  22.238  0.00  0.00    +0.000 A 
ATOM     12  C   UNL     1      -1.121  10.647  23.221  0.00  0.00    +0.000 A 
ATOM     13  C   UNL     1      -1.304  12.017  23.083  0.00  0.00    +0.000 A 
ATOM     14  C   UNL     1      -0.765  12.642  21.968  0.00  0.00    +0.000 A 
ATOM     15  N   UNL     1      -0.075  11.998  20.999  0.00  0.00    +0.000 NA
ENDBRANCH   6  10
BRANCH   1  17
ATOM     16  C   UNL     1       3.308   3.844  20.711  0.00  0.00    +0.000 C 
ATOM     17  C   UNL     1       2.743   4.569  19.493  0.00  0.00    +0.000 C 
BRANCH  17  18
ATOM     18  N   UNL     1       3.721   4.687  18.415  0.00  0.00    +0.000 N 
ATOM     19  C   UNL     1       3.540   4.054  17.197  0.00  0.00    +0.000 C 
ATOM     20  O   UNL     1       2.521   3.546  16.763  0.00  0.00    +0.000 OA
ATOM     21  C   UNL     1       4.912   3.929  16.586  0.00  0.00    +0.000 C 
ATOM     22  C   UNL     1       5.088   3.865  15.086  0.00  0.00    +0.000 C 
ATOM     23  C   UNL     1       6.594   3.859  14.775  0.00  0.00    +0.000 C 
ATOM     24  C   UNL     1       7.333   5.039  15.425  0.00  0.00    +0.000 C 
ATOM     25  C   UNL     1       7.079   5.133  16.937  0.00  0.00    +0.000 C 
ATOM     26  C   UNL     1       5.587   5.155  17.174  0.00  0.00    +0.000 C 
ATOM     27  C   UNL     1       5.032   5.069  18.566  0.00  0.00    +0.000 C 
ATOM     28  O   UNL     1       5.614   5.320  19.608  0.00  0.00    +0.000 OA
ENDBRANCH  17  18
ENDBRANCH   1  17
TORSDOF 3
ENDMDL
MODEL 3
REMARK VINA RESULT:      -8.0      4.342      6.155
REMARK  Name = 
REMARK  4 active torsions:
REMARK  status: ('A' for Active; 'I' for Inactive)
REMARK    1  A    between atoms: C_1  and  C_2
REMARK    2  A    between atoms: C_2  and  C_3
REMARK    3  A    between atoms: C_2  and  N_17
REMARK    4  A    between atoms: C_8  and  C_9
REMARK                            x       y       z     vdW  Elec       q    Type
REMARK                         _______ _______ _______ _____ _____    ______ ____
ROOT
ATOM      1  C   UNL     1      -0.339  10.671  19.025  0.00  0.00    +0.000 C 
ATOM      2  O   UNL     1      -1.018  10.913  20.024  0.00  0.00    +0.000 OA
ATOM      3  N   UNL     1      -0.798  10.663  17.721  0.00  0.00    +0.000 N 
ATOM      4  C   UNL     1      -2.101  10.946  17.432  0.00  0.00    +0.000 A 
ATOM      5  N   UNL     1      -2.992  11.499  18.208  0.00  0.00    +0.000 NA
ATOM      6  C   UNL     1      -4.221  11.535  17.566  0.00  0.00    +0.000 A 
ATOM      7  C   UNL     1      -4.213  11.020  16.283  0.00  0.00    +0.000 A 
ATOM      8  S   UNL     1      -2.619  10.518  15.866  0.00  0.00    +0.000 S 
ATOM      9  H   UNL     1      -0.240  10.250  16.976  0.00  0.00    +0.000 HD
ENDROOT
BRANCH   6  10
ATOM     10  C   UNL     1      -5.399  12.068  18.239  0.00  0.00    +0.000 A 
ATOM     11  C   UNL     1      -6.515  12.440  17.490  0.00  0.00    +0.000 A 
ATOM     12  C   UNL     1      -7.627  12.963  18.144  0.00  0.00    +0.000 A 
ATOM     13  C   UNL     1      -7.592  13.107  19.524  0.00  0.00    +0.000 A 
ATOM     14  C   UNL     1      -6.445  12.710  20.198  0.00  0.00    +0.000 A 
ATOM     15  N   UNL     1      -5.352  12.195  19.591  0.00  0.00    +0.000 NA
ENDBRANCH   6  10
BRANCH   1  17
ATOM     16  C   UNL     1       2.052  11.166  18.276  0.00  0.00    +0.000 C 
ATOM     17  C   UNL     1       1.157  10.349  19.201  0.00  0.00    +0.000 C 
BRANCH  17  18
ATOM     18  N   UNL     1       1.446   8.919  19.134  0.00  0.00    +0.000 N 
ATOM     19  C   UNL     1       1.436   8.120  20.265  0.00  0.00    +0.000 C 
ATOM     20  O   UNL     1       0.984   8.389  21.364  0.00  0.00    +0.000 OA
ATOM     21  C   UNL     1       2.284   6.920  19.933  0.00  0.00    +0.000 C 
ATOM     22  C   UNL     1       2.046   5.593  20.619  0.00  0.00    +0.000 C 
ATOM     23  C   UNL     1       2.982   4.549  19.987  0.00  0.00    +0.000 C 
ATOM     24  C   UNL     1       2.841   4.479  18.459  0.00  0.00    +0.000 C 
ATOM     25  C   UNL     1       3.009   5.851  17.788  0.00  0.00    +0.000 C 
ATOM     26  C   UNL     1       2.050   6.824  18.436  0.00  0.00    +0.000 C 
ATOM     27  C   UNL     1       2.107   8.287  18.108  0.00  0.00    +0.000 C 
ATOM     28  O   UNL     1       2.604   8.802  17.120  0.00  0.00    +0.000 OA
ENDBRANCH  17  18
ENDBRANCH   1  17
TORSDOF 3
ENDMDL
MODEL 4
REMARK VINA RESULT:      -7.9      2.764      9.036
REMARK  Name = 
REMARK  4 active torsions:
REMARK  status: ('A' for Active; 'I' for Inactive)
REMARK    1  A    between atoms: C_1  and  C_2
REMARK    2  A    between atoms: C_2  and  C_3
REMARK    3  A    between atoms: C_2  and  N_17
REMARK    4  A    between atoms: C_8  and  C_9
REMARK                            x       y       z     vdW  Elec       q    Type
REMARK                         _______ _______ _______ _____ _____    ______ ____
ROOT
ATOM      1  C   UNL     1       1.255   9.529  19.017  0.00  0.00    +0.000 C 
ATOM      2  O   UNL     1       0.930   8.977  20.069  0.00  0.00    +0.000 OA
ATOM      3  N   UNL     1       2.086   8.994  18.051  0.00  0.00    +0.000 N 
ATOM      4  C   UNL     1       2.626   7.750  18.197  0.00  0.00    +0.000 A 
ATOM      5  N   UNL     1       2.273   6.817  19.037  0.00  0.00    +0.000 NA
ATOM      6  C   UNL     1       3.128   5.730  18.923  0.00  0.00    +0.000 A 
ATOM      7  C   UNL     1       4.107   5.869  17.958  0.00  0.00    +0.000 A 
ATOM      8  S   UNL     1       3.923   7.381  17.154  0.00  0.00    +0.000 S 
ATOM      9  H   UNL     1       2.478   9.584  17.318  0.00  0.00    +0.000 HD
ENDROOT
BRANCH   6  10
ATOM     10  C   UNL     1       2.973   4.566  19.787  0.00  0.00    +0.000 A 
ATOM     11  C   UNL     1       1.959   4.545  20.745  0.00  0.00    +0.000 A 
ATOM     12  C   UNL     1       1.834   3.434  21.575  0.00  0.00    +0.000 A 
ATOM     13  C   UNL     1       2.726   2.381  21.431  0.00  0.00    +0.000 A 
ATOM     14  C   UNL     1       3.704   2.477  20.452  0.00  0.00    +0.000 A 
ATOM     15  N   UNL     1       3.849   3.540  19.629  0.00  0.00    +0.000 NA
ENDBRANCH   6  10
BRANCH   1  17
ATOM     16  C   UNL     1       1.804  11.984  18.580  0.00  0.00    +0.000 C 
ATOM     17  C   UNL     1       0.705  10.934  18.713  0.00  0.00    +0.000 C 
BRANCH  17  18
ATOM     18  N   UNL     1      -0.350  11.349  19.634  0.00  0.00    +0.000 N 
ATOM     19  C   UNL     1      -1.591  11.760  19.180  0.00  0.00    +0.000 C 
ATOM     20  O   UNL     1      -2.061  11.624  18.064  0.00  0.00    +0.000 OA
ATOM     21  C   UNL     1      -2.179  12.601  20.284  0.00  0.00    +0.000 C 
ATOM     22  C   UNL     1      -3.677  12.725  20.447  0.00  0.00    +0.000 C 
ATOM     23  C   UNL     1      -3.959  13.543  21.718  0.00  0.00    +0.000 C 
ATOM     24  C   UNL     1      -3.256  12.967  22.957  0.00  0.00    +0.000 C 
ATOM     25  C   UNL     1      -1.747  12.777  22.744  0.00  0.00    +0.000 C 
ATOM     26  C   UNL     1      -1.538  11.950  21.496  0.00  0.00    +0.000 C 
ATOM     27  C   UNL     1      -0.161  11.745  20.936  0.00  0.00    +0.000 C 
ATOM     28  O   UNL     1       0.900  11.868  21.525  0.00  0.00    +0.000 OA
ENDBRANCH  17  18
ENDBRANCH   1  17
TORSDOF 3
ENDMDL
MODEL 5
REMARK VINA RESULT:      -7.9      4.603      6.464
REMARK  Name = 
REMARK  4 active torsions:
REMARK  status: ('A' for Active; 'I' for Inactive)
REMARK    1  A    between atoms: C_1  and  C_2
REMARK    2  A    between atoms: C_2  and  C_3
REMARK    3  A    between atoms: C_2  and  N_17
REMARK    4  A    between atoms: C_8  and  C_9
REMARK                            x       y       z     vdW  Elec       q    Type
REMARK                         _______ _______ _______ _____ _____    ______ ____
ROOT
ATOM      1  C   UNL     1      -0.630  11.025  19.241  0.00  0.00    +0.000 C 
ATOM      2  O   UNL     1      -1.395  11.432  20.117  0.00  0.00    +0.000 OA
ATOM      3  N   UNL     1      -0.970  10.793  17.921  0.00  0.00    +0.000 N 
ATOM      4  C   UNL     1      -2.237  11.020  17.470  0.00  0.00    +0.000 A 
ATOM      5  N   UNL     1      -3.187  11.695  18.055  0.00  0.00    +0.000 NA
ATOM      6  C   UNL     1      -4.352  11.618  17.307  0.00  0.00    +0.000 A 
ATOM      7  C   UNL     1      -4.235  10.891  16.136  0.00  0.00    +0.000 A 
ATOM      8  S   UNL     1      -2.617  10.328  15.959  0.00  0.00    +0.000 S 
ATOM      9  H   UNL     1      -0.352  10.260  17.311  0.00  0.00    +0.000 HD
ENDROOT
BRANCH   6  10
ATOM     10  C   UNL     1      -5.579  12.255  17.768  0.00  0.00    +0.000 A 
ATOM     11  C   UNL     1      -6.087  11.948  19.031  0.00  0.00    +0.000 A 
ATOM     12  C   UNL     1      -7.268  12.550  19.452  0.00  0.00    +0.000 A 
ATOM     13  C   UNL     1      -7.914  13.437  18.601  0.00  0.00    +0.000 A 
ATOM     14  C   UNL     1      -7.342  13.694  17.363  0.00  0.00    +0.000 A 
ATOM     15  N   UNL     1      -6.194  13.127  16.928  0.00  0.00    +0.000 NA
ENDBRANCH   6  10
BRANCH   1  17
ATOM     16  C   UNL     1       1.812  11.710  18.942  0.00  0.00    +0.000 C 
ATOM     17  C   UNL     1       0.838  10.741  19.606  0.00  0.00    +0.000 C 
BRANCH  17  18
ATOM     18  N   UNL     1       1.219   9.346  19.404  0.00  0.00    +0.000 N 
ATOM     19  C   UNL     1       1.316   8.458  20.462  0.00  0.00    +0.000 C 
ATOM     20  O   UNL     1       0.899   8.602  21.598  0.00  0.00    +0.000 OA
ATOM     21  C   UNL     1       2.225   7.351  19.994  0.00  0.00    +0.000 C 
ATOM     22  C   UNL     1       2.109   5.959  20.572  0.00  0.00    +0.000 C 
ATOM     23  C   UNL     1       3.082   5.039  19.815  0.00  0.00    +0.000 C 
ATOM     24  C   UNL     1       2.873   5.086  18.294  0.00  0.00    +0.000 C 
ATOM     25  C   UNL     1       2.918   6.518  17.737  0.00  0.00    +0.000 C 
ATOM     26  C   UNL     1       1.928   7.363  18.505  0.00  0.00    +0.000 C 
ATOM     27  C   UNL     1       1.872   8.849  18.301  0.00  0.00    +0.000 C 
ATOM     28  O   UNL     1       2.286   9.477  17.342  0.00  0.00    +0.000 OA
ENDBRANCH  17  18
ENDBRANCH   1  17
TORSDOF 3
ENDMDL
MODEL 6
REMARK VINA RESULT:      -7.8      4.498      6.624
REMARK  Name = 
REMARK  4 active torsions:
REMARK  status: ('A' for Active; 'I' for Inactive)
REMARK    1  A    between atoms: C_1  and  C_2
REMARK    2  A    between atoms: C_2  and  C_3
REMARK    3  A    between atoms: C_2  and  N_17
REMARK    4  A    between atoms: C_8  and  C_9
REMARK                            x       y       z     vdW  Elec       q    Type
REMARK                         _______ _______ _______ _____ _____    ______ ____
ROOT
ATOM      1  C   UNL     1      -0.408  11.127  19.182  0.00  0.00    +0.000 C 
ATOM      2  O   UNL     1      -1.164  11.424  20.109  0.00  0.00    +0.000 OA
ATOM      3  N   UNL     1      -0.788  10.929  17.868  0.00  0.00    +0.000 N 
ATOM      4  C   UNL     1      -2.089  11.065  17.482  0.00  0.00    +0.000 A 
ATOM      5  N   UNL     1      -3.066  11.625  18.140  0.00  0.00    +0.000 NA
ATOM      6  C   UNL     1      -4.253  11.481  17.439  0.00  0.00    +0.000 A 
ATOM      7  C   UNL     1      -4.129  10.824  16.229  0.00  0.00    +0.000 A 
ATOM      8  S   UNL     1      -2.478  10.415  15.955  0.00  0.00    +0.000 S 
ATOM      9  H   UNL     1      -0.155  10.482  17.206  0.00  0.00    +0.000 HD
ENDROOT
BRANCH   6  10
ATOM     10  C   UNL     1      -5.508  11.986  17.984  0.00  0.00    +0.000 A 
ATOM     11  C   UNL     1      -6.319  12.810  17.204  0.00  0.00    +0.000 A 
ATOM     12  C   UNL     1      -7.506  13.299  17.743  0.00  0.00    +0.000 A 
ATOM     13  C   UNL     1      -7.847  12.957  19.045  0.00  0.00    +0.000 A 
ATOM     14  C   UNL     1      -6.988  12.129  19.753  0.00  0.00    +0.000 A 
ATOM     15  N   UNL     1      -5.831  11.636  19.255  0.00  0.00    +0.000 NA
ENDBRANCH   6  10
BRANCH   1  17
ATOM     16  C   UNL     1       1.971  11.825  18.572  0.00  0.00    +0.000 C 
ATOM     17  C   UNL     1       1.094  10.957  19.470  0.00  0.00    +0.000 C 
BRANCH  17  18
ATOM     18  N   UNL     1       1.521   9.560  19.481  0.00  0.00    +0.000 N 
ATOM     19  C   UNL     1       1.877   8.899  18.319  0.00  0.00    +0.000 C 
ATOM     20  O   UNL     1       2.117   9.385  17.227  0.00  0.00    +0.000 OA
ATOM     21  C   UNL     1       1.711   7.430  18.608  0.00  0.00    +0.000 C 
ATOM     22  C   UNL     1       2.531   6.398  17.867  0.00  0.00    +0.000 C 
ATOM     23  C   UNL     1       2.222   5.015  18.463  0.00  0.00    +0.000 C 
ATOM     24  C   UNL     1       2.422   4.973  19.986  0.00  0.00    +0.000 C 
ATOM     25  C   UNL     1       1.641   6.078  20.714  0.00  0.00    +0.000 C 
ATOM     26  C   UNL     1       2.004   7.409  20.098  0.00  0.00    +0.000 C 
ATOM     27  C   UNL     1       1.268   8.658  20.487  0.00  0.00    +0.000 C 
ATOM     28  O   UNL     1       0.614   8.843  21.499  0.00  0.00    +0.000 OA
ENDBRANCH  17  18
ENDBRANCH   1  17
TORSDOF 3
ENDMDL
MODEL 7
REMARK VINA RESULT:      -7.7      2.844      9.370
REMARK  Name = 
REMARK  4 active torsions:
REMARK  status: ('A' for Active; 'I' for Inactive)
REMARK    1  A    between atoms: C_1  and  C_2
REMARK    2  A    between atoms: C_2  and  C_3
REMARK    3  A    between atoms: C_2  and  N_17
REMARK    4  A    between atoms: C_8  and  C_9
REMARK                            x       y       z     vdW  Elec       q    Type
REMARK                         _______ _______ _______ _____ _____    ______ ____
ROOT
ATOM      1  C   UNL     1       1.434  10.264  18.459  0.00  0.00    +0.000 C 
ATOM      2  O   UNL     1       1.889   9.949  17.358  0.00  0.00    +0.000 OA
ATOM      3  N   UNL     1       1.382   9.445  19.572  0.00  0.00    +0.000 N 
ATOM      4  C   UNL     1       1.864   8.169  19.531  0.00  0.00    +0.000 A 
ATOM      5  N   UNL     1       2.640   7.634  18.628  0.00  0.00    +0.000 NA
ATOM      6  C   UNL     1       2.832   6.290  18.908  0.00  0.00    +0.000 A 
ATOM      7  C   UNL     1       2.202   5.846  20.056  0.00  0.00    +0.000 A 
ATOM      8  S   UNL     1       1.385   7.158  20.816  0.00  0.00    +0.000 S 
ATOM      9  H   UNL     1       0.806   9.695  20.374  0.00  0.00    +0.000 HD
ENDROOT
BRANCH   6  10
ATOM     10  C   UNL     1       3.629   5.451  18.021  0.00  0.00    +0.000 A 
ATOM     11  C   UNL     1       4.477   6.042  17.085  0.00  0.00    +0.000 A 
ATOM     12  C   UNL     1       5.219   5.229  16.233  0.00  0.00    +0.000 A 
ATOM     13  C   UNL     1       5.091   3.851  16.334  0.00  0.00    +0.000 A 
ATOM     14  C   UNL     1       4.230   3.340  17.295  0.00  0.00    +0.000 A 
ATOM     15  N   UNL     1       3.499   4.104  18.139  0.00  0.00    +0.000 NA
ENDBRANCH   6  10
BRANCH   1  17
ATOM     16  C   UNL     1       1.959  12.731  18.858  0.00  0.00    +0.000 C 
ATOM     17  C   UNL     1       0.869  11.683  18.654  0.00  0.00    +0.000 C 
BRANCH  17  18
ATOM     18  N   UNL     1      -0.167  11.750  19.681  0.00  0.00    +0.000 N 
ATOM     19  C   UNL     1      -1.454  12.168  19.390  0.00  0.00    +0.000 C 
ATOM     20  O   UNL     1      -1.966  12.297  18.293  0.00  0.00    +0.000 OA
ATOM     21  C   UNL     1      -2.045  12.634  20.696  0.00  0.00    +0.000 C 
ATOM     22  C   UNL     1      -3.539  12.589  20.928  0.00  0.00    +0.000 C 
ATOM     23  C   UNL     1      -3.815  13.014  22.379  0.00  0.00    +0.000 C 
ATOM     24  C   UNL     1      -3.015  12.186  23.397  0.00  0.00    +0.000 C 
ATOM     25  C   UNL     1      -1.508  12.180  23.099  0.00  0.00    +0.000 C 
ATOM     26  C   UNL     1      -1.302  11.736  21.669  0.00  0.00    +0.000 C 
ATOM     27  C   UNL     1       0.057  11.798  21.037  0.00  0.00    +0.000 C 
ATOM     28  O   UNL     1       1.133  11.844  21.607  0.00  0.00    +0.000 OA
ENDBRANCH  17  18
ENDBRANCH   1  17
TORSDOF 3
ENDMDL
MODEL 8
REMARK VINA RESULT:      -7.6      3.009      8.856
REMARK  Name = 
REMARK  4 active torsions:
REMARK  status: ('A' for Active; 'I' for Inactive)
REMARK    1  A    between atoms: C_1  and  C_2
REMARK    2  A    between atoms: C_2  and  C_3
REMARK    3  A    between atoms: C_2  and  N_17
REMARK    4  A    between atoms: C_8  and  C_9
REMARK                            x       y       z     vdW  Elec       q    Type
REMARK                         _______ _______ _______ _____ _____    ______ ____
ROOT
ATOM      1  C   UNL     1       1.161   9.910  18.958  0.00  0.00    +0.000 C 
ATOM      2  O   UNL     1       0.623   9.348  19.913  0.00  0.00    +0.000 OA
ATOM      3  N   UNL     1       2.064   9.329  18.087  0.00  0.00    +0.000 N 
ATOM      4  C   UNL     1       2.435   8.023  18.225  0.00  0.00    +0.000 A 
ATOM      5  N   UNL     1       1.859   7.098  18.942  0.00  0.00    +0.000 NA
ATOM      6  C   UNL     1       2.594   5.924  18.879  0.00  0.00    +0.000 A 
ATOM      7  C   UNL     1       3.717   5.993  18.075  0.00  0.00    +0.000 A 
ATOM      8  S   UNL     1       3.824   7.554  17.357  0.00  0.00    +0.000 S 
ATOM      9  H   UNL     1       2.625   9.903  17.460  0.00  0.00    +0.000 HD
ENDROOT
BRANCH   6  10
ATOM     10  C   UNL     1       2.184   4.745  19.631  0.00  0.00    +0.000 A 
ATOM     11  C   UNL     1       1.431   3.751  19.005  0.00  0.00    +0.000 A 
ATOM     12  C   UNL     1       1.032   2.639  19.740  0.00  0.00    +0.000 A 
ATOM     13  C   UNL     1       1.386   2.552  21.079  0.00  0.00    +0.000 A 
ATOM     14  C   UNL     1       2.140   3.580  21.627  0.00  0.00    +0.000 A 
ATOM     15  N   UNL     1       2.546   4.671  20.938  0.00  0.00    +0.000 NA
ENDBRANCH   6  10
BRANCH   1  17
ATOM     16  C   UNL     1       2.065  12.257  18.513  0.00  0.00    +0.000 C 
ATOM     17  C   UNL     1       0.823  11.385  18.673  0.00  0.00    +0.000 C 
BRANCH  17  18
ATOM     18  N   UNL     1      -0.132  11.947  19.624  0.00  0.00    +0.000 N 
ATOM     19  C   UNL     1       0.180  12.103  20.963  0.00  0.00    +0.000 C 
ATOM     20  O   UNL     1       1.280  12.042  21.485  0.00  0.00    +0.000 OA
ATOM     21  C   UNL     1      -1.136  12.161  21.693  0.00  0.00    +0.000 C 
ATOM     22  C   UNL     1      -1.260  12.899  23.007  0.00  0.00    +0.000 C 
ATOM     23  C   UNL     1      -2.736  12.877  23.437  0.00  0.00    +0.000 C 
ATOM     24  C   UNL     1      -3.675  13.415  22.346  0.00  0.00    +0.000 C 
ATOM     25  C   UNL     1      -3.479  12.704  20.997  0.00  0.00    +0.000 C 
ATOM     26  C   UNL     1      -2.017  12.778  20.622  0.00  0.00    +0.000 C 
ATOM     27  C   UNL     1      -1.492  12.020  19.438  0.00  0.00    +0.000 C 
ATOM     28  O   UNL     1      -2.134  11.593  18.493  0.00  0.00    +0.000 OA
ENDBRANCH  17  18
ENDBRANCH   1  17
TORSDOF 3
ENDMDL
MODEL 9
REMARK VINA RESULT:      -7.5      2.667      9.010
REMARK  Name = 
REMARK  4 active torsions:
REMARK  status: ('A' for Active; 'I' for Inactive)
REMARK    1  A    between atoms: C_1  and  C_2
REMARK    2  A    between atoms: C_2  and  C_3
REMARK    3  A    between atoms: C_2  and  N_17
REMARK    4  A    between atoms: C_8  and  C_9
REMARK                            x       y       z     vdW  Elec       q    Type
REMARK                         _______ _______ _______ _____ _____    ______ ____
ROOT
ATOM      1  C   UNL     1       1.385   9.378  18.629  0.00  0.00    +0.000 C 
ATOM      2  O   UNL     1       0.770   8.607  19.367  0.00  0.00    +0.000 OA
ATOM      3  N   UNL     1       2.447   9.036  17.813  0.00  0.00    +0.000 N 
ATOM      4  C   UNL     1       2.907   7.753  17.757  0.00  0.00    +0.000 A 
ATOM      5  N   UNL     1       2.319   6.671  18.188  0.00  0.00    +0.000 NA
ATOM      6  C   UNL     1       3.156   5.579  18.018  0.00  0.00    +0.000 A 
ATOM      7  C   UNL     1       4.369   5.872  17.424  0.00  0.00    +0.000 A 
ATOM      8  S   UNL     1       4.439   7.549  17.038  0.00  0.00    +0.000 S 
ATOM      9  H   UNL     1       3.038   9.756  17.399  0.00  0.00    +0.000 HD
ENDROOT
BRANCH   6  10
ATOM     10  C   UNL     1       2.749   4.251  18.462  0.00  0.00    +0.000 A 
ATOM     11  C   UNL     1       1.394   3.958  18.617  0.00  0.00    +0.000 A 
ATOM     12  C   UNL     1       1.020   2.692  19.058  0.00  0.00    +0.000 A 
ATOM     13  C   UNL     1       2.006   1.757  19.340  0.00  0.00    +0.000 A 
ATOM     14  C   UNL     1       3.332   2.125  19.156  0.00  0.00    +0.000 A 
ATOM     15  N   UNL     1       3.725   3.345  18.725  0.00  0.00    +0.000 NA
ENDBRANCH   6  10
BRANCH   1  17
ATOM     16  C   UNL     1       2.152  11.814  18.596  0.00  0.00    +0.000 C 
ATOM     17  C   UNL     1       0.963  10.858  18.580  0.00  0.00    +0.000 C 
BRANCH  17  18
ATOM     18  N   UNL     1      -0.039  11.201  19.585  0.00  0.00    +0.000 N 
ATOM     19  C   UNL     1      -1.224  11.831  19.246  0.00  0.00    +0.000 C 
ATOM     20  O   UNL     1      -1.705  11.968  18.135  0.00  0.00    +0.000 OA
ATOM     21  C   UNL     1      -1.714  12.501  20.503  0.00  0.00    +0.000 C 
ATOM     22  C   UNL     1      -3.188  12.759  20.718  0.00  0.00    +0.000 C 
ATOM     23  C   UNL     1      -3.376  13.341  22.129  0.00  0.00    +0.000 C 
ATOM     24  C   UNL     1      -2.746  12.459  23.218  0.00  0.00    +0.000 C 
ATOM     25  C   UNL     1      -1.268  12.145  22.941  0.00  0.00    +0.000 C 
ATOM     26  C   UNL     1      -1.153  11.559  21.553  0.00  0.00    +0.000 C 
ATOM     27  C   UNL     1       0.192  11.312  20.936  0.00  0.00    +0.000 C 
ATOM     28  O   UNL     1       1.259  11.199  21.515  0.00  0.00    +0.000 OA
ENDBRANCH  17  18
ENDBRANCH   1  17
TORSDOF 3
ENDMDL
