MODEL 1
REMARK VINA RESULT:      -7.1      0.000      0.000
REMARK  Name = 
REMARK  4 active torsions:
REMARK  status: ('A' for Active; 'I' for Inactive)
REMARK    1  A    between atoms: C_2  and  C_3
REMARK    2  A    between atoms: C_3  and  C_4
REMARK    3  A    between atoms: C_4  and  S_5
REMARK    4  A    between atoms: S_5  and  C_6
REMARK                            x       y       z     vdW  Elec       q    Type
REMARK                         _______ _______ _______ _____ _____    ______ ____
ROOT
ATOM      1  S   UNL     1       7.013   5.631  18.872  0.00  0.00    +0.000 S 
ENDROOT
BRANCH   1   2
ATOM      2  C   UNL     1       5.450   4.965  19.276  0.00  0.00    +0.000 A 
ATOM      3  N   UNL     1       4.418   5.712  19.604  0.00  0.00    +0.000 NA
ATOM      4  C   UNL     1       3.409   4.817  19.889  0.00  0.00    +0.000 A 
ATOM      5  C   UNL     1       2.083   4.978  20.316  0.00  0.00    +0.000 A 
ATOM      6 CL   UNL     1       1.530   6.577  20.542  0.00  0.00    +0.000 Cl
ATOM      7  C   UNL     1       1.266   3.866  20.544  0.00  0.00    +0.000 A 
ATOM      8  C   UNL     1       1.778   2.581  20.347  0.00  0.00    +0.000 A 
ATOM      9  C   UNL     1       3.102   2.379  19.917  0.00  0.00    +0.000 A 
ATOM     10  C   UNL     1       3.876   3.520  19.706  0.00  0.00    +0.000 A 
ATOM     11  O   UNL     1       5.181   3.608  19.301  0.00  0.00    +0.000 OA
ENDBRANCH   1   2
BRANCH   1  12
ATOM     12  C   UNL     1       6.876   5.954  17.063  0.00  0.00    +0.000 C 
BRANCH  12  13
ATOM     13  C   UNL     1       7.353   4.716  16.280  0.00  0.00    +0.000 C 
BRANCH  13  15
ATOM     14  O   UNL     1       5.293   3.506  16.054  0.00  0.00    +0.000 OA
ATOM     15  C   UNL     1       6.219   4.076  15.491  0.00  0.00    +0.000 C 
ATOM     16  N   UNL     1       6.264   4.206  14.111  0.00  0.00    +0.000 N 
ATOM     17  C   UNL     1       5.165   3.739  13.285  0.00  0.00    +0.000 C 
ATOM     18  C   UNL     1       5.839   3.197  12.038  0.00  0.00    +0.000 C 
ATOM     19  C   UNL     1       7.038   4.124  11.868  0.00  0.00    +0.000 C 
ATOM     20  C   UNL     1       7.436   4.499  13.298  0.00  0.00    +0.000 C 
ENDBRANCH  13  15
ENDBRANCH  12  13
ENDBRANCH   1  12
TORSDOF 4
ENDMDL
MODEL 2
REMARK VINA RESULT:      -7.1      1.630      1.953
REMARK  Name = 
REMARK  4 active torsions:
REMARK  status: ('A' for Active; 'I' for Inactive)
REMARK    1  A    between atoms: C_2  and  C_3
REMARK    2  A    between atoms: C_3  and  C_4
REMARK    3  A    between atoms: C_4  and  S_5
REMARK    4  A    between atoms: S_5  and  C_6
REMARK                            x       y       z     vdW  Elec       q    Type
REMARK                         _______ _______ _______ _____ _____    ______ ____
ROOT
ATOM      1  S   UNL     1       6.607   5.940  18.724  0.00  0.00    +0.000 S 
ENDROOT
BRANCH   1   2
ATOM      2  C   UNL     1       5.113   5.139  19.148  0.00  0.00    +0.000 A 
ATOM      3  N   UNL     1       4.875   3.877  18.866  0.00  0.00    +0.000 NA
ATOM      4  C   UNL     1       3.593   3.650  19.319  0.00  0.00    +0.000 A 
ATOM      5  C   UNL     1       2.758   2.523  19.296  0.00  0.00    +0.000 A 
ATOM      6 CL   UNL     1       3.390   1.104  18.589  0.00  0.00    +0.000 Cl
ATOM      7  C   UNL     1       1.466   2.580  19.830  0.00  0.00    +0.000 A 
ATOM      8  C   UNL     1       1.003   3.773  20.390  0.00  0.00    +0.000 A 
ATOM      9  C   UNL     1       1.811   4.922  20.434  0.00  0.00    +0.000 A 
ATOM     10  C   UNL     1       3.089   4.815  19.886  0.00  0.00    +0.000 A 
ATOM     11  O   UNL     1       4.064   5.771  19.791  0.00  0.00    +0.000 OA
ENDBRANCH   1   2
BRANCH   1  12
ATOM     12  C   UNL     1       7.451   4.706  17.645  0.00  0.00    +0.000 C 
BRANCH  12  13
ATOM     13  C   UNL     1       7.350   5.151  16.174  0.00  0.00    +0.000 C 
BRANCH  13  15
ATOM     14  O   UNL     1       5.756   3.379  15.898  0.00  0.00    +0.000 OA
ATOM     15  C   UNL     1       6.479   4.205  15.358  0.00  0.00    +0.000 C 
ATOM     16  N   UNL     1       6.515   4.352  13.980  0.00  0.00    +0.000 N 
ATOM     17  C   UNL     1       5.627   3.582  13.127  0.00  0.00    +0.000 C 
ATOM     18  C   UNL     1       6.462   3.277  11.897  0.00  0.00    +0.000 C 
ATOM     19  C   UNL     1       7.330   4.523  11.756  0.00  0.00    +0.000 C 
ATOM     20  C   UNL     1       7.563   4.990  13.195  0.00  0.00    +0.000 C 
ENDBRANCH  13  15
ENDBRANCH  12  13
ENDBRANCH   1  12
TORSDOF 4
ENDMDL
MODEL 3
REMARK VINA RESULT:      -7.0      2.791      7.064
REMARK  Name = 
REMARK  4 active torsions:
REMARK  status: ('A' for Active; 'I' for Inactive)
REMARK    1  A    between atoms: C_2  and  C_3
REMARK    2  A    between atoms: C_3  and  C_4
REMARK    3  A    between atoms: C_4  and  S_5
REMARK    4  A    between atoms: S_5  and  C_6
REMARK                            x       y       z     vdW  Elec       q    Type
REMARK                         _______ _______ _______ _____ _____    ______ ____
ROOT
ATOM      1  S   UNL     1       6.995   4.942  17.987  0.00  0.00    +0.000 S 
ENDROOT
BRANCH   1   2
ATOM      2  C   UNL     1       6.885   4.626  16.272  0.00  0.00    +0.000 A 
ATOM      3  N   UNL     1       7.649   5.226  15.385  0.00  0.00    +0.000 NA
ATOM      4  C   UNL     1       7.223   4.742  14.167  0.00  0.00    +0.000 A 
ATOM      5  C   UNL     1       7.615   5.003  12.846  0.00  0.00    +0.000 A 
ATOM      6 CL   UNL     1       8.876   6.131  12.620  0.00  0.00    +0.000 Cl
ATOM      7  C   UNL     1       6.987   4.361  11.774  0.00  0.00    +0.000 A 
ATOM      8  C   UNL     1       5.956   3.451  12.022  0.00  0.00    +0.000 A 
ATOM      9  C   UNL     1       5.536   3.161  13.333  0.00  0.00    +0.000 A 
ATOM     10  C   UNL     1       6.193   3.830  14.366  0.00  0.00    +0.000 A 
ATOM     11  O   UNL     1       5.979   3.741  15.716  0.00  0.00    +0.000 OA
ENDBRANCH   1   2
BRANCH   1  12
ATOM     12  C   UNL     1       5.565   6.063  18.299  0.00  0.00    +0.000 C 
BRANCH  12  13
ATOM     13  C   UNL     1       4.593   5.395  19.290  0.00  0.00    +0.000 C 
BRANCH  13  15
ATOM     14  O   UNL     1       3.338   4.715  17.360  0.00  0.00    +0.000 OA
ATOM     15  C   UNL     1       3.503   4.613  18.569  0.00  0.00    +0.000 C 
ATOM     16  N   UNL     1       2.736   3.751  19.338  0.00  0.00    +0.000 N 
ATOM     17  C   UNL     1       1.759   2.873  18.720  0.00  0.00    +0.000 C 
ATOM     18  C   UNL     1       0.613   2.830  19.715  0.00  0.00    +0.000 C 
ATOM     19  C   UNL     1       1.324   2.925  21.060  0.00  0.00    +0.000 C 
ATOM     20  C   UNL     1       2.551   3.798  20.782  0.00  0.00    +0.000 C 
ENDBRANCH  13  15
ENDBRANCH  12  13
ENDBRANCH   1  12
TORSDOF 4
ENDMDL
MODEL 4
REMARK VINA RESULT:      -6.8      3.186      6.216
REMARK  Name = 
REMARK  4 active torsions:
REMARK  status: ('A' for Active; 'I' for Inactive)
REMARK    1  A    between atoms: C_2  and  C_3
REMARK    2  A    between atoms: C_3  and  C_4
REMARK    3  A    between atoms: C_4  and  S_5
REMARK    4  A    between atoms: S_5  and  C_6
REMARK                            x       y       z     vdW  Elec       q    Type
REMARK                         _______ _______ _______ _____ _____    ______ ____
ROOT
ATOM      1  S   UNL     1       3.606   1.692  18.735  0.00  0.00    +0.000 S 
ENDROOT
BRANCH   1   2
ATOM      2  C   UNL     1       4.632   3.076  18.442  0.00  0.00    +0.000 A 
ATOM      3  N   UNL     1       4.778   3.618  17.253  0.00  0.00    +0.000 NA
ATOM      4  C   UNL     1       5.688   4.636  17.438  0.00  0.00    +0.000 A 
ATOM      5  C   UNL     1       6.273   5.564  16.564  0.00  0.00    +0.000 A 
ATOM      6 CL   UNL     1       5.806   5.485  14.923  0.00  0.00    +0.000 Cl
ATOM      7  C   UNL     1       7.198   6.502  17.032  0.00  0.00    +0.000 A 
ATOM      8  C   UNL     1       7.545   6.514  18.386  0.00  0.00    +0.000 A 
ATOM      9  C   UNL     1       6.978   5.602  19.293  0.00  0.00    +0.000 A 
ATOM     10  C   UNL     1       6.063   4.685  18.775  0.00  0.00    +0.000 A 
ATOM     11  O   UNL     1       5.380   3.694  19.428  0.00  0.00    +0.000 OA
ENDBRANCH   1   2
BRANCH   1  12
ATOM     12  C   UNL     1       2.215   2.402  19.713  0.00  0.00    +0.000 C 
BRANCH  12  13
ATOM     13  C   UNL     1       1.606   3.596  18.954  0.00  0.00    +0.000 C 
BRANCH  13  15
ATOM     14  O   UNL     1       0.974   4.799  20.932  0.00  0.00    +0.000 OA
ATOM     15  C   UNL     1       1.514   4.835  19.834  0.00  0.00    +0.000 C 
ATOM     16  N   UNL     1       2.104   5.993  19.350  0.00  0.00    +0.000 N 
ATOM     17  C   UNL     1       2.175   7.189  20.171  0.00  0.00    +0.000 C 
ATOM     18  C   UNL     1       1.982   8.329  19.187  0.00  0.00    +0.000 C 
ATOM     19  C   UNL     1       2.658   7.809  17.924  0.00  0.00    +0.000 C 
ATOM     20  C   UNL     1       2.428   6.296  17.963  0.00  0.00    +0.000 C 
ENDBRANCH  13  15
ENDBRANCH  12  13
ENDBRANCH   1  12
TORSDOF 4
ENDMDL
MODEL 5
REMARK VINA RESULT:      -6.8      2.774      6.109
REMARK  Name = 
REMARK  4 active torsions:
REMARK  status: ('A' for Active; 'I' for Inactive)
REMARK    1  A    between atoms: C_2  and  C_3
REMARK    2  A    between atoms: C_3  and  C_4
REMARK    3  A    between atoms: C_4  and  S_5
REMARK    4  A    between atoms: S_5  and  C_6
REMARK                            x       y       z     vdW  Elec       q    Type
REMARK                         _______ _______ _______ _____ _____    ______ ____
ROOT
ATOM      1  S   UNL     1       3.907   2.359  20.199  0.00  0.00    +0.000 S 
ENDROOT
BRANCH   1   2
ATOM      2  C   UNL     1       4.718   3.236  18.924  0.00  0.00    +0.000 A 
ATOM      3  N   UNL     1       5.658   4.127  19.157  0.00  0.00    +0.000 NA
ATOM      4  C   UNL     1       5.999   4.613  17.913  0.00  0.00    +0.000 A 
ATOM      5  C   UNL     1       6.913   5.589  17.488  0.00  0.00    +0.000 A 
ATOM      6 CL   UNL     1       7.831   6.370  18.696  0.00  0.00    +0.000 Cl
ATOM      7  C   UNL     1       7.048   5.897  16.130  0.00  0.00    +0.000 A 
ATOM      8  C   UNL     1       6.263   5.227  15.188  0.00  0.00    +0.000 A 
ATOM      9  C   UNL     1       5.339   4.241  15.575  0.00  0.00    +0.000 A 
ATOM     10  C   UNL     1       5.240   3.973  16.941  0.00  0.00    +0.000 A 
ATOM     11  O   UNL     1       4.424   3.079  17.582  0.00  0.00    +0.000 OA
ENDBRANCH   1   2
BRANCH   1  12
ATOM     12  C   UNL     1       2.166   2.266  19.600  0.00  0.00    +0.000 C 
BRANCH  12  13
ATOM     13  C   UNL     1       1.838   3.522  18.771  0.00  0.00    +0.000 C 
BRANCH  13  15
ATOM     14  O   UNL     1       0.962   4.661  20.693  0.00  0.00    +0.000 OA
ATOM     15  C   UNL     1       1.610   4.739  19.658  0.00  0.00    +0.000 C 
ATOM     16  N   UNL     1       2.204   5.926  19.258  0.00  0.00    +0.000 N 
ATOM     17  C   UNL     1       2.147   7.106  20.102  0.00  0.00    +0.000 C 
ATOM     18  C   UNL     1       2.015   8.259  19.124  0.00  0.00    +0.000 C 
ATOM     19  C   UNL     1       2.837   7.789  17.928  0.00  0.00    +0.000 C 
ATOM     20  C   UNL     1       2.659   6.269  17.917  0.00  0.00    +0.000 C 
ENDBRANCH  13  15
ENDBRANCH  12  13
ENDBRANCH   1  12
TORSDOF 4
ENDMDL
MODEL 6
REMARK VINA RESULT:      -6.8      2.903      7.202
REMARK  Name = 
REMARK  4 active torsions:
REMARK  status: ('A' for Active; 'I' for Inactive)
REMARK    1  A    between atoms: C_2  and  C_3
REMARK    2  A    between atoms: C_3  and  C_4
REMARK    3  A    between atoms: C_4  and  S_5
REMARK    4  A    between atoms: S_5  and  C_6
REMARK                            x       y       z     vdW  Elec       q    Type
REMARK                         _______ _______ _______ _____ _____    ______ ____
ROOT
ATOM      1  S   UNL     1       5.703   6.252  17.640  0.00  0.00    +0.000 S 
ENDROOT
BRANCH   1   2
ATOM      2  C   UNL     1       5.996   5.509  16.086  0.00  0.00    +0.000 A 
ATOM      3  N   UNL     1       7.043   5.796  15.343  0.00  0.00    +0.000 NA
ATOM      4  C   UNL     1       6.881   5.044  14.199  0.00  0.00    +0.000 A 
ATOM      5  C   UNL     1       7.636   4.921  13.024  0.00  0.00    +0.000 A 
ATOM      6 CL   UNL     1       9.064   5.851  12.918  0.00  0.00    +0.000 Cl
ATOM      7  C   UNL     1       7.221   4.071  11.993  0.00  0.00    +0.000 A 
ATOM      8  C   UNL     1       6.039   3.339  12.137  0.00  0.00    +0.000 A 
ATOM      9  C   UNL     1       5.257   3.434  13.301  0.00  0.00    +0.000 A 
ATOM     10  C   UNL     1       5.713   4.297  14.297  0.00  0.00    +0.000 A 
ATOM     11  O   UNL     1       5.147   4.581  15.511  0.00  0.00    +0.000 OA
ENDBRANCH   1   2
BRANCH   1  12
ATOM     12  C   UNL     1       3.989   6.910  17.472  0.00  0.00    +0.000 C 
BRANCH  12  13
ATOM     13  C   UNL     1       3.133   6.426  18.657  0.00  0.00    +0.000 C 
BRANCH  13  15
ATOM     14  O   UNL     1       2.321   4.598  17.331  0.00  0.00    +0.000 OA
ATOM     15  C   UNL     1       2.627   5.006  18.444  0.00  0.00    +0.000 C 
ATOM     16  N   UNL     1       2.568   4.187  19.561  0.00  0.00    +0.000 N 
ATOM     17  C   UNL     1       2.218   2.783  19.436  0.00  0.00    +0.000 C 
ATOM     18  C   UNL     1       1.403   2.488  20.682  0.00  0.00    +0.000 C 
ATOM     19  C   UNL     1       2.054   3.379  21.735  0.00  0.00    +0.000 C 
ATOM     20  C   UNL     1       2.526   4.609  20.955  0.00  0.00    +0.000 C 
ENDBRANCH  13  15
ENDBRANCH  12  13
ENDBRANCH   1  12
TORSDOF 4
ENDMDL
MODEL 7
REMARK VINA RESULT:      -6.8      2.935      6.821
REMARK  Name = 
REMARK  4 active torsions:
REMARK  status: ('A' for Active; 'I' for Inactive)
REMARK    1  A    between atoms: C_2  and  C_3
REMARK    2  A    between atoms: C_3  and  C_4
REMARK    3  A    between atoms: C_4  and  S_5
REMARK    4  A    between atoms: S_5  and  C_6
REMARK                            x       y       z     vdW  Elec       q    Type
REMARK                         _______ _______ _______ _____ _____    ______ ____
ROOT
ATOM      1  S   UNL     1       6.517   4.885  17.940  0.00  0.00    +0.000 S 
ENDROOT
BRANCH   1   2
ATOM      2  C   UNL     1       6.584   4.615  16.215  0.00  0.00    +0.000 A 
ATOM      3  N   UNL     1       7.472   5.192  15.436  0.00  0.00    +0.000 NA
ATOM      4  C   UNL     1       7.162   4.760  14.165  0.00  0.00    +0.000 A 
ATOM      5  C   UNL     1       7.712   5.030  12.904  0.00  0.00    +0.000 A 
ATOM      6 CL   UNL     1       9.046   6.094  12.851  0.00  0.00    +0.000 Cl
ATOM      7  C   UNL     1       7.177   4.447  11.750  0.00  0.00    +0.000 A 
ATOM      8  C   UNL     1       6.080   3.588  11.857  0.00  0.00    +0.000 A 
ATOM      9  C   UNL     1       5.502   3.291  13.103  0.00  0.00    +0.000 A 
ATOM     10  C   UNL     1       6.071   3.900  14.222  0.00  0.00    +0.000 A 
ATOM     11  O   UNL     1       5.703   3.792  15.537  0.00  0.00    +0.000 OA
ENDBRANCH   1   2
BRANCH   1  12
ATOM     12  C   UNL     1       5.424   6.361  18.090  0.00  0.00    +0.000 C 
BRANCH  12  13
ATOM     13  C   UNL     1       4.056   6.057  17.450  0.00  0.00    +0.000 C 
BRANCH  13  15
ATOM     14  O   UNL     1       2.688   6.505  19.371  0.00  0.00    +0.000 OA
ATOM     15  C   UNL     1       3.009   5.707  18.499  0.00  0.00    +0.000 C 
ATOM     16  N   UNL     1       2.409   4.461  18.396  0.00  0.00    +0.000 N 
ATOM     17  C   UNL     1       1.314   4.089  19.273  0.00  0.00    +0.000 C 
ATOM     18  C   UNL     1       1.535   2.611  19.539  0.00  0.00    +0.000 C 
ATOM     19  C   UNL     1       2.121   2.110  18.224  0.00  0.00    +0.000 C 
ATOM     20  C   UNL     1       2.927   3.297  17.690  0.00  0.00    +0.000 C 
ENDBRANCH  13  15
ENDBRANCH  12  13
ENDBRANCH   1  12
TORSDOF 4
ENDMDL
MODEL 8
REMARK VINA RESULT:      -6.6      1.094      1.113
REMARK  Name = 
REMARK  4 active torsions:
REMARK  status: ('A' for Active; 'I' for Inactive)
REMARK    1  A    between atoms: C_2  and  C_3
REMARK    2  A    between atoms: C_3  and  C_4
REMARK    3  A    between atoms: C_4  and  S_5
REMARK    4  A    between atoms: S_5  and  C_6
REMARK                            x       y       z     vdW  Elec       q    Type
REMARK                         _______ _______ _______ _____ _____    ______ ____
ROOT
ATOM      1  S   UNL     1       6.892   5.467  19.027  0.00  0.00    +0.000 S 
ENDROOT
BRANCH   1   2
ATOM      2  C   UNL     1       5.329   4.693  19.115  0.00  0.00    +0.000 A 
ATOM      3  N   UNL     1       4.260   5.171  18.516  0.00  0.00    +0.000 NA
ATOM      4  C   UNL     1       3.243   4.308  18.865  0.00  0.00    +0.000 A 
ATOM      5  C   UNL     1       1.873   4.280  18.571  0.00  0.00    +0.000 A 
ATOM      6 CL   UNL     1       1.267   5.529  17.577  0.00  0.00    +0.000 Cl
ATOM      7  C   UNL     1       1.052   3.268  19.082  0.00  0.00    +0.000 A 
ATOM      8  C   UNL     1       1.606   2.276  19.895  0.00  0.00    +0.000 A 
ATOM      9  C   UNL     1       2.976   2.268  20.210  0.00  0.00    +0.000 A 
ATOM     10  C   UNL     1       3.750   3.301  19.679  0.00  0.00    +0.000 A 
ATOM     11  O   UNL     1       5.090   3.534  19.833  0.00  0.00    +0.000 OA
ENDBRANCH   1   2
BRANCH   1  12
ATOM     12  C   UNL     1       7.693   4.631  17.593  0.00  0.00    +0.000 C 
BRANCH  12  13
ATOM     13  C   UNL     1       7.203   5.273  16.282  0.00  0.00    +0.000 C 
BRANCH  13  15
ATOM     14  O   UNL     1       5.686   3.441  15.958  0.00  0.00    +0.000 OA
ATOM     15  C   UNL     1       6.399   4.291  15.440  0.00  0.00    +0.000 C 
ATOM     16  N   UNL     1       6.481   4.431  14.063  0.00  0.00    +0.000 N 
ATOM     17  C   UNL     1       5.655   3.624  13.183  0.00  0.00    +0.000 C 
ATOM     18  C   UNL     1       6.546   3.343  11.987  0.00  0.00    +0.000 C 
ATOM     19  C   UNL     1       7.372   4.620  11.870  0.00  0.00    +0.000 C 
ATOM     20  C   UNL     1       7.534   5.103  13.313  0.00  0.00    +0.000 C 
ENDBRANCH  13  15
ENDBRANCH  12  13
ENDBRANCH   1  12
TORSDOF 4
ENDMDL
MODEL 9
REMARK VINA RESULT:      -6.6      2.696      6.941
REMARK  Name = 
REMARK  4 active torsions:
REMARK  status: ('A' for Active; 'I' for Inactive)
REMARK    1  A    between atoms: C_2  and  C_3
REMARK    2  A    between atoms: C_3  and  C_4
REMARK    3  A    between atoms: C_4  and  S_5
REMARK    4  A    between atoms: S_5  and  C_6
REMARK                            x       y       z     vdW  Elec       q    Type
REMARK                         _______ _______ _______ _____ _____    ______ ____
ROOT
ATOM      1  S   UNL     1       6.923   6.444  17.967  0.00  0.00    +0.000 S 
ENDROOT
BRANCH   1   2
ATOM      2  C   UNL     1       6.807   5.672  16.404  0.00  0.00    +0.000 A 
ATOM      3  N   UNL     1       7.624   5.945  15.410  0.00  0.00    +0.000 NA
ATOM      4  C   UNL     1       7.175   5.173  14.360  0.00  0.00    +0.000 A 
ATOM      5  C   UNL     1       7.600   5.028  13.032  0.00  0.00    +0.000 A 
ATOM      6 CL   UNL     1       8.947   5.955  12.543  0.00  0.00    +0.000 Cl
ATOM      7  C   UNL     1       6.935   4.160  12.159  0.00  0.00    +0.000 A 
ATOM      8  C   UNL     1       5.834   3.430  12.617  0.00  0.00    +0.000 A 
ATOM      9  C   UNL     1       5.380   3.547  13.943  0.00  0.00    +0.000 A 
ATOM     10  C   UNL     1       6.075   4.428  14.771  0.00  0.00    +0.000 A 
ATOM     11  O   UNL     1       5.841   4.734  16.085  0.00  0.00    +0.000 OA
ENDBRANCH   1   2
BRANCH   1  12
ATOM     12  C   UNL     1       6.428   5.104  19.132  0.00  0.00    +0.000 C 
BRANCH  12  13
ATOM     13  C   UNL     1       4.918   5.201  19.419  0.00  0.00    +0.000 C 
BRANCH  13  15
ATOM     14  O   UNL     1       4.733   2.989  18.506  0.00  0.00    +0.000 OA
ATOM     15  C   UNL     1       4.212   3.875  19.172  0.00  0.00    +0.000 C 
ATOM     16  N   UNL     1       2.973   3.704  19.770  0.00  0.00    +0.000 N 
ATOM     17  C   UNL     1       2.281   2.429  19.694  0.00  0.00    +0.000 C 
ATOM     18  C   UNL     1       0.815   2.805  19.575  0.00  0.00    +0.000 C 
ATOM     19  C   UNL     1       0.718   4.071  20.420  0.00  0.00    +0.000 C 
ATOM     20  C   UNL     1       2.079   4.751  20.247  0.00  0.00    +0.000 C 
ENDBRANCH  13  15
ENDBRANCH  12  13
ENDBRANCH   1  12
TORSDOF 4
ENDMDL
