MODEL 1
REMARK VINA RESULT:      -7.9      0.000      0.000
REMARK  Name = 
REMARK  6 active torsions:
REMARK  status: ('A' for Active; 'I' for Inactive)
REMARK    1  A    between atoms: C_1  and  C_2
REMARK    2  A    between atoms: C_2  and  C_3
REMARK    3  A    between atoms: C_2  and  C_4
REMARK    4  A    between atoms: C_7  and  C_8
REMARK    5  A    between atoms: N_10  and  C_11
REMARK    6  A    between atoms: C_16  and  C_17
REMARK                            x       y       z     vdW  Elec       q    Type
REMARK                         _______ _______ _______ _____ _____    ______ ____
ROOT
ATOM      1  C   UNL     1       5.582   4.469  18.394  0.00  0.00    +0.000 C 
ATOM      2  O   UNL     1       6.261   4.500  19.421  0.00  0.00    +0.000 OA
ATOM      3  N   UNL     1       4.245   4.115  18.380  0.00  0.00    +0.000 N 
ATOM      4  H   UNL     1       3.888   3.728  17.504  0.00  0.00    +0.000 HD
ENDROOT
BRANCH   3   5
ATOM      5  C   UNL     1       3.481   3.823  19.530  0.00  0.00    +0.000 A 
ATOM      6  C   UNL     1       3.581   2.570  20.150  0.00  0.00    +0.000 A 
ATOM      7  C   UNL     1       2.845   2.287  21.300  0.00  0.00    +0.000 A 
ATOM      8  C   UNL     1       1.994   3.250  21.834  0.00  0.00    +0.000 A 
ATOM      9  C   UNL     1       1.889   4.501  21.225  0.00  0.00    +0.000 A 
ATOM     10  C   UNL     1       2.632   4.810  20.072  0.00  0.00    +0.000 A 
BRANCH  10  11
ATOM     11  C   UNL     1       2.456   6.115  19.418  0.00  0.00    +0.000 A 
ATOM     12  N   UNL     1       2.491   6.365  18.118  0.00  0.00    +0.000 NA
ATOM     13  C   UNL     1       2.291   7.719  17.988  0.00  0.00    +0.000 A 
ATOM     14  C   UNL     1       2.085   8.299  19.215  0.00  0.00    +0.000 A 
ATOM     15  N   UNL     1       2.165   7.274  20.107  0.00  0.00    +0.000 N 
ATOM     16  H   UNL     1       2.024   7.333  21.106  0.00  0.00    +0.000 HD
ENDBRANCH  10  11
ENDBRANCH   3   5
BRANCH   1  20
ATOM     17  C   UNL     1       6.710   4.972  14.739  0.00  0.00    +0.000 A 
ATOM     18  N   UNL     1       7.557   5.675  15.460  0.00  0.00    +0.000 NA
ATOM     19  C   UNL     1       7.241   5.547  16.802  0.00  0.00    +0.000 A 
ATOM     20  C   UNL     1       6.163   4.735  17.093  0.00  0.00    +0.000 A 
ATOM     21  S   UNL     1       5.529   4.098  15.635  0.00  0.00    +0.000 S 
BRANCH  17  23
ATOM     22  C   UNL     1       8.077   5.306  12.671  0.00  0.00    +0.000 C 
ATOM     23  C   UNL     1       6.718   4.891  13.234  0.00  0.00    +0.000 C 
ATOM     24  C   UNL     1       6.342   3.485  12.769  0.00  0.00    +0.000 C 
ENDBRANCH  17  23
ENDBRANCH   1  20
TORSDOF 4
ENDMDL
MODEL 2
REMARK VINA RESULT:      -7.4      1.434      3.248
REMARK  Name = 
REMARK  6 active torsions:
REMARK  status: ('A' for Active; 'I' for Inactive)
REMARK    1  A    between atoms: C_1  and  C_2
REMARK    2  A    between atoms: C_2  and  C_3
REMARK    3  A    between atoms: C_2  and  C_4
REMARK    4  A    between atoms: C_7  and  C_8
REMARK    5  A    between atoms: N_10  and  C_11
REMARK    6  A    between atoms: C_16  and  C_17
REMARK                            x       y       z     vdW  Elec       q    Type
REMARK                         _______ _______ _______ _____ _____    ______ ____
ROOT
ATOM      1  C   UNL     1       5.251   5.496  17.628  0.00  0.00    +0.000 C 
ATOM      2  O   UNL     1       5.852   5.443  18.701  0.00  0.00    +0.000 OA
ATOM      3  N   UNL     1       3.901   5.780  17.528  0.00  0.00    +0.000 N 
ATOM      4  H   UNL     1       3.420   5.413  16.704  0.00  0.00    +0.000 HD
ENDROOT
BRANCH   3   5
ATOM      5  C   UNL     1       3.070   6.115  18.618  0.00  0.00    +0.000 A 
ATOM      6  C   UNL     1       2.713   7.449  18.856  0.00  0.00    +0.000 A 
ATOM      7  C   UNL     1       1.873   7.780  19.919  0.00  0.00    +0.000 A 
ATOM      8  C   UNL     1       1.391   6.782  20.759  0.00  0.00    +0.000 A 
ATOM      9  C   UNL     1       1.739   5.450  20.529  0.00  0.00    +0.000 A 
ATOM     10  C   UNL     1       2.575   5.094  19.456  0.00  0.00    +0.000 A 
BRANCH  10  11
ATOM     11  C   UNL     1       2.972   3.691  19.274  0.00  0.00    +0.000 A 
ATOM     12  N   UNL     1       2.502   2.841  18.375  0.00  0.00    +0.000 NA
ATOM     13  C   UNL     1       3.158   1.653  18.598  0.00  0.00    +0.000 A 
ATOM     14  C   UNL     1       4.072   1.787  19.613  0.00  0.00    +0.000 A 
ATOM     15  N   UNL     1       3.965   3.083  20.014  0.00  0.00    +0.000 N 
ATOM     16  H   UNL     1       4.521   3.541  20.724  0.00  0.00    +0.000 HD
ENDBRANCH  10  11
ENDBRANCH   3   5
BRANCH   1  20
ATOM     17  C   UNL     1       6.578   4.442  14.161  0.00  0.00    +0.000 A 
ATOM     18  N   UNL     1       7.459   5.308  14.618  0.00  0.00    +0.000 NA
ATOM     19  C   UNL     1       7.074   5.739  15.876  0.00  0.00    +0.000 A 
ATOM     20  C   UNL     1       5.910   5.188  16.374  0.00  0.00    +0.000 A 
ATOM     21  S   UNL     1       5.281   4.078  15.231  0.00  0.00    +0.000 S 
BRANCH  17  23
ATOM     22  C   UNL     1       5.242   3.422  12.310  0.00  0.00    +0.000 C 
ATOM     23  C   UNL     1       6.642   3.777  12.810  0.00  0.00    +0.000 C 
ATOM     24  C   UNL     1       7.370   4.669  11.806  0.00  0.00    +0.000 C 
ENDBRANCH  17  23
ENDBRANCH   1  20
TORSDOF 4
ENDMDL
MODEL 3
REMARK VINA RESULT:      -7.2      3.505      7.678
REMARK  Name = 
REMARK  6 active torsions:
REMARK  status: ('A' for Active; 'I' for Inactive)
REMARK    1  A    between atoms: C_1  and  C_2
REMARK    2  A    between atoms: C_2  and  C_3
REMARK    3  A    between atoms: C_2  and  C_4
REMARK    4  A    between atoms: C_7  and  C_8
REMARK    5  A    between atoms: N_10  and  C_11
REMARK    6  A    between atoms: C_16  and  C_17
REMARK                            x       y       z     vdW  Elec       q    Type
REMARK                         _______ _______ _______ _____ _____    ______ ____
ROOT
ATOM      1  C   UNL     1       2.246   8.121  18.460  0.00  0.00    +0.000 C 
ATOM      2  O   UNL     1       2.214   8.609  17.330  0.00  0.00    +0.000 OA
ATOM      3  N   UNL     1       2.890   6.932  18.755  0.00  0.00    +0.000 N 
ATOM      4  H   UNL     1       2.537   6.415  19.563  0.00  0.00    +0.000 HD
ENDROOT
BRANCH   3   5
ATOM      5  C   UNL     1       3.644   6.178  17.831  0.00  0.00    +0.000 A 
ATOM      6  C   UNL     1       4.594   6.803  17.012  0.00  0.00    +0.000 A 
ATOM      7  C   UNL     1       5.357   6.056  16.114  0.00  0.00    +0.000 A 
ATOM      8  C   UNL     1       5.169   4.681  16.020  0.00  0.00    +0.000 A 
ATOM      9  C   UNL     1       4.226   4.050  16.832  0.00  0.00    +0.000 A 
ATOM     10  C   UNL     1       3.455   4.783  17.752  0.00  0.00    +0.000 A 
BRANCH  10  11
ATOM     11  C   UNL     1       2.429   4.100  18.552  0.00  0.00    +0.000 A 
ATOM     12  N   UNL     1       2.102   4.352  19.811  0.00  0.00    +0.000 NA
ATOM     13  C   UNL     1       1.108   3.457  20.130  0.00  0.00    +0.000 A 
ATOM     14  C   UNL     1       0.789   2.680  19.045  0.00  0.00    +0.000 A 
ATOM     15  N   UNL     1       1.609   3.112  18.048  0.00  0.00    +0.000 N 
ATOM     16  H   UNL     1       1.619   2.783  17.092  0.00  0.00    +0.000 HD
ENDBRANCH  10  11
ENDBRANCH   3   5
BRANCH   1  20
ATOM     17  C   UNL     1       0.162  10.053  21.069  0.00  0.00    +0.000 A 
ATOM     18  N   UNL     1       0.611   8.992  21.705  0.00  0.00    +0.000 NA
ATOM     19  C   UNL     1       1.390   8.234  20.848  0.00  0.00    +0.000 A 
ATOM     20  C   UNL     1       1.539   8.730  19.568  0.00  0.00    +0.000 A 
ATOM     21  S   UNL     1       0.683  10.208  19.437  0.00  0.00    +0.000 S 
BRANCH  17  23
ATOM     22  C   UNL     1      -1.105  10.747  23.111  0.00  0.00    +0.000 C 
ATOM     23  C   UNL     1      -0.746  11.098  21.667  0.00  0.00    +0.000 C 
ATOM     24  C   UNL     1      -0.101  12.480  21.587  0.00  0.00    +0.000 C 
ENDBRANCH  17  23
ENDBRANCH   1  20
TORSDOF 4
ENDMDL
MODEL 4
REMARK VINA RESULT:      -7.2      2.701      7.071
REMARK  Name = 
REMARK  6 active torsions:
REMARK  status: ('A' for Active; 'I' for Inactive)
REMARK    1  A    between atoms: C_1  and  C_2
REMARK    2  A    between atoms: C_2  and  C_3
REMARK    3  A    between atoms: C_2  and  C_4
REMARK    4  A    between atoms: C_7  and  C_8
REMARK    5  A    between atoms: N_10  and  C_11
REMARK    6  A    between atoms: C_16  and  C_17
REMARK                            x       y       z     vdW  Elec       q    Type
REMARK                         _______ _______ _______ _____ _____    ______ ____
ROOT
ATOM      1  C   UNL     1       4.495   4.364  16.460  0.00  0.00    +0.000 C 
ATOM      2  O   UNL     1       4.413   5.582  16.294  0.00  0.00    +0.000 OA
ATOM      3  N   UNL     1       5.255   3.539  15.650  0.00  0.00    +0.000 N 
ATOM      4  H   UNL     1       4.958   2.563  15.592  0.00  0.00    +0.000 HD
ENDROOT
BRANCH   3   5
ATOM      5  C   UNL     1       6.078   3.988  14.595  0.00  0.00    +0.000 A 
ATOM      6  C   UNL     1       5.867   3.533  13.287  0.00  0.00    +0.000 A 
ATOM      7  C   UNL     1       6.665   3.993  12.239  0.00  0.00    +0.000 A 
ATOM      8  C   UNL     1       7.685   4.903  12.492  0.00  0.00    +0.000 A 
ATOM      9  C   UNL     1       7.902   5.363  13.791  0.00  0.00    +0.000 A 
ATOM     10  C   UNL     1       7.102   4.921  14.860  0.00  0.00    +0.000 A 
BRANCH  10  11
ATOM     11  C   UNL     1       7.391   5.378  16.226  0.00  0.00    +0.000 A 
ATOM     12  N   UNL     1       7.744   4.627  17.258  0.00  0.00    +0.000 NA
ATOM     13  C   UNL     1       7.892   5.488  18.320  0.00  0.00    +0.000 A 
ATOM     14  C   UNL     1       7.673   6.785  17.926  0.00  0.00    +0.000 A 
ATOM     15  N   UNL     1       7.384   6.706  16.598  0.00  0.00    +0.000 N 
ATOM     16  H   UNL     1       7.206   7.481  15.974  0.00  0.00    +0.000 HD
ENDBRANCH  10  11
ENDBRANCH   3   5
BRANCH   1  20
ATOM     17  C   UNL     1       2.239   3.001  19.277  0.00  0.00    +0.000 A 
ATOM     18  N   UNL     1       2.779   1.936  18.723  0.00  0.00    +0.000 NA
ATOM     19  C   UNL     1       3.625   2.325  17.699  0.00  0.00    +0.000 A 
ATOM     20  C   UNL     1       3.733   3.686  17.489  0.00  0.00    +0.000 A 
ATOM     21  S   UNL     1       2.750   4.509  18.625  0.00  0.00    +0.000 S 
BRANCH  17  23
ATOM     22  C   UNL     1       1.883   2.451  21.691  0.00  0.00    +0.000 C 
ATOM     23  C   UNL     1       1.241   2.974  20.406  0.00  0.00    +0.000 C 
ATOM     24  C   UNL     1       0.638   4.360  20.624  0.00  0.00    +0.000 C 
ENDBRANCH  17  23
ENDBRANCH   1  20
TORSDOF 4
ENDMDL
MODEL 5
REMARK VINA RESULT:      -7.1      3.517      7.734
REMARK  Name = 
REMARK  6 active torsions:
REMARK  status: ('A' for Active; 'I' for Inactive)
REMARK    1  A    between atoms: C_1  and  C_2
REMARK    2  A    between atoms: C_2  and  C_3
REMARK    3  A    between atoms: C_2  and  C_4
REMARK    4  A    between atoms: C_7  and  C_8
REMARK    5  A    between atoms: N_10  and  C_11
REMARK    6  A    between atoms: C_16  and  C_17
REMARK                            x       y       z     vdW  Elec       q    Type
REMARK                         _______ _______ _______ _____ _____    ______ ____
ROOT
ATOM      1  C   UNL     1       2.054   8.459  18.314  0.00  0.00    +0.000 C 
ATOM      2  O   UNL     1       2.282   8.950  17.208  0.00  0.00    +0.000 OA
ATOM      3  N   UNL     1       2.559   7.236  18.719  0.00  0.00    +0.000 N 
ATOM      4  H   UNL     1       2.021   6.738  19.431  0.00  0.00    +0.000 HD
ENDROOT
BRANCH   3   5
ATOM      5  C   UNL     1       3.445   6.443  17.960  0.00  0.00    +0.000 A 
ATOM      6  C   UNL     1       4.405   7.043  17.134  0.00  0.00    +0.000 A 
ATOM      7  C   UNL     1       5.298   6.262  16.400  0.00  0.00    +0.000 A 
ATOM      8  C   UNL     1       5.230   4.875  16.477  0.00  0.00    +0.000 A 
ATOM      9  C   UNL     1       4.279   4.268  17.298  0.00  0.00    +0.000 A 
ATOM     10  C   UNL     1       3.378   5.038  18.055  0.00  0.00    +0.000 A 
BRANCH  10  11
ATOM     11  C   UNL     1       2.348   4.371  18.864  0.00  0.00    +0.000 A 
ATOM     12  N   UNL     1       1.983   4.679  20.099  0.00  0.00    +0.000 NA
ATOM     13  C   UNL     1       1.004   3.777  20.440  0.00  0.00    +0.000 A 
ATOM     14  C   UNL     1       0.732   2.936  19.390  0.00  0.00    +0.000 A 
ATOM     15  N   UNL     1       1.567   3.337  18.393  0.00  0.00    +0.000 N 
ATOM     16  H   UNL     1       1.609   2.961  17.455  0.00  0.00    +0.000 HD
ENDBRANCH  10  11
ENDBRANCH   3   5
BRANCH   1  20
ATOM     17  C   UNL     1      -0.096   9.881  21.185  0.00  0.00    +0.000 A 
ATOM     18  N   UNL     1      -0.295  10.695  20.170  0.00  0.00    +0.000 NA
ATOM     19  C   UNL     1       0.430  10.257  19.076  0.00  0.00    +0.000 A 
ATOM     20  C   UNL     1       1.168   9.105  19.262  0.00  0.00    +0.000 A 
ATOM     21  S   UNL     1       0.933   8.540  20.861  0.00  0.00    +0.000 S 
BRANCH  17  23
ATOM     22  C   UNL     1       0.215   9.446  23.628  0.00  0.00    +0.000 C 
ATOM     23  C   UNL     1      -0.695  10.049  22.558  0.00  0.00    +0.000 C 
ATOM     24  C   UNL     1      -0.972  11.524  22.847  0.00  0.00    +0.000 C 
ENDBRANCH  17  23
ENDBRANCH   1  20
TORSDOF 4
ENDMDL
MODEL 6
REMARK VINA RESULT:      -7.0      3.410      7.611
REMARK  Name = 
REMARK  6 active torsions:
REMARK  status: ('A' for Active; 'I' for Inactive)
REMARK    1  A    between atoms: C_1  and  C_2
REMARK    2  A    between atoms: C_2  and  C_3
REMARK    3  A    between atoms: C_2  and  C_4
REMARK    4  A    between atoms: C_7  and  C_8
REMARK    5  A    between atoms: N_10  and  C_11
REMARK    6  A    between atoms: C_16  and  C_17
REMARK                            x       y       z     vdW  Elec       q    Type
REMARK                         _______ _______ _______ _____ _____    ______ ____
ROOT
ATOM      1  C   UNL     1       2.212   7.941  18.596  0.00  0.00    +0.000 C 
ATOM      2  O   UNL     1       1.947   8.292  17.446  0.00  0.00    +0.000 OA
ATOM      3  N   UNL     1       3.035   6.868  18.891  0.00  0.00    +0.000 N 
ATOM      4  H   UNL     1       2.877   6.410  19.790  0.00  0.00    +0.000 HD
ENDROOT
BRANCH   3   5
ATOM      5  C   UNL     1       3.726   6.101  17.929  0.00  0.00    +0.000 A 
ATOM      6  C   UNL     1       4.570   6.720  16.999  0.00  0.00    +0.000 A 
ATOM      7  C   UNL     1       5.273   5.961  16.063  0.00  0.00    +0.000 A 
ATOM      8  C   UNL     1       5.128   4.579  16.041  0.00  0.00    +0.000 A 
ATOM      9  C   UNL     1       4.290   3.952  16.965  0.00  0.00    +0.000 A 
ATOM     10  C   UNL     1       3.583   4.698  17.925  0.00  0.00    +0.000 A 
BRANCH  10  11
ATOM     11  C   UNL     1       2.663   4.016  18.846  0.00  0.00    +0.000 A 
ATOM     12  N   UNL     1       1.344   4.123  18.877  0.00  0.00    +0.000 NA
ATOM     13  C   UNL     1       0.923   3.317  19.908  0.00  0.00    +0.000 A 
ATOM     14  C   UNL     1       1.988   2.674  20.487  0.00  0.00    +0.000 A 
ATOM     15  N   UNL     1       3.078   3.102  19.792  0.00  0.00    +0.000 N 
ATOM     16  H   UNL     1       4.033   2.800  19.925  0.00  0.00    +0.000 HD
ENDBRANCH  10  11
ENDBRANCH   3   5
BRANCH   1  20
ATOM     17  C   UNL     1       0.432  10.007  21.326  0.00  0.00    +0.000 A 
ATOM     18  N   UNL     1       0.805   8.895  21.924  0.00  0.00    +0.000 NA
ATOM     19  C   UNL     1       1.471   8.084  21.021  0.00  0.00    +0.000 A 
ATOM     20  C   UNL     1       1.612   8.591  19.745  0.00  0.00    +0.000 A 
ATOM     21  S   UNL     1       0.897  10.146  19.675  0.00  0.00    +0.000 S 
BRANCH  17  23
ATOM     22  C   UNL     1      -1.277  11.798  20.975  0.00  0.00    +0.000 C 
ATOM     23  C   UNL     1      -0.346  11.120  21.980  0.00  0.00    +0.000 C 
ATOM     24  C   UNL     1      -1.130  10.595  23.181  0.00  0.00    +0.000 C 
ENDBRANCH  17  23
ENDBRANCH   1  20
TORSDOF 4
ENDMDL
MODEL 7
REMARK VINA RESULT:      -7.0      1.990      6.869
REMARK  Name = 
REMARK  6 active torsions:
REMARK  status: ('A' for Active; 'I' for Inactive)
REMARK    1  A    between atoms: C_1  and  C_2
REMARK    2  A    between atoms: C_2  and  C_3
REMARK    3  A    between atoms: C_2  and  C_4
REMARK    4  A    between atoms: C_7  and  C_8
REMARK    5  A    between atoms: N_10  and  C_11
REMARK    6  A    between atoms: C_16  and  C_17
REMARK                            x       y       z     vdW  Elec       q    Type
REMARK                         _______ _______ _______ _____ _____    ______ ____
ROOT
ATOM      1  C   UNL     1       4.253   5.533  16.827  0.00  0.00    +0.000 C 
ATOM      2  O   UNL     1       4.467   6.690  16.463  0.00  0.00    +0.000 OA
ATOM      3  N   UNL     1       4.792   4.427  16.195  0.00  0.00    +0.000 N 
ATOM      4  H   UNL     1       4.268   3.554  16.283  0.00  0.00    +0.000 HD
ENDROOT
BRANCH   3   5
ATOM      5  C   UNL     1       5.702   4.484  15.117  0.00  0.00    +0.000 A 
ATOM      6  C   UNL     1       5.365   3.934  13.874  0.00  0.00    +0.000 A 
ATOM      7  C   UNL     1       6.253   4.010  12.801  0.00  0.00    +0.000 A 
ATOM      8  C   UNL     1       7.489   4.626  12.965  0.00  0.00    +0.000 A 
ATOM      9  C   UNL     1       7.833   5.178  14.200  0.00  0.00    +0.000 A 
ATOM     10  C   UNL     1       6.947   5.123  15.291  0.00  0.00    +0.000 A 
BRANCH  10  11
ATOM     11  C   UNL     1       7.360   5.660  16.595  0.00  0.00    +0.000 A 
ATOM     12  N   UNL     1       7.649   4.968  17.685  0.00  0.00    +0.000 NA
ATOM     13  C   UNL     1       7.967   5.895  18.649  0.00  0.00    +0.000 A 
ATOM     14  C   UNL     1       7.917   7.166  18.135  0.00  0.00    +0.000 A 
ATOM     15  N   UNL     1       7.559   7.004  16.831  0.00  0.00    +0.000 N 
ATOM     16  H   UNL     1       7.465   7.735  16.138  0.00  0.00    +0.000 HD
ENDBRANCH  10  11
ENDBRANCH   3   5
BRANCH   1  20
ATOM     17  C   UNL     1       1.850   4.271  19.569  0.00  0.00    +0.000 A 
ATOM     18  N   UNL     1       2.185   5.489  19.940  0.00  0.00    +0.000 NA
ATOM     19  C   UNL     1       3.044   6.037  19.003  0.00  0.00    +0.000 A 
ATOM     20  C   UNL     1       3.346   5.238  17.919  0.00  0.00    +0.000 A 
ATOM     21  S   UNL     1       2.513   3.749  18.070  0.00  0.00    +0.000 S 
BRANCH  17  23
ATOM     22  C   UNL     1       0.500   2.167  19.491  0.00  0.00    +0.000 C 
ATOM     23  C   UNL     1       0.952   3.347  20.352  0.00  0.00    +0.000 C 
ATOM     24  C   UNL     1       1.654   2.861  21.618  0.00  0.00    +0.000 C 
ENDBRANCH  17  23
ENDBRANCH   1  20
TORSDOF 4
ENDMDL
MODEL 8
REMARK VINA RESULT:      -7.0      1.074      1.076
REMARK  Name = 
REMARK  6 active torsions:
REMARK  status: ('A' for Active; 'I' for Inactive)
REMARK    1  A    between atoms: C_1  and  C_2
REMARK    2  A    between atoms: C_2  and  C_3
REMARK    3  A    between atoms: C_2  and  C_4
REMARK    4  A    between atoms: C_7  and  C_8
REMARK    5  A    between atoms: N_10  and  C_11
REMARK    6  A    between atoms: C_16  and  C_17
REMARK                            x       y       z     vdW  Elec       q    Type
REMARK                         _______ _______ _______ _____ _____    ______ ____
ROOT
ATOM      1  C   UNL     1       4.470   3.843  17.218  0.00  0.00    +0.000 C 
ATOM      2  O   UNL     1       3.559   3.098  16.857  0.00  0.00    +0.000 OA
ATOM      3  N   UNL     1       4.583   4.331  18.508  0.00  0.00    +0.000 N 
ATOM      4  H   UNL     1       5.084   5.216  18.615  0.00  0.00    +0.000 HD
ENDROOT
BRANCH   3   5
ATOM      5  C   UNL     1       3.727   3.983  19.575  0.00  0.00    +0.000 A 
ATOM      6  C   UNL     1       3.843   2.735  20.200  0.00  0.00    +0.000 A 
ATOM      7  C   UNL     1       3.014   2.399  21.271  0.00  0.00    +0.000 A 
ATOM      8  C   UNL     1       2.055   3.302  21.716  0.00  0.00    +0.000 A 
ATOM      9  C   UNL     1       1.933   4.549  21.100  0.00  0.00    +0.000 A 
ATOM     10  C   UNL     1       2.768   4.912  20.028  0.00  0.00    +0.000 A 
BRANCH  10  11
ATOM     11  C   UNL     1       2.576   6.207  19.361  0.00  0.00    +0.000 A 
ATOM     12  N   UNL     1       2.690   6.460  18.066  0.00  0.00    +0.000 NA
ATOM     13  C   UNL     1       2.435   7.803  17.919  0.00  0.00    +0.000 A 
ATOM     14  C   UNL     1       2.118   8.372  19.127  0.00  0.00    +0.000 A 
ATOM     15  N   UNL     1       2.184   7.350  20.025  0.00  0.00    +0.000 N 
ATOM     16  H   UNL     1       1.970   7.402  21.012  0.00  0.00    +0.000 HD
ENDBRANCH  10  11
ENDBRANCH   3   5
BRANCH   1  20
ATOM     17  C   UNL     1       6.803   5.003  14.372  0.00  0.00    +0.000 A 
ATOM     18  N   UNL     1       7.340   5.482  15.475  0.00  0.00    +0.000 NA
ATOM     19  C   UNL     1       6.575   5.104  16.565  0.00  0.00    +0.000 A 
ATOM     20  C   UNL     1       5.467   4.328  16.286  0.00  0.00    +0.000 A 
ATOM     21  S   UNL     1       5.388   4.050  14.598  0.00  0.00    +0.000 S 
BRANCH  17  23
ATOM     22  C   UNL     1       8.799   5.676  13.025  0.00  0.00    +0.000 C 
ATOM     23  C   UNL     1       7.337   5.231  12.982  0.00  0.00    +0.000 C 
ATOM     24  C   UNL     1       7.175   3.974  12.130  0.00  0.00    +0.000 C 
ENDBRANCH  17  23
ENDBRANCH   1  20
TORSDOF 4
ENDMDL
MODEL 9
REMARK VINA RESULT:      -6.9      3.363      6.220
REMARK  Name = 
REMARK  6 active torsions:
REMARK  status: ('A' for Active; 'I' for Inactive)
REMARK    1  A    between atoms: C_1  and  C_2
REMARK    2  A    between atoms: C_2  and  C_3
REMARK    3  A    between atoms: C_2  and  C_4
REMARK    4  A    between atoms: C_7  and  C_8
REMARK    5  A    between atoms: N_10  and  C_11
REMARK    6  A    between atoms: C_16  and  C_17
REMARK                            x       y       z     vdW  Elec       q    Type
REMARK                         _______ _______ _______ _____ _____    ______ ____
ROOT
ATOM      1  C   UNL     1       2.106   6.758  19.233  0.00  0.00    +0.000 C 
ATOM      2  O   UNL     1       2.071   6.390  20.408  0.00  0.00    +0.000 OA
ATOM      3  N   UNL     1       2.367   5.903  18.177  0.00  0.00    +0.000 N 
ATOM      4  H   UNL     1       2.771   6.328  17.340  0.00  0.00    +0.000 HD
ENDROOT
BRANCH   3   5
ATOM      5  C   UNL     1       2.549   4.509  18.301  0.00  0.00    +0.000 A 
ATOM      6  C   UNL     1       1.443   3.653  18.383  0.00  0.00    +0.000 A 
ATOM      7  C   UNL     1       1.620   2.273  18.481  0.00  0.00    +0.000 A 
ATOM      8  C   UNL     1       2.903   1.739  18.510  0.00  0.00    +0.000 A 
ATOM      9  C   UNL     1       4.011   2.583  18.428  0.00  0.00    +0.000 A 
ATOM     10  C   UNL     1       3.854   3.976  18.316  0.00  0.00    +0.000 A 
BRANCH  10  11
ATOM     11  C   UNL     1       5.039   4.845  18.291  0.00  0.00    +0.000 A 
ATOM     12  N   UNL     1       5.268   5.857  17.469  0.00  0.00    +0.000 NA
ATOM     13  C   UNL     1       6.501   6.355  17.814  0.00  0.00    +0.000 A 
ATOM     14  C   UNL     1       7.016   5.673  18.889  0.00  0.00    +0.000 A 
ATOM     15  N   UNL     1       6.074   4.740  19.198  0.00  0.00    +0.000 N 
ATOM     16  H   UNL     1       6.106   4.085  19.967  0.00  0.00    +0.000 HD
ENDBRANCH  10  11
ENDBRANCH   3   5
BRANCH   1  20
ATOM     17  C   UNL     1       1.521  10.541  18.744  0.00  0.00    +0.000 A 
ATOM     18  N   UNL     1       2.177  10.152  17.671  0.00  0.00    +0.000 NA
ATOM     19  C   UNL     1       2.424   8.792  17.746  0.00  0.00    +0.000 A 
ATOM     20  C   UNL     1       1.944   8.152  18.871  0.00  0.00    +0.000 A 
ATOM     21  S   UNL     1       1.140   9.293  19.865  0.00  0.00    +0.000 S 
BRANCH  17  23
ATOM     22  C   UNL     1       2.023  12.955  18.328  0.00  0.00    +0.000 C 
ATOM     23  C   UNL     1       1.102  11.959  19.033  0.00  0.00    +0.000 C 
ATOM     24  C   UNL     1      -0.354  12.183  18.629  0.00  0.00    +0.000 C 
ENDBRANCH  17  23
ENDBRANCH   1  20
TORSDOF 4
ENDMDL
