MODEL 1
REMARK VINA RESULT:      -7.5      0.000      0.000
REMARK  Name = 
REMARK  3 active torsions:
REMARK  status: ('A' for Active; 'I' for Inactive)
REMARK    1  A    between atoms: N_4  and  C_5
REMARK    2  A    between atoms: C_8  and  O_9
REMARK    3  A    between atoms: O_9  and  C_10
REMARK                            x       y       z     vdW  Elec       q    Type
REMARK                         _______ _______ _______ _____ _____    ______ ____
ROOT
ATOM      1  C   UNL     1       6.636   5.490  16.238  0.00  0.00    +0.000 A 
ATOM      2  C   UNL     1       5.355   6.066  16.301  0.00  0.00    +0.000 A 
ATOM      3  C   UNL     1       4.607   6.039  17.484  0.00  0.00    +0.000 A 
ATOM      4  C   UNL     1       5.125   5.430  18.624  0.00  0.00    +0.000 A 
ATOM      5  C   UNL     1       6.423   4.927  18.602  0.00  0.00    +0.000 A 
ATOM      6  C   UNL     1       7.163   4.948  17.413  0.00  0.00    +0.000 A 
ENDROOT
BRANCH   1  10
ATOM      7  N   UNL     1       6.480   3.767  13.756  0.00  0.00    +0.000 NA
ATOM      8  C   UNL     1       7.186   4.836  13.893  0.00  0.00    +0.000 C 
ATOM      9  N   UNL     1       7.892   5.328  12.849  0.00  0.00    +0.000 N 
ATOM     10  N   UNL     1       7.350   5.571  15.025  0.00  0.00    +0.000 N 
ATOM     11  H   UNL     1       6.533   3.427  12.798  0.00  0.00    +0.000 HD
ATOM     12  H   UNL     1       7.999   4.688  12.074  0.00  0.00    +0.000 HD
ATOM     13  H   UNL     1       8.781   5.747  13.093  0.00  0.00    +0.000 HD
ATOM     14  H   UNL     1       7.868   6.431  14.936  0.00  0.00    +0.000 HD
ENDBRANCH   1  10
BRANCH   4  15
ATOM     15  O   UNL     1       4.319   5.433  19.738  0.00  0.00    +0.000 OA
BRANCH  15  16
ATOM     16  C   UNL     1       3.277   4.536  19.827  0.00  0.00    +0.000 A 
ATOM     17  C   UNL     1       2.071   5.051  20.307  0.00  0.00    +0.000 A 
ATOM     18  C   UNL     1       0.954   4.223  20.436  0.00  0.00    +0.000 A 
ATOM     19  C   UNL     1       1.041   2.877  20.083  0.00  0.00    +0.000 A 
ATOM     20  C   UNL     1       2.232   2.367  19.571  0.00  0.00    +0.000 A 
ATOM     21  C   UNL     1       3.341   3.200  19.417  0.00  0.00    +0.000 A 
ENDBRANCH  15  16
ENDBRANCH   4  15
TORSDOF 3
ENDMDL
MODEL 2
REMARK VINA RESULT:      -7.5      0.114      1.173
REMARK  Name = 
REMARK  3 active torsions:
REMARK  status: ('A' for Active; 'I' for Inactive)
REMARK    1  A    between atoms: N_4  and  C_5
REMARK    2  A    between atoms: C_8  and  O_9
REMARK    3  A    between atoms: O_9  and  C_10
REMARK                            x       y       z     vdW  Elec       q    Type
REMARK                         _______ _______ _______ _____ _____    ______ ____
ROOT
ATOM      1  C   UNL     1       6.592   5.499  16.282  0.00  0.00    +0.000 A 
ATOM      2  C   UNL     1       5.325   6.104  16.358  0.00  0.00    +0.000 A 
ATOM      3  C   UNL     1       4.583   6.083  17.544  0.00  0.00    +0.000 A 
ATOM      4  C   UNL     1       5.092   5.451  18.675  0.00  0.00    +0.000 A 
ATOM      5  C   UNL     1       6.378   4.917  18.642  0.00  0.00    +0.000 A 
ATOM      6  C   UNL     1       7.112   4.933  17.449  0.00  0.00    +0.000 A 
ENDROOT
BRANCH   1  10
ATOM      7  N   UNL     1       6.457   3.742  13.824  0.00  0.00    +0.000 NA
ATOM      8  C   UNL     1       7.146   4.824  13.945  0.00  0.00    +0.000 C 
ATOM      9  N   UNL     1       7.841   5.313  12.893  0.00  0.00    +0.000 N 
ATOM     10  N   UNL     1       7.301   5.576  15.067  0.00  0.00    +0.000 N 
ATOM     11  H   UNL     1       6.513   3.391  12.870  0.00  0.00    +0.000 HD
ATOM     12  H   UNL     1       7.957   4.665  12.126  0.00  0.00    +0.000 HD
ATOM     13  H   UNL     1       8.724   5.750  13.129  0.00  0.00    +0.000 HD
ATOM     14  H   UNL     1       7.806   6.443  14.965  0.00  0.00    +0.000 HD
ENDBRANCH   1  10
BRANCH   4  15
ATOM     15  O   UNL     1       4.291   5.461  19.794  0.00  0.00    +0.000 OA
BRANCH  15  16
ATOM     16  C   UNL     1       3.198   4.625  19.856  0.00  0.00    +0.000 A 
ATOM     17  C   UNL     1       3.425   3.298  19.488  0.00  0.00    +0.000 A 
ATOM     18  C   UNL     1       2.382   2.371  19.515  0.00  0.00    +0.000 A 
ATOM     19  C   UNL     1       1.106   2.770  19.913  0.00  0.00    +0.000 A 
ATOM     20  C   UNL     1       0.883   4.086  20.314  0.00  0.00    +0.000 A 
ATOM     21  C   UNL     1       1.930   5.006  20.312  0.00  0.00    +0.000 A 
ENDBRANCH  15  16
ENDBRANCH   4  15
TORSDOF 3
ENDMDL
MODEL 3
REMARK VINA RESULT:      -7.4      0.184      1.178
REMARK  Name = 
REMARK  3 active torsions:
REMARK  status: ('A' for Active; 'I' for Inactive)
REMARK    1  A    between atoms: N_4  and  C_5
REMARK    2  A    between atoms: C_8  and  O_9
REMARK    3  A    between atoms: O_9  and  C_10
REMARK                            x       y       z     vdW  Elec       q    Type
REMARK                         _______ _______ _______ _____ _____    ______ ____
ROOT
ATOM      1  C   UNL     1       6.542   5.523  16.084  0.00  0.00    +0.000 A 
ATOM      2  C   UNL     1       7.070   4.830  17.188  0.00  0.00    +0.000 A 
ATOM      3  C   UNL     1       6.352   4.719  18.384  0.00  0.00    +0.000 A 
ATOM      4  C   UNL     1       5.093   5.304  18.499  0.00  0.00    +0.000 A 
ATOM      5  C   UNL     1       4.521   5.923  17.391  0.00  0.00    +0.000 A 
ATOM      6  C   UNL     1       5.249   6.040  16.200  0.00  0.00    +0.000 A 
ENDROOT
BRANCH   1  10
ATOM      7  N   UNL     1       6.463   3.766  13.624  0.00  0.00    +0.000 NA
ATOM      8  C   UNL     1       7.175   4.829  13.773  0.00  0.00    +0.000 C 
ATOM      9  N   UNL     1       7.926   5.298  12.750  0.00  0.00    +0.000 N 
ATOM     10  N   UNL     1       7.303   5.579  14.899  0.00  0.00    +0.000 N 
ATOM     11  H   UNL     1       6.549   3.411  12.673  0.00  0.00    +0.000 HD
ATOM     12  H   UNL     1       8.056   4.645  11.988  0.00  0.00    +0.000 HD
ATOM     13  H   UNL     1       8.809   5.712  13.022  0.00  0.00    +0.000 HD
ATOM     14  H   UNL     1       7.834   6.432  14.818  0.00  0.00    +0.000 HD
ENDBRANCH   1  10
BRANCH   4  15
ATOM     15  O   UNL     1       4.462   5.161  19.714  0.00  0.00    +0.000 OA
BRANCH  15  16
ATOM     16  C   UNL     1       3.334   4.376  19.806  0.00  0.00    +0.000 A 
ATOM     17  C   UNL     1       2.192   5.010  20.300  0.00  0.00    +0.000 A 
ATOM     18  C   UNL     1       0.997   4.301  20.434  0.00  0.00    +0.000 A 
ATOM     19  C   UNL     1       0.940   2.955  20.072  0.00  0.00    +0.000 A 
ATOM     20  C   UNL     1       2.069   2.329  19.547  0.00  0.00    +0.000 A 
ATOM     21  C   UNL     1       3.256   3.043  19.388  0.00  0.00    +0.000 A 
ENDBRANCH  15  16
ENDBRANCH   4  15
TORSDOF 3
ENDMDL
MODEL 4
REMARK VINA RESULT:      -7.4      0.973      1.192
REMARK  Name = 
REMARK  3 active torsions:
REMARK  status: ('A' for Active; 'I' for Inactive)
REMARK    1  A    between atoms: N_4  and  C_5
REMARK    2  A    between atoms: C_8  and  O_9
REMARK    3  A    between atoms: O_9  and  C_10
REMARK                            x       y       z     vdW  Elec       q    Type
REMARK                         _______ _______ _______ _____ _____    ______ ____
ROOT
ATOM      1  C   UNL     1       6.155   5.747  16.613  0.00  0.00    +0.000 A 
ATOM      2  C   UNL     1       5.021   6.568  16.492  0.00  0.00    +0.000 A 
ATOM      3  C   UNL     1       4.063   6.635  17.510  0.00  0.00    +0.000 A 
ATOM      4  C   UNL     1       4.219   5.876  18.666  0.00  0.00    +0.000 A 
ATOM      5  C   UNL     1       5.375   5.120  18.838  0.00  0.00    +0.000 A 
ATOM      6  C   UNL     1       6.325   5.049  17.812  0.00  0.00    +0.000 A 
ENDROOT
BRANCH   1  10
ATOM      7  N   UNL     1       6.466   3.857  14.272  0.00  0.00    +0.000 NA
ATOM      8  C   UNL     1       7.148   4.931  14.475  0.00  0.00    +0.000 C 
ATOM      9  N   UNL     1       8.055   5.347  13.562  0.00  0.00    +0.000 N 
ATOM     10  N   UNL     1       7.097   5.741  15.565  0.00  0.00    +0.000 N 
ATOM     11  H   UNL     1       6.702   3.452  13.368  0.00  0.00    +0.000 HD
ATOM     12  H   UNL     1       8.304   4.654  12.868  0.00  0.00    +0.000 HD
ATOM     13  H   UNL     1       8.885   5.779  13.949  0.00  0.00    +0.000 HD
ATOM     14  H   UNL     1       7.637   6.592  15.523  0.00  0.00    +0.000 HD
ENDBRANCH   1  10
BRANCH   4  15
ATOM     15  O   UNL     1       3.224   5.988  19.609  0.00  0.00    +0.000 OA
BRANCH  15  16
ATOM     16  C   UNL     1       2.499   4.872  19.969  0.00  0.00    +0.000 A 
ATOM     17  C   UNL     1       1.797   4.245  18.939  0.00  0.00    +0.000 A 
ATOM     18  C   UNL     1       1.030   3.108  19.200  0.00  0.00    +0.000 A 
ATOM     19  C   UNL     1       0.967   2.593  20.494  0.00  0.00    +0.000 A 
ATOM     20  C   UNL     1       1.694   3.195  21.519  0.00  0.00    +0.000 A 
ATOM     21  C   UNL     1       2.481   4.317  21.254  0.00  0.00    +0.000 A 
ENDBRANCH  15  16
ENDBRANCH   4  15
TORSDOF 3
ENDMDL
MODEL 5
REMARK VINA RESULT:      -7.4      0.123      1.656
REMARK  Name = 
REMARK  3 active torsions:
REMARK  status: ('A' for Active; 'I' for Inactive)
REMARK    1  A    between atoms: N_4  and  C_5
REMARK    2  A    between atoms: C_8  and  O_9
REMARK    3  A    between atoms: O_9  and  C_10
REMARK                            x       y       z     vdW  Elec       q    Type
REMARK                         _______ _______ _______ _____ _____    ______ ____
ROOT
ATOM      1  C   UNL     1       6.526   5.562  16.166  0.00  0.00    +0.000 A 
ATOM      2  C   UNL     1       7.062   4.887  17.276  0.00  0.00    +0.000 A 
ATOM      3  C   UNL     1       6.346   4.780  18.474  0.00  0.00    +0.000 A 
ATOM      4  C   UNL     1       5.082   5.353  18.585  0.00  0.00    +0.000 A 
ATOM      5  C   UNL     1       4.503   5.955  17.471  0.00  0.00    +0.000 A 
ATOM      6  C   UNL     1       5.228   6.067  16.278  0.00  0.00    +0.000 A 
ENDROOT
BRANCH   1  10
ATOM      7  N   UNL     1       6.477   3.767  13.732  0.00  0.00    +0.000 NA
ATOM      8  C   UNL     1       7.170   4.845  13.865  0.00  0.00    +0.000 C 
ATOM      9  N   UNL     1       7.912   5.311  12.835  0.00  0.00    +0.000 N 
ATOM     10  N   UNL     1       7.286   5.614  14.980  0.00  0.00    +0.000 N 
ATOM     11  H   UNL     1       6.569   3.401  12.787  0.00  0.00    +0.000 HD
ATOM     12  H   UNL     1       8.054   4.650  12.083  0.00  0.00    +0.000 HD
ATOM     13  H   UNL     1       8.789   5.744  13.100  0.00  0.00    +0.000 HD
ATOM     14  H   UNL     1       7.802   6.474  14.886  0.00  0.00    +0.000 HD
ENDBRANCH   1  10
BRANCH   4  15
ATOM     15  O   UNL     1       4.453   5.217  19.801  0.00  0.00    +0.000 OA
BRANCH  15  16
ATOM     16  C   UNL     1       3.274   4.509  19.882  0.00  0.00    +0.000 A 
ATOM     17  C   UNL     1       3.343   3.169  19.497  0.00  0.00    +0.000 A 
ATOM     18  C   UNL     1       2.202   2.365  19.540  0.00  0.00    +0.000 A 
ATOM     19  C   UNL     1       0.989   2.900  19.972  0.00  0.00    +0.000 A 
ATOM     20  C   UNL     1       0.924   4.228  20.391  0.00  0.00    +0.000 A 
ATOM     21  C   UNL     1       2.069   5.025  20.372  0.00  0.00    +0.000 A 
ENDBRANCH  15  16
ENDBRANCH   4  15
TORSDOF 3
ENDMDL
MODEL 6
REMARK VINA RESULT:      -7.3      0.922      1.624
REMARK  Name = 
REMARK  3 active torsions:
REMARK  status: ('A' for Active; 'I' for Inactive)
REMARK    1  A    between atoms: N_4  and  C_5
REMARK    2  A    between atoms: C_8  and  O_9
REMARK    3  A    between atoms: O_9  and  C_10
REMARK                            x       y       z     vdW  Elec       q    Type
REMARK                         _______ _______ _______ _____ _____    ______ ____
ROOT
ATOM      1  C   UNL     1       6.214   5.868  16.555  0.00  0.00    +0.000 A 
ATOM      2  C   UNL     1       6.365   5.045  17.684  0.00  0.00    +0.000 A 
ATOM      3  C   UNL     1       5.423   5.055  18.719  0.00  0.00    +0.000 A 
ATOM      4  C   UNL     1       4.314   5.894  18.644  0.00  0.00    +0.000 A 
ATOM      5  C   UNL     1       4.107   6.655  17.497  0.00  0.00    +0.000 A 
ATOM      6  C   UNL     1       5.058   6.648  16.470  0.00  0.00    +0.000 A 
ENDROOT
BRANCH   1  10
ATOM      7  N   UNL     1       6.326   4.128  14.083  0.00  0.00    +0.000 NA
ATOM      8  C   UNL     1       7.155   5.066  14.387  0.00  0.00    +0.000 C 
ATOM      9  N   UNL     1       8.150   5.402  13.535  0.00  0.00    +0.000 N 
ATOM     10  N   UNL     1       7.185   5.794  15.535  0.00  0.00    +0.000 N 
ATOM     11  H   UNL     1       6.533   3.758  13.158  0.00  0.00    +0.000 HD
ATOM     12  H   UNL     1       8.317   4.732  12.796  0.00  0.00    +0.000 HD
ATOM     13  H   UNL     1       9.020   5.672  13.977  0.00  0.00    +0.000 HD
ATOM     14  H   UNL     1       7.849   6.551  15.575  0.00  0.00    +0.000 HD
ENDBRANCH   1  10
BRANCH   4  15
ATOM     15  O   UNL     1       3.445   5.855  19.711  0.00  0.00    +0.000 OA
BRANCH  15  16
ATOM     16  C   UNL     1       2.570   4.798  19.836  0.00  0.00    +0.000 A 
ATOM     17  C   UNL     1       2.003   4.333  18.648  0.00  0.00    +0.000 A 
ATOM     18  C   UNL     1       1.102   3.267  18.668  0.00  0.00    +0.000 A 
ATOM     19  C   UNL     1       0.766   2.661  19.878  0.00  0.00    +0.000 A 
ATOM     20  C   UNL     1       1.356   3.100  21.063  0.00  0.00    +0.000 A 
ATOM     21  C   UNL     1       2.276   4.148  21.041  0.00  0.00    +0.000 A 
ENDBRANCH  15  16
ENDBRANCH   4  15
TORSDOF 3
ENDMDL
MODEL 7
REMARK VINA RESULT:      -7.2      1.447      1.715
REMARK  Name = 
REMARK  3 active torsions:
REMARK  status: ('A' for Active; 'I' for Inactive)
REMARK    1  A    between atoms: N_4  and  C_5
REMARK    2  A    between atoms: C_8  and  O_9
REMARK    3  A    between atoms: O_9  and  C_10
REMARK                            x       y       z     vdW  Elec       q    Type
REMARK                         _______ _______ _______ _____ _____    ______ ____
ROOT
ATOM      1  C   UNL     1       5.634   5.558  16.097  0.00  0.00    +0.000 A 
ATOM      2  C   UNL     1       5.108   6.751  16.624  0.00  0.00    +0.000 A 
ATOM      3  C   UNL     1       3.963   6.745  17.428  0.00  0.00    +0.000 A 
ATOM      4  C   UNL     1       3.318   5.545  17.715  0.00  0.00    +0.000 A 
ATOM      5  C   UNL     1       3.870   4.346  17.269  0.00  0.00    +0.000 A 
ATOM      6  C   UNL     1       5.011   4.360  16.457  0.00  0.00    +0.000 A 
ENDROOT
BRANCH   1  10
ATOM      7  N   UNL     1       6.399   4.060  13.584  0.00  0.00    +0.000 NA
ATOM      8  C   UNL     1       7.075   5.007  14.137  0.00  0.00    +0.000 C 
ATOM      9  N   UNL     1       8.205   5.470  13.554  0.00  0.00    +0.000 N 
ATOM     10  N   UNL     1       6.805   5.627  15.315  0.00  0.00    +0.000 N 
ATOM     11  H   UNL     1       6.827   3.787  12.701  0.00  0.00    +0.000 HD
ATOM     12  H   UNL     1       8.575   4.880  12.822  0.00  0.00    +0.000 HD
ATOM     13  H   UNL     1       8.938   5.743  14.198  0.00  0.00    +0.000 HD
ATOM     14  H   UNL     1       7.390   6.411  15.560  0.00  0.00    +0.000 HD
ENDBRANCH   1  10
BRANCH   4  15
ATOM     15  O   UNL     1       2.190   5.628  18.498  0.00  0.00    +0.000 OA
BRANCH  15  16
ATOM     16  C   UNL     1       1.968   4.682  19.474  0.00  0.00    +0.000 A 
ATOM     17  C   UNL     1       1.138   3.619  19.112  0.00  0.00    +0.000 A 
ATOM     18  C   UNL     1       0.848   2.608  20.030  0.00  0.00    +0.000 A 
ATOM     19  C   UNL     1       1.390   2.657  21.314  0.00  0.00    +0.000 A 
ATOM     20  C   UNL     1       2.247   3.698  21.668  0.00  0.00    +0.000 A 
ATOM     21  C   UNL     1       2.557   4.695  20.743  0.00  0.00    +0.000 A 
ENDBRANCH  15  16
ENDBRANCH   4  15
TORSDOF 3
ENDMDL
MODEL 8
REMARK VINA RESULT:      -7.2      5.426      6.576
REMARK  Name = 
REMARK  3 active torsions:
REMARK  status: ('A' for Active; 'I' for Inactive)
REMARK    1  A    between atoms: N_4  and  C_5
REMARK    2  A    between atoms: C_8  and  O_9
REMARK    3  A    between atoms: O_9  and  C_10
REMARK                            x       y       z     vdW  Elec       q    Type
REMARK                         _______ _______ _______ _____ _____    ______ ____
ROOT
ATOM      1  C   UNL     1       0.938   9.954  18.700  0.00  0.00    +0.000 A 
ATOM      2  C   UNL     1       1.645   9.183  17.761  0.00  0.00    +0.000 A 
ATOM      3  C   UNL     1       2.279   7.992  18.132  0.00  0.00    +0.000 A 
ATOM      4  C   UNL     1       2.221   7.553  19.452  0.00  0.00    +0.000 A 
ATOM      5  C   UNL     1       1.459   8.261  20.377  0.00  0.00    +0.000 A 
ATOM      6  C   UNL     1       0.835   9.457  20.002  0.00  0.00    +0.000 A 
ENDROOT
BRANCH   1  10
ATOM      7  N   UNL     1      -1.881  10.393  17.696  0.00  0.00    +0.000 NA
ATOM      8  C   UNL     1      -1.000  11.310  17.905  0.00  0.00    +0.000 C 
ATOM      9  N   UNL     1      -1.320  12.614  17.745  0.00  0.00    +0.000 N 
ATOM     10  N   UNL     1       0.300  11.131  18.259  0.00  0.00    +0.000 N 
ATOM     11  H   UNL     1      -2.776  10.811  17.447  0.00  0.00    +0.000 HD
ATOM     12  H   UNL     1      -2.185  12.779  17.248  0.00  0.00    +0.000 HD
ATOM     13  H   UNL     1      -0.577  13.195  17.375  0.00  0.00    +0.000 HD
ATOM     14  H   UNL     1       0.831  11.963  18.467  0.00  0.00    +0.000 HD
ENDBRANCH   1  10
BRANCH   4  15
ATOM     15  O   UNL     1       2.885   6.381  19.736  0.00  0.00    +0.000 OA
BRANCH  15  16
ATOM     16  C   UNL     1       2.238   5.176  19.571  0.00  0.00    +0.000 A 
ATOM     17  C   UNL     1       1.739   4.590  20.736  0.00  0.00    +0.000 A 
ATOM     18  C   UNL     1       1.068   3.367  20.677  0.00  0.00    +0.000 A 
ATOM     19  C   UNL     1       0.894   2.727  19.450  0.00  0.00    +0.000 A 
ATOM     20  C   UNL     1       1.360   3.325  18.281  0.00  0.00    +0.000 A 
ATOM     21  C   UNL     1       2.007   4.559  18.336  0.00  0.00    +0.000 A 
ENDBRANCH  15  16
ENDBRANCH   4  15
TORSDOF 3
ENDMDL
MODEL 9
REMARK VINA RESULT:      -7.1      5.407      6.544
REMARK  Name = 
REMARK  3 active torsions:
REMARK  status: ('A' for Active; 'I' for Inactive)
REMARK    1  A    between atoms: N_4  and  C_5
REMARK    2  A    between atoms: C_8  and  O_9
REMARK    3  A    between atoms: O_9  and  C_10
REMARK                            x       y       z     vdW  Elec       q    Type
REMARK                         _______ _______ _______ _____ _____    ______ ____
ROOT
ATOM      1  C   UNL     1       0.944   9.956  18.629  0.00  0.00    +0.000 A 
ATOM      2  C   UNL     1       0.852   9.447  19.936  0.00  0.00    +0.000 A 
ATOM      3  C   UNL     1       1.502   8.262  20.299  0.00  0.00    +0.000 A 
ATOM      4  C   UNL     1       2.252   7.562  19.359  0.00  0.00    +0.000 A 
ATOM      5  C   UNL     1       2.421   8.093  18.083  0.00  0.00    +0.000 A 
ATOM      6  C   UNL     1       1.761   9.274  17.723  0.00  0.00    +0.000 A 
ENDROOT
BRANCH   1  10
ATOM      7  N   UNL     1      -1.619  10.470  17.109  0.00  0.00    +0.000 NA
ATOM      8  C   UNL     1      -0.915  11.354  17.727  0.00  0.00    +0.000 C 
ATOM      9  N   UNL     1      -1.340  12.636  17.801  0.00  0.00    +0.000 N 
ATOM     10  N   UNL     1       0.287  11.168  18.332  0.00  0.00    +0.000 N 
ATOM     11  H   UNL     1      -2.480  10.884  16.756  0.00  0.00    +0.000 HD
ATOM     12  H   UNL     1      -2.089  12.870  17.162  0.00  0.00    +0.000 HD
ATOM     13  H   UNL     1      -0.606  13.333  17.762  0.00  0.00    +0.000 HD
ATOM     14  H   UNL     1       0.662  11.950  18.846  0.00  0.00    +0.000 HD
ENDBRANCH   1  10
BRANCH   4  15
ATOM     15  O   UNL     1       2.845   6.399  19.794  0.00  0.00    +0.000 OA
BRANCH  15  16
ATOM     16  C   UNL     1       2.225   5.191  19.561  0.00  0.00    +0.000 A 
ATOM     17  C   UNL     1       1.665   4.569  20.678  0.00  0.00    +0.000 A 
ATOM     18  C   UNL     1       1.015   3.340  20.549  0.00  0.00    +0.000 A 
ATOM     19  C   UNL     1       0.922   2.730  19.298  0.00  0.00    +0.000 A 
ATOM     20  C   UNL     1       1.449   3.364  18.174  0.00  0.00    +0.000 A 
ATOM     21  C   UNL     1       2.076   4.604  18.299  0.00  0.00    +0.000 A 
ENDBRANCH  15  16
ENDBRANCH   4  15
TORSDOF 3
ENDMDL
