MODEL 1
REMARK VINA RESULT:      -7.7      0.000      0.000
REMARK  Name = 
REMARK  7 active torsions:
REMARK  status: ('A' for Active; 'I' for Inactive)
REMARK    1  A    between atoms: C_1  and  C_2
REMARK    2  A    between atoms: C_2  and  C_8
REMARK    3  A    between atoms: N_3  and  N_4
REMARK    4  A    between atoms: C_12  and  C_13
REMARK    5  A    between atoms: C_13  and  C_14
REMARK    6  A    between atoms: N_15  and  N_16
REMARK    7  A    between atoms: C_20  and  N_21
REMARK                            x       y       z     vdW  Elec       q    Type
REMARK                         _______ _______ _______ _____ _____    ______ ____
ROOT
ATOM      1  C   UNL     1       3.077   5.750  18.519  0.00  0.00    +0.000 A 
ATOM      2  C   UNL     1       2.883   7.098  18.181  0.00  0.00    +0.000 A 
ATOM      3  C   UNL     1       3.605   7.686  17.142  0.00  0.00    +0.000 A 
ATOM      4  C   UNL     1       4.536   6.940  16.416  0.00  0.00    +0.000 A 
ATOM      5  C   UNL     1       4.775   5.594  16.731  0.00  0.00    +0.000 A 
ATOM      6  C   UNL     1       4.038   5.016  17.789  0.00  0.00    +0.000 A 
ENDROOT
BRANCH   1   8
ATOM      7  C   UNL     1       1.995   6.065  20.842  0.00  0.00    +0.000 C 
ATOM      8  C   UNL     1       2.266   5.169  19.646  0.00  0.00    +0.000 C 
ATOM      9  N   UNL     1       1.828   3.953  19.525  0.00  0.00    +0.000 NA
BRANCH   9  10
ATOM     10  N   UNL     1       1.062   3.424  20.517  0.00  0.00    +0.000 N 
ATOM     11  C   UNL     1       1.549   2.720  21.586  0.00  0.00    +0.000 C 
ATOM     12  N   UNL     1       0.831   2.211  22.526  0.00  0.00    +0.000 NA
ATOM     13  N   UNL     1       2.889   2.547  21.609  0.00  0.00    +0.000 N 
ATOM     14  H   UNL     1       0.078   3.653  20.562  0.00  0.00    +0.000 HD
ATOM     15  H   UNL     1      -0.153   2.413  22.364  0.00  0.00    +0.000 HD
ATOM     16  H   UNL     1       3.307   2.527  20.680  0.00  0.00    +0.000 HD
ATOM     17  H   UNL     1       3.186   1.795  22.212  0.00  0.00    +0.000 HD
ENDBRANCH   9  10
ENDBRANCH   1   8
BRANCH   5  18
ATOM     18  C   UNL     1       5.756   4.815  15.899  0.00  0.00    +0.000 C 
ATOM     19  C   UNL     1       7.103   4.437  16.491  0.00  0.00    +0.000 C 
ATOM     20  N   UNL     1       5.408   4.518  14.684  0.00  0.00    +0.000 NA
BRANCH  20  21
ATOM     21  N   UNL     1       6.237   3.736  13.928  0.00  0.00    +0.000 N 
ATOM     22  C   UNL     1       5.880   3.332  12.674  0.00  0.00    +0.000 C 
ATOM     23  N   UNL     1       4.810   3.689  12.054  0.00  0.00    +0.000 NA
ATOM     24  N   UNL     1       6.759   2.498  12.073  0.00  0.00    +0.000 N 
ATOM     25  H   UNL     1       6.810   3.042  14.395  0.00  0.00    +0.000 HD
ATOM     26  H   UNL     1       4.311   4.287  12.734  0.00  0.00    +0.000 HD
ATOM     27  H   UNL     1       7.712   2.838  12.094  0.00  0.00    +0.000 HD
ATOM     28  H   UNL     1       6.458   2.361  11.112  0.00  0.00    +0.000 HD
ENDBRANCH  20  21
ENDBRANCH   5  18
BRANCH   6  29
ATOM     29  N   UNL     1       4.277   3.629  18.131  0.00  0.00    +0.000 N 
ATOM     30  O   UNL     1       5.006   3.396  19.110  0.00  0.00    +0.000 OA
ATOM     31  O   UNL     1       3.736   2.780  17.400  0.00  0.00    +0.000 OA
ENDBRANCH   6  29
TORSDOF 5
ENDMDL
MODEL 2
REMARK VINA RESULT:      -7.6      0.772      6.930
REMARK  Name = 
REMARK  7 active torsions:
REMARK  status: ('A' for Active; 'I' for Inactive)
REMARK    1  A    between atoms: C_1  and  C_2
REMARK    2  A    between atoms: C_2  and  C_8
REMARK    3  A    between atoms: N_3  and  N_4
REMARK    4  A    between atoms: C_12  and  C_13
REMARK    5  A    between atoms: C_13  and  C_14
REMARK    6  A    between atoms: N_15  and  N_16
REMARK    7  A    between atoms: C_20  and  N_21
REMARK                            x       y       z     vdW  Elec       q    Type
REMARK                         _______ _______ _______ _____ _____    ______ ____
ROOT
ATOM      1  C   UNL     1       4.914   5.453  16.470  0.00  0.00    +0.000 A 
ATOM      2  C   UNL     1       4.844   6.852  16.401  0.00  0.00    +0.000 A 
ATOM      3  C   UNL     1       3.935   7.563  17.186  0.00  0.00    +0.000 A 
ATOM      4  C   UNL     1       3.078   6.890  18.059  0.00  0.00    +0.000 A 
ATOM      5  C   UNL     1       3.101   5.491  18.147  0.00  0.00    +0.000 A 
ATOM      6  C   UNL     1       4.025   4.787  17.342  0.00  0.00    +0.000 A 
ENDROOT
BRANCH   1   8
ATOM      7  C   UNL     1       7.301   4.510  16.184  0.00  0.00    +0.000 C 
ATOM      8  C   UNL     1       5.917   4.741  15.602  0.00  0.00    +0.000 C 
ATOM      9  N   UNL     1       5.540   4.346  14.424  0.00  0.00    +0.000 NA
BRANCH   9  10
ATOM     10  N   UNL     1       6.422   3.668  13.640  0.00  0.00    +0.000 N 
ATOM     11  C   UNL     1       6.135   3.168  12.397  0.00  0.00    +0.000 C 
ATOM     12  N   UNL     1       6.960   2.520  11.652  0.00  0.00    +0.000 NA
ATOM     13  N   UNL     1       4.871   3.370  11.965  0.00  0.00    +0.000 N 
ATOM     14  H   UNL     1       7.394   3.620  13.912  0.00  0.00    +0.000 HD
ATOM     15  H   UNL     1       7.863   2.438  12.117  0.00  0.00    +0.000 HD
ATOM     16  H   UNL     1       4.192   3.428  12.723  0.00  0.00    +0.000 HD
ATOM     17  H   UNL     1       4.600   2.753  11.214  0.00  0.00    +0.000 HD
ENDBRANCH   9  10
ENDBRANCH   1   8
BRANCH   5  18
ATOM     18  C   UNL     1       2.190   4.808  19.130  0.00  0.00    +0.000 C 
ATOM     19  C   UNL     1       0.953   4.086  18.624  0.00  0.00    +0.000 C 
ATOM     20  N   UNL     1       2.496   4.890  20.389  0.00  0.00    +0.000 NA
BRANCH  20  21
ATOM     21  N   UNL     1       1.739   4.210  21.302  0.00  0.00    +0.000 N 
ATOM     22  C   UNL     1       2.090   2.958  21.721  0.00  0.00    +0.000 C 
ATOM     23  N   UNL     1       3.165   2.336  21.385  0.00  0.00    +0.000 NA
ATOM     24  N   UNL     1       1.209   2.372  22.563  0.00  0.00    +0.000 N 
ATOM     25  H   UNL     1       0.732   4.328  21.283  0.00  0.00    +0.000 HD
ATOM     26  H   UNL     1       3.634   2.980  20.724  0.00  0.00    +0.000 HD
ATOM     27  H   UNL     1       0.947   2.962  23.342  0.00  0.00    +0.000 HD
ATOM     28  H   UNL     1       1.624   1.508  22.903  0.00  0.00    +0.000 HD
ENDBRANCH  20  21
ENDBRANCH   5  18
BRANCH   6  29
ATOM     29  N   UNL     1       4.057   3.341  17.417  0.00  0.00    +0.000 N 
ATOM     30  O   UNL     1       3.422   2.707  16.558  0.00  0.00    +0.000 OA
ATOM     31  O   UNL     1       4.717   2.852  18.352  0.00  0.00    +0.000 OA
ENDBRANCH   6  29
TORSDOF 5
ENDMDL
MODEL 3
REMARK VINA RESULT:      -7.6      0.768      1.115
REMARK  Name = 
REMARK  7 active torsions:
REMARK  status: ('A' for Active; 'I' for Inactive)
REMARK    1  A    between atoms: C_1  and  C_2
REMARK    2  A    between atoms: C_2  and  C_8
REMARK    3  A    between atoms: N_3  and  N_4
REMARK    4  A    between atoms: C_12  and  C_13
REMARK    5  A    between atoms: C_13  and  C_14
REMARK    6  A    between atoms: N_15  and  N_16
REMARK    7  A    between atoms: C_20  and  N_21
REMARK                            x       y       z     vdW  Elec       q    Type
REMARK                         _______ _______ _______ _____ _____    ______ ____
ROOT
ATOM      1  C   UNL     1       3.212   5.536  18.114  0.00  0.00    +0.000 A 
ATOM      2  C   UNL     1       3.143   6.930  17.973  0.00  0.00    +0.000 A 
ATOM      3  C   UNL     1       3.976   7.601  17.077  0.00  0.00    +0.000 A 
ATOM      4  C   UNL     1       4.896   6.892  16.301  0.00  0.00    +0.000 A 
ATOM      5  C   UNL     1       5.012   5.499  16.423  0.00  0.00    +0.000 A 
ATOM      6  C   UNL     1       4.162   4.837  17.338  0.00  0.00    +0.000 A 
ENDROOT
BRANCH   1   8
ATOM      7  C   UNL     1       1.069   4.156  18.527  0.00  0.00    +0.000 C 
ATOM      8  C   UNL     1       2.285   4.867  19.094  0.00  0.00    +0.000 C 
ATOM      9  N   UNL     1       2.586   4.915  20.356  0.00  0.00    +0.000 NA
BRANCH   9  10
ATOM     10  N   UNL     1       1.779   4.284  21.253  0.00  0.00    +0.000 N 
ATOM     11  C   UNL     1       1.953   2.997  21.686  0.00  0.00    +0.000 C 
ATOM     12  N   UNL     1       1.192   2.390  22.528  0.00  0.00    +0.000 NA
ATOM     13  N   UNL     1       3.001   2.337  21.146  0.00  0.00    +0.000 N 
ATOM     14  H   UNL     1       1.070   4.813  21.742  0.00  0.00    +0.000 HD
ATOM     15  H   UNL     1       0.444   3.009  22.834  0.00  0.00    +0.000 HD
ATOM     16  H   UNL     1       3.236   2.655  20.207  0.00  0.00    +0.000 HD
ATOM     17  H   UNL     1       2.935   1.335  21.238  0.00  0.00    +0.000 HD
ENDBRANCH   9  10
ENDBRANCH   1   8
BRANCH   5  18
ATOM     18  C   UNL     1       5.985   4.770  15.539  0.00  0.00    +0.000 C 
ATOM     19  C   UNL     1       7.383   4.473  16.054  0.00  0.00    +0.000 C 
ATOM     20  N   UNL     1       5.586   4.443  14.348  0.00  0.00    +0.000 NA
BRANCH  20  21
ATOM     21  N   UNL     1       6.414   3.704  13.549  0.00  0.00    +0.000 N 
ATOM     22  C   UNL     1       5.970   3.168  12.374  0.00  0.00    +0.000 C 
ATOM     23  N   UNL     1       4.804   3.356  11.864  0.00  0.00    +0.000 NA
ATOM     24  N   UNL     1       6.871   2.394  11.726  0.00  0.00    +0.000 N 
ATOM     25  H   UNL     1       7.114   3.115  13.987  0.00  0.00    +0.000 HD
ATOM     26  H   UNL     1       4.315   3.945  12.560  0.00  0.00    +0.000 HD
ATOM     27  H   UNL     1       7.773   2.838  11.613  0.00  0.00    +0.000 HD
ATOM     28  H   UNL     1       6.484   2.152  10.818  0.00  0.00    +0.000 HD
ENDBRANCH  20  21
ENDBRANCH   5  18
BRANCH   6  29
ATOM     29  N   UNL     1       4.273   3.400  17.480  0.00  0.00    +0.000 N 
ATOM     30  O   UNL     1       3.696   2.693  16.637  0.00  0.00    +0.000 OA
ATOM     31  O   UNL     1       4.936   2.992  18.451  0.00  0.00    +0.000 OA
ENDBRANCH   6  29
TORSDOF 5
ENDMDL
MODEL 4
REMARK VINA RESULT:      -7.4      3.583      6.657
REMARK  Name = 
REMARK  7 active torsions:
REMARK  status: ('A' for Active; 'I' for Inactive)
REMARK    1  A    between atoms: C_1  and  C_2
REMARK    2  A    between atoms: C_2  and  C_8
REMARK    3  A    between atoms: N_3  and  N_4
REMARK    4  A    between atoms: C_12  and  C_13
REMARK    5  A    between atoms: C_13  and  C_14
REMARK    6  A    between atoms: N_15  and  N_16
REMARK    7  A    between atoms: C_20  and  N_21
REMARK                            x       y       z     vdW  Elec       q    Type
REMARK                         _______ _______ _______ _____ _____    ______ ____
ROOT
ATOM      1  C   UNL     1       6.768   5.646  17.373  0.00  0.00    +0.000 A 
ATOM      2  C   UNL     1       7.086   5.564  16.009  0.00  0.00    +0.000 A 
ATOM      3  C   UNL     1       6.292   4.823  15.132  0.00  0.00    +0.000 A 
ATOM      4  C   UNL     1       5.161   4.151  15.599  0.00  0.00    +0.000 A 
ATOM      5  C   UNL     1       4.816   4.190  16.959  0.00  0.00    +0.000 A 
ATOM      6  C   UNL     1       5.633   4.942  17.833  0.00  0.00    +0.000 A 
ENDROOT
BRANCH   1   8
ATOM      7  C   UNL     1       8.281   5.757  19.462  0.00  0.00    +0.000 C 
ATOM      8  C   UNL     1       7.659   6.462  18.270  0.00  0.00    +0.000 C 
ATOM      9  N   UNL     1       7.864   7.708  17.964  0.00  0.00    +0.000 NA
BRANCH   9  10
ATOM     10  N   UNL     1       8.697   8.451  18.742  0.00  0.00    +0.000 N 
ATOM     11  C   UNL     1       8.834   9.812  18.658  0.00  0.00    +0.000 C 
ATOM     12  N   UNL     1       9.624  10.522  19.385  0.00  0.00    +0.000 NA
ATOM     13  N   UNL     1       8.083  10.416  17.712  0.00  0.00    +0.000 N 
ATOM     14  H   UNL     1       9.168   8.017  19.524  0.00  0.00    +0.000 HD
ATOM     15  H   UNL     1      10.129   9.927  20.039  0.00  0.00    +0.000 HD
ATOM     16  H   UNL     1       7.886   9.817  16.911  0.00  0.00    +0.000 HD
ATOM     17  H   UNL     1       8.411  11.338  17.467  0.00  0.00    +0.000 HD
ENDBRANCH   9  10
ENDBRANCH   1   8
BRANCH   5  18
ATOM     18  C   UNL     1       3.567   3.486  17.413  0.00  0.00    +0.000 C 
ATOM     19  C   UNL     1       3.580   1.976  17.578  0.00  0.00    +0.000 C 
ATOM     20  N   UNL     1       2.512   4.212  17.624  0.00  0.00    +0.000 NA
BRANCH  20  21
ATOM     21  N   UNL     1       1.385   3.617  18.120  0.00  0.00    +0.000 N 
ATOM     22  C   UNL     1       1.120   3.609  19.460  0.00  0.00    +0.000 C 
ATOM     23  N   UNL     1       1.822   4.203  20.361  0.00  0.00    +0.000 NA
ATOM     24  N   UNL     1       0.015   2.917  19.817  0.00  0.00    +0.000 N 
ATOM     25  H   UNL     1       1.037   2.779  17.666  0.00  0.00    +0.000 HD
ATOM     26  H   UNL     1       2.609   4.620  19.834  0.00  0.00    +0.000 HD
ATOM     27  H   UNL     1      -0.806   3.167  19.280  0.00  0.00    +0.000 HD
ATOM     28  H   UNL     1      -0.153   3.078  20.807  0.00  0.00    +0.000 HD
ENDBRANCH  20  21
ENDBRANCH   5  18
BRANCH   6  29
ATOM     29  N   UNL     1       5.294   4.988  19.240  0.00  0.00    +0.000 N 
ATOM     30  O   UNL     1       5.751   4.094  19.971  0.00  0.00    +0.000 OA
ATOM     31  O   UNL     1       4.556   5.923  19.598  0.00  0.00    +0.000 OA
ENDBRANCH   6  29
TORSDOF 5
ENDMDL
MODEL 5
REMARK VINA RESULT:      -7.3      3.593      4.935
REMARK  Name = 
REMARK  7 active torsions:
REMARK  status: ('A' for Active; 'I' for Inactive)
REMARK    1  A    between atoms: C_1  and  C_2
REMARK    2  A    between atoms: C_2  and  C_8
REMARK    3  A    between atoms: N_3  and  N_4
REMARK    4  A    between atoms: C_12  and  C_13
REMARK    5  A    between atoms: C_13  and  C_14
REMARK    6  A    between atoms: N_15  and  N_16
REMARK    7  A    between atoms: C_20  and  N_21
REMARK                            x       y       z     vdW  Elec       q    Type
REMARK                         _______ _______ _______ _____ _____    ______ ____
ROOT
ATOM      1  C   UNL     1       4.869   4.104  16.954  0.00  0.00    +0.000 A 
ATOM      2  C   UNL     1       5.249   4.027  15.606  0.00  0.00    +0.000 A 
ATOM      3  C   UNL     1       6.370   4.713  15.138  0.00  0.00    +0.000 A 
ATOM      4  C   UNL     1       7.137   5.491  16.007  0.00  0.00    +0.000 A 
ATOM      5  C   UNL     1       6.783   5.613  17.359  0.00  0.00    +0.000 A 
ATOM      6  C   UNL     1       5.642   4.913  17.815  0.00  0.00    +0.000 A 
ENDROOT
BRANCH   1   8
ATOM      7  C   UNL     1       3.827   1.856  17.678  0.00  0.00    +0.000 C 
ATOM      8  C   UNL     1       3.653   3.339  17.401  0.00  0.00    +0.000 C 
ATOM      9  N   UNL     1       2.537   3.987  17.548  0.00  0.00    +0.000 NA
BRANCH   9  10
ATOM     10  N   UNL     1       1.437   3.319  17.988  0.00  0.00    +0.000 N 
ATOM     11  C   UNL     1       0.990   3.321  19.283  0.00  0.00    +0.000 C 
ATOM     12  N   UNL     1      -0.046   2.686  19.709  0.00  0.00    +0.000 NA
ATOM     13  N   UNL     1       1.735   4.035  20.156  0.00  0.00    +0.000 N 
ATOM     14  H   UNL     1       0.817   2.884  17.318  0.00  0.00    +0.000 HD
ATOM     15  H   UNL     1      -0.492   2.188  18.942  0.00  0.00    +0.000 HD
ATOM     16  H   UNL     1       2.719   4.087  19.896  0.00  0.00    +0.000 HD
ATOM     17  H   UNL     1       1.574   3.783  21.119  0.00  0.00    +0.000 HD
ENDBRANCH   9  10
ENDBRANCH   1   8
BRANCH   5  18
ATOM     18  C   UNL     1       7.659   6.427  18.271  0.00  0.00    +0.000 C 
ATOM     19  C   UNL     1       8.299   5.764  19.478  0.00  0.00    +0.000 C 
ATOM     20  N   UNL     1       7.810   7.686  17.991  0.00  0.00    +0.000 NA
BRANCH  20  21
ATOM     21  N   UNL     1       8.667   8.436  18.748  0.00  0.00    +0.000 N 
ATOM     22  C   UNL     1       8.776   9.785  18.566  0.00  0.00    +0.000 C 
ATOM     23  N   UNL     1       8.059  10.487  17.760  0.00  0.00    +0.000 NA
ATOM     24  N   UNL     1       9.719  10.387  19.326  0.00  0.00    +0.000 N 
ATOM     25  H   UNL     1       9.550   8.025  19.032  0.00  0.00    +0.000 HD
ATOM     26  H   UNL     1       7.453   9.793  17.290  0.00  0.00    +0.000 HD
ATOM     27  H   UNL     1       9.654  10.150  20.307  0.00  0.00    +0.000 HD
ATOM     28  H   UNL     1       9.630  11.392  19.202  0.00  0.00    +0.000 HD
ENDBRANCH  20  21
ENDBRANCH   5  18
BRANCH   6  29
ATOM     29  N   UNL     1       5.260   5.033  19.207  0.00  0.00    +0.000 N 
ATOM     30  O   UNL     1       5.722   4.199  20.003  0.00  0.00    +0.000 OA
ATOM     31  O   UNL     1       4.485   5.964  19.487  0.00  0.00    +0.000 OA
ENDBRANCH   6  29
TORSDOF 5
ENDMDL
MODEL 6
REMARK VINA RESULT:      -7.3      9.611     13.015
REMARK  Name = 
REMARK  7 active torsions:
REMARK  status: ('A' for Active; 'I' for Inactive)
REMARK    1  A    between atoms: C_1  and  C_2
REMARK    2  A    between atoms: C_2  and  C_8
REMARK    3  A    between atoms: N_3  and  N_4
REMARK    4  A    between atoms: C_12  and  C_13
REMARK    5  A    between atoms: C_13  and  C_14
REMARK    6  A    between atoms: N_15  and  N_16
REMARK    7  A    between atoms: C_20  and  N_21
REMARK                            x       y       z     vdW  Elec       q    Type
REMARK                         _______ _______ _______ _____ _____    ______ ____
ROOT
ATOM      1  C   UNL     1      -1.375  11.619  20.464  0.00  0.00    +0.000 A 
ATOM      2  C   UNL     1      -0.387  10.841  21.086  0.00  0.00    +0.000 A 
ATOM      3  C   UNL     1      -0.360  10.693  22.473  0.00  0.00    +0.000 A 
ATOM      4  C   UNL     1      -1.321  11.318  23.270  0.00  0.00    +0.000 A 
ATOM      5  C   UNL     1      -2.317  12.120  22.692  0.00  0.00    +0.000 A 
ATOM      6  C   UNL     1      -2.327  12.262  21.286  0.00  0.00    +0.000 A 
ENDROOT
BRANCH   1   8
ATOM      7  C   UNL     1      -0.614  12.923  18.370  0.00  0.00    +0.000 C 
ATOM      8  C   UNL     1      -1.356  11.739  18.964  0.00  0.00    +0.000 C 
ATOM      9  N   UNL     1      -1.950  10.818  18.266  0.00  0.00    +0.000 NA
BRANCH   9  10
ATOM     10  N   UNL     1      -1.910  10.890  16.908  0.00  0.00    +0.000 N 
ATOM     11  C   UNL     1      -3.008  11.044  16.104  0.00  0.00    +0.000 C 
ATOM     12  N   UNL     1      -2.981  11.106  14.818  0.00  0.00    +0.000 NA
ATOM     13  N   UNL     1      -4.196  11.108  16.744  0.00  0.00    +0.000 N 
ATOM     14  H   UNL     1      -1.017  10.960  16.439  0.00  0.00    +0.000 HD
ATOM     15  H   UNL     1      -2.022  11.031  14.484  0.00  0.00    +0.000 HD
ATOM     16  H   UNL     1      -4.206  10.594  17.624  0.00  0.00    +0.000 HD
ATOM     17  H   UNL     1      -4.985  10.919  16.146  0.00  0.00    +0.000 HD
ENDBRANCH   9  10
ENDBRANCH   1   8
BRANCH   5  18
ATOM     18  C   UNL     1      -3.357  12.742  23.582  0.00  0.00    +0.000 C 
ATOM     19  C   UNL     1      -3.076  14.085  24.233  0.00  0.00    +0.000 C 
ATOM     20  N   UNL     1      -4.456  12.078  23.774  0.00  0.00    +0.000 NA
BRANCH  20  21
ATOM     21  N   UNL     1      -5.459  12.651  24.507  0.00  0.00    +0.000 N 
ATOM     22  C   UNL     1      -6.590  13.128  23.908  0.00  0.00    +0.000 C 
ATOM     23  N   UNL     1      -6.868  13.025  22.656  0.00  0.00    +0.000 NA
ATOM     24  N   UNL     1      -7.460  13.741  24.742  0.00  0.00    +0.000 N 
ATOM     25  H   UNL     1      -5.212  13.197  25.326  0.00  0.00    +0.000 HD
ATOM     26  H   UNL     1      -6.041  12.555  22.250  0.00  0.00    +0.000 HD
ATOM     27  H   UNL     1      -7.680  13.193  25.564  0.00  0.00    +0.000 HD
ATOM     28  H   UNL     1      -8.308  13.944  24.220  0.00  0.00    +0.000 HD
ENDBRANCH  20  21
ENDBRANCH   5  18
BRANCH   6  29
ATOM     29  N   UNL     1      -3.344  13.091  20.675  0.00  0.00    +0.000 N 
ATOM     30  O   UNL     1      -3.088  14.298  20.524  0.00  0.00    +0.000 OA
ATOM     31  O   UNL     1      -4.404  12.521  20.360  0.00  0.00    +0.000 OA
ENDBRANCH   6  29
TORSDOF 5
ENDMDL
MODEL 7
REMARK VINA RESULT:      -7.1      3.275      7.163
REMARK  Name = 
REMARK  7 active torsions:
REMARK  status: ('A' for Active; 'I' for Inactive)
REMARK    1  A    between atoms: C_1  and  C_2
REMARK    2  A    between atoms: C_2  and  C_8
REMARK    3  A    between atoms: N_3  and  N_4
REMARK    4  A    between atoms: C_12  and  C_13
REMARK    5  A    between atoms: C_13  and  C_14
REMARK    6  A    between atoms: N_15  and  N_16
REMARK    7  A    between atoms: C_20  and  N_21
REMARK                            x       y       z     vdW  Elec       q    Type
REMARK                         _______ _______ _______ _____ _____    ______ ____
ROOT
ATOM      1  C   UNL     1       4.291   4.436  16.671  0.00  0.00    +0.000 A 
ATOM      2  C   UNL     1       3.419   3.387  17.001  0.00  0.00    +0.000 A 
ATOM      3  C   UNL     1       2.301   3.612  17.805  0.00  0.00    +0.000 A 
ATOM      4  C   UNL     1       2.029   4.890  18.296  0.00  0.00    +0.000 A 
ATOM      5  C   UNL     1       2.884   5.964  18.008  0.00  0.00    +0.000 A 
ATOM      6  C   UNL     1       4.013   5.718  17.194  0.00  0.00    +0.000 A 
ENDROOT
BRANCH   1   8
ATOM      7  C   UNL     1       6.845   4.122  16.458  0.00  0.00    +0.000 C 
ATOM      8  C   UNL     1       5.478   4.134  15.796  0.00  0.00    +0.000 C 
ATOM      9  N   UNL     1       5.267   3.879  14.541  0.00  0.00    +0.000 NA
BRANCH   9  10
ATOM     10  N   UNL     1       6.325   3.567  13.742  0.00  0.00    +0.000 N 
ATOM     11  C   UNL     1       6.231   3.248  12.414  0.00  0.00    +0.000 C 
ATOM     12  N   UNL     1       7.224   2.946  11.653  0.00  0.00    +0.000 NA
ATOM     13  N   UNL     1       4.979   3.238  11.904  0.00  0.00    +0.000 N 
ATOM     14  H   UNL     1       7.266   3.689  14.093  0.00  0.00    +0.000 HD
ATOM     15  H   UNL     1       8.094   2.985  12.181  0.00  0.00    +0.000 HD
ATOM     16  H   UNL     1       4.266   3.006  12.594  0.00  0.00    +0.000 HD
ATOM     17  H   UNL     1       4.903   2.722  11.041  0.00  0.00    +0.000 HD
ENDBRANCH   9  10
ENDBRANCH   1   8
BRANCH   5  18
ATOM     18  C   UNL     1       2.532   7.333  18.522  0.00  0.00    +0.000 C 
ATOM     19  C   UNL     1       2.276   7.529  20.006  0.00  0.00    +0.000 C 
ATOM     20  N   UNL     1       2.440   8.294  17.655  0.00  0.00    +0.000 NA
BRANCH  20  21
ATOM     21  N   UNL     1       2.207   9.568  18.096  0.00  0.00    +0.000 N 
ATOM     22  C   UNL     1       0.975  10.143  17.978  0.00  0.00    +0.000 C 
ATOM     23  N   UNL     1      -0.082   9.556  17.536  0.00  0.00    +0.000 NA
ATOM     24  N   UNL     1       0.908  11.432  18.382  0.00  0.00    +0.000 N 
ATOM     25  H   UNL     1       2.949  10.254  18.013  0.00  0.00    +0.000 HD
ATOM     26  H   UNL     1       0.246   8.611  17.273  0.00  0.00    +0.000 HD
ATOM     27  H   UNL     1       1.301  11.585  19.302  0.00  0.00    +0.000 HD
ATOM     28  H   UNL     1      -0.067  11.718  18.367  0.00  0.00    +0.000 HD
ENDBRANCH  20  21
ENDBRANCH   5  18
BRANCH   6  29
ATOM     29  N   UNL     1       4.909   6.815  16.891  0.00  0.00    +0.000 N 
ATOM     30  O   UNL     1       4.849   7.307  15.752  0.00  0.00    +0.000 OA
ATOM     31  O   UNL     1       5.677   7.168  17.804  0.00  0.00    +0.000 OA
ENDBRANCH   6  29
TORSDOF 5
ENDMDL
MODEL 8
REMARK VINA RESULT:      -7.1      8.720     12.053
REMARK  Name = 
REMARK  7 active torsions:
REMARK  status: ('A' for Active; 'I' for Inactive)
REMARK    1  A    between atoms: C_1  and  C_2
REMARK    2  A    between atoms: C_2  and  C_8
REMARK    3  A    between atoms: N_3  and  N_4
REMARK    4  A    between atoms: C_12  and  C_13
REMARK    5  A    between atoms: C_13  and  C_14
REMARK    6  A    between atoms: N_15  and  N_16
REMARK    7  A    between atoms: C_20  and  N_21
REMARK                            x       y       z     vdW  Elec       q    Type
REMARK                         _______ _______ _______ _____ _____    ______ ____
ROOT
ATOM      1  C   UNL     1      -0.666  10.263  20.275  0.00  0.00    +0.000 A 
ATOM      2  C   UNL     1      -0.042   9.258  21.028  0.00  0.00    +0.000 A 
ATOM      3  C   UNL     1      -0.016   9.319  22.422  0.00  0.00    +0.000 A 
ATOM      4  C   UNL     1      -0.616  10.385  23.094  0.00  0.00    +0.000 A 
ATOM      5  C   UNL     1      -1.236  11.422  22.381  0.00  0.00    +0.000 A 
ATOM      6  C   UNL     1      -1.250  11.346  20.970  0.00  0.00    +0.000 A 
ENDROOT
BRANCH   1   8
ATOM      7  C   UNL     1       0.681   9.993  18.089  0.00  0.00    +0.000 C 
ATOM      8  C   UNL     1      -0.666  10.142  18.775  0.00  0.00    +0.000 C 
ATOM      9  N   UNL     1      -1.808  10.147  18.157  0.00  0.00    +0.000 NA
BRANCH   9  10
ATOM     10  N   UNL     1      -1.829  10.000  16.804  0.00  0.00    +0.000 N 
ATOM     11  C   UNL     1      -2.691  10.653  15.963  0.00  0.00    +0.000 C 
ATOM     12  N   UNL     1      -2.723  10.515  14.684  0.00  0.00    +0.000 NA
ATOM     13  N   UNL     1      -3.578  11.477  16.562  0.00  0.00    +0.000 N 
ATOM     14  H   UNL     1      -1.093   9.477  16.349  0.00  0.00    +0.000 HD
ATOM     15  H   UNL     1      -2.007   9.855  14.385  0.00  0.00    +0.000 HD
ATOM     16  H   UNL     1      -3.821  11.187  17.508  0.00  0.00    +0.000 HD
ATOM     17  H   UNL     1      -4.372  11.702  15.982  0.00  0.00    +0.000 HD
ENDBRANCH   9  10
ENDBRANCH   1   8
BRANCH   5  18
ATOM     18  C   UNL     1      -1.907  12.530  23.145  0.00  0.00    +0.000 C 
ATOM     19  C   UNL     1      -1.141  13.812  23.426  0.00  0.00    +0.000 C 
ATOM     20  N   UNL     1      -3.121  12.327  23.555  0.00  0.00    +0.000 NA
BRANCH  20  21
ATOM     21  N   UNL     1      -3.792  13.344  24.176  0.00  0.00    +0.000 N 
ATOM     22  C   UNL     1      -4.733  14.080  23.514  0.00  0.00    +0.000 C 
ATOM     23  N   UNL     1      -5.139  13.861  22.313  0.00  0.00    +0.000 NA
ATOM     24  N   UNL     1      -5.257  15.104  24.225  0.00  0.00    +0.000 N 
ATOM     25  H   UNL     1      -3.298  13.902  24.865  0.00  0.00    +0.000 HD
ATOM     26  H   UNL     1      -4.567  13.059  21.995  0.00  0.00    +0.000 HD
ATOM     27  H   UNL     1      -5.581  14.830  25.144  0.00  0.00    +0.000 HD
ATOM     28  H   UNL     1      -6.023  15.502  23.688  0.00  0.00    +0.000 HD
ENDBRANCH  20  21
ENDBRANCH   5  18
BRANCH   6  29
ATOM     29  N   UNL     1      -1.881  12.411  20.219  0.00  0.00    +0.000 N 
ATOM     30  O   UNL     1      -3.119  12.384  20.113  0.00  0.00    +0.000 OA
ATOM     31  O   UNL     1      -1.121  13.266  19.730  0.00  0.00    +0.000 OA
ENDBRANCH   6  29
TORSDOF 5
ENDMDL
MODEL 9
REMARK VINA RESULT:      -7.1      9.709     11.492
REMARK  Name = 
REMARK  7 active torsions:
REMARK  status: ('A' for Active; 'I' for Inactive)
REMARK    1  A    between atoms: C_1  and  C_2
REMARK    2  A    between atoms: C_2  and  C_8
REMARK    3  A    between atoms: N_3  and  N_4
REMARK    4  A    between atoms: C_12  and  C_13
REMARK    5  A    between atoms: C_13  and  C_14
REMARK    6  A    between atoms: N_15  and  N_16
REMARK    7  A    between atoms: C_20  and  N_21
REMARK                            x       y       z     vdW  Elec       q    Type
REMARK                         _______ _______ _______ _____ _____    ______ ____
ROOT
ATOM      1  C   UNL     1      -2.529  12.246  22.563  0.00  0.00    +0.000 A 
ATOM      2  C   UNL     1      -1.509  11.515  23.189  0.00  0.00    +0.000 A 
ATOM      3  C   UNL     1      -0.529  10.865  22.436  0.00  0.00    +0.000 A 
ATOM      4  C   UNL     1      -0.547  10.934  21.042  0.00  0.00    +0.000 A 
ATOM      5  C   UNL     1      -1.559  11.639  20.374  0.00  0.00    +0.000 A 
ATOM      6  C   UNL     1      -2.545  12.288  21.151  0.00  0.00    +0.000 A 
ENDROOT
BRANCH   1   8
ATOM      7  C   UNL     1      -3.235  14.332  23.911  0.00  0.00    +0.000 C 
ATOM      8  C   UNL     1      -3.556  12.929  23.426  0.00  0.00    +0.000 C 
ATOM      9  N   UNL     1      -4.659  12.296  23.687  0.00  0.00    +0.000 NA
BRANCH   9  10
ATOM     10  N   UNL     1      -5.615  12.912  24.434  0.00  0.00    +0.000 N 
ATOM     11  C   UNL     1      -6.948  12.946  24.120  0.00  0.00    +0.000 C 
ATOM     12  N   UNL     1      -7.857  13.532  24.818  0.00  0.00    +0.000 NA
ATOM     13  N   UNL     1      -7.292  12.327  22.970  0.00  0.00    +0.000 N 
ATOM     14  H   UNL     1      -5.376  13.271  25.349  0.00  0.00    +0.000 HD
ATOM     15  H   UNL     1      -7.443  13.962  25.644  0.00  0.00    +0.000 HD
ATOM     16  H   UNL     1      -6.546  12.327  22.275  0.00  0.00    +0.000 HD
ATOM     17  H   UNL     1      -8.190  12.616  22.613  0.00  0.00    +0.000 HD
ENDBRANCH   9  10
ENDBRANCH   1   8
BRANCH   5  18
ATOM     18  C   UNL     1      -1.517  11.723  18.873  0.00  0.00    +0.000 C 
ATOM     19  C   UNL     1      -0.713  12.828  18.209  0.00  0.00    +0.000 C 
ATOM     20  N   UNL     1      -2.202  10.847  18.203  0.00  0.00    +0.000 NA
BRANCH  20  21
ATOM     21  N   UNL     1      -2.118  10.840  16.838  0.00  0.00    +0.000 N 
ATOM     22  C   UNL     1      -3.241  10.827  16.061  0.00  0.00    +0.000 C 
ATOM     23  N   UNL     1      -4.449  10.900  16.497  0.00  0.00    +0.000 NA
ATOM     24  N   UNL     1      -3.010  10.739  14.731  0.00  0.00    +0.000 N 
ATOM     25  H   UNL     1      -1.355  10.335  16.401  0.00  0.00    +0.000 HD
ATOM     26  H   UNL     1      -4.345  10.925  17.526  0.00  0.00    +0.000 HD
ATOM     27  H   UNL     1      -2.336  11.415  14.396  0.00  0.00    +0.000 HD
ATOM     28  H   UNL     1      -3.896  10.860  14.248  0.00  0.00    +0.000 HD
ENDBRANCH  20  21
ENDBRANCH   5  18
BRANCH   6  29
ATOM     29  N   UNL     1      -3.600  13.015  20.476  0.00  0.00    +0.000 N 
ATOM     30  O   UNL     1      -4.588  12.368  20.090  0.00  0.00    +0.000 OA
ATOM     31  O   UNL     1      -3.420  14.237  20.329  0.00  0.00    +0.000 OA
ENDBRANCH   6  29
TORSDOF 5
ENDMDL
