MODEL 1
REMARK VINA RESULT:      -7.4      0.000      0.000
REMARK  Name = 
REMARK  11 active torsions:
REMARK  status: ('A' for Active; 'I' for Inactive)
REMARK    1  A    between atoms: C_2  and  C_3
REMARK    2  A    between atoms: C_3  and  C_4
REMARK    3  A    between atoms: C_4  and  C_5
REMARK    4  A    between atoms: C_5  and  C_6
REMARK    5  A    between atoms: C_6  and  C_7
REMARK    6  A    between atoms: C_7  and  C_8
REMARK    7  A    between atoms: C_8  and  C_9
REMARK    8  A    between atoms: N_11  and  C_12
REMARK    9  A    between atoms: C_15  and  C_16
REMARK   10  A    between atoms: N_18  and  C_19
REMARK   11  A    between atoms: N_27  and  O_28
REMARK                            x       y       z     vdW  Elec       q    Type
REMARK                         _______ _______ _______ _____ _____    ______ ____
ROOT
ATOM      1  C   UNL     1       2.211   6.676  20.151  0.00  0.00    +0.000 A 
ATOM      2  C   UNL     1       1.491   7.571  20.946  0.00  0.00    +0.000 A 
ATOM      3  C   UNL     1       1.100   8.813  20.454  0.00  0.00    +0.000 A 
ATOM      4  C   UNL     1       1.428   9.204  19.156  0.00  0.00    +0.000 A 
ATOM      5  C   UNL     1       2.152   8.312  18.349  0.00  0.00    +0.000 A 
ATOM      6  C   UNL     1       2.545   7.057  18.849  0.00  0.00    +0.000 A 
ENDROOT
BRANCH   1   9
ATOM      7  C   UNL     1       1.744   4.318  20.668  0.00  0.00    +0.000 C 
ATOM      8  O   UNL     1       0.592   4.303  20.264  0.00  0.00    +0.000 OA
ATOM      9  N   UNL     1       2.607   5.410  20.637  0.00  0.00    +0.000 N 
ATOM     10  H   UNL     1       3.590   5.257  20.818  0.00  0.00    +0.000 HD
BRANCH   7  11
ATOM     11  C   UNL     1       2.357   3.049  21.206  0.00  0.00    +0.000 C 
BRANCH  11  12
ATOM     12  C   UNL     1       2.161   1.919  20.191  0.00  0.00    +0.000 C 
BRANCH  12  13
ATOM     13  C   UNL     1       3.157   1.971  19.034  0.00  0.00    +0.000 C 
BRANCH  13  14
ATOM     14  C   UNL     1       2.486   2.435  17.739  0.00  0.00    +0.000 C 
BRANCH  14  15
ATOM     15  C   UNL     1       3.196   3.650  17.150  0.00  0.00    +0.000 C 
BRANCH  15  16
ATOM     16  C   UNL     1       4.399   4.075  17.994  0.00  0.00    +0.000 C 
BRANCH  16  18
ATOM     17  O   UNL     1       5.676   4.094  15.942  0.00  0.00    +0.000 OA
ATOM     18  C   UNL     1       5.665   4.099  17.159  0.00  0.00    +0.000 C 
ATOM     19  N   UNL     1       6.842   4.129  17.888  0.00  0.00    +0.000 N 
ATOM     20  H   UNL     1       6.824   4.136  18.890  0.00  0.00    +0.000 HD
BRANCH  19  21
ATOM     21  O   UNL     1       8.113   4.154  17.284  0.00  0.00    +0.000 OA
ATOM     22  H   UNL     1       8.716   4.551  17.937  0.00  0.00    +0.000 HD
ENDBRANCH  19  21
ENDBRANCH  16  18
ENDBRANCH  15  16
ENDBRANCH  14  15
ENDBRANCH  13  14
ENDBRANCH  12  13
ENDBRANCH  11  12
ENDBRANCH   7  11
ENDBRANCH   1   9
BRANCH   4  23
ATOM     23  C   UNL     1       1.040  10.572  18.666  0.00  0.00    +0.000 C 
ATOM     24  O   UNL     1       1.883  11.333  18.229  0.00  0.00    +0.000 OA
ATOM     25  N   UNL     1      -0.306  10.885  18.748  0.00  0.00    +0.000 N 
ATOM     26  H   UNL     1      -0.948  10.216  19.143  0.00  0.00    +0.000 HD
BRANCH  25  27
ATOM     27  C   UNL     1      -0.880  12.163  18.322  0.00  0.00    +0.000 C 
ATOM     28  C   UNL     1      -1.228  13.048  19.524  0.00  0.00    +0.000 C 
ATOM     29  C   UNL     1      -2.420  12.496  20.304  0.00  0.00    +0.000 C 
ATOM     30  N   UNL     1      -3.594  12.299  19.449  0.00  0.00    +0.000 NA
ATOM     31  C   UNL     1      -3.299  11.399  18.335  0.00  0.00    +0.000 C 
ATOM     32  C   UNL     1      -2.138  11.911  17.481  0.00  0.00    +0.000 C 
ATOM     33  H   UNL     1      -3.891  13.203  19.078  0.00  0.00    +0.000 HD
ENDBRANCH  25  27
ENDBRANCH   4  23
TORSDOF 11
ENDMDL
MODEL 2
REMARK VINA RESULT:      -7.3      0.939      1.244
REMARK  Name = 
REMARK  11 active torsions:
REMARK  status: ('A' for Active; 'I' for Inactive)
REMARK    1  A    between atoms: C_2  and  C_3
REMARK    2  A    between atoms: C_3  and  C_4
REMARK    3  A    between atoms: C_4  and  C_5
REMARK    4  A    between atoms: C_5  and  C_6
REMARK    5  A    between atoms: C_6  and  C_7
REMARK    6  A    between atoms: C_7  and  C_8
REMARK    7  A    between atoms: C_8  and  C_9
REMARK    8  A    between atoms: N_11  and  C_12
REMARK    9  A    between atoms: C_15  and  C_16
REMARK   10  A    between atoms: N_18  and  C_19
REMARK   11  A    between atoms: N_27  and  O_28
REMARK                            x       y       z     vdW  Elec       q    Type
REMARK                         _______ _______ _______ _____ _____    ______ ____
ROOT
ATOM      1  C   UNL     1       2.271   6.963  19.894  0.00  0.00    +0.000 A 
ATOM      2  C   UNL     1       1.650   7.830  20.795  0.00  0.00    +0.000 A 
ATOM      3  C   UNL     1       1.139   9.055  20.376  0.00  0.00    +0.000 A 
ATOM      4  C   UNL     1       1.247   9.458  19.044  0.00  0.00    +0.000 A 
ATOM      5  C   UNL     1       1.871   8.593  18.131  0.00  0.00    +0.000 A 
ATOM      6  C   UNL     1       2.385   7.355  18.558  0.00  0.00    +0.000 A 
ENDROOT
BRANCH   1   9
ATOM      7  C   UNL     1       1.973   4.605  20.523  0.00  0.00    +0.000 C 
ATOM      8  O   UNL     1       0.764   4.559  20.357  0.00  0.00    +0.000 OA
ATOM      9  N   UNL     1       2.786   5.713  20.307  0.00  0.00    +0.000 N 
ATOM     10  H   UNL     1       3.789   5.584  20.289  0.00  0.00    +0.000 HD
BRANCH   7  11
ATOM     11  C   UNL     1       2.711   3.358  20.943  0.00  0.00    +0.000 C 
BRANCH  11  12
ATOM     12  C   UNL     1       2.728   2.360  19.780  0.00  0.00    +0.000 C 
BRANCH  12  13
ATOM     13  C   UNL     1       4.028   2.395  18.979  0.00  0.00    +0.000 C 
BRANCH  13  14
ATOM     14  C   UNL     1       3.887   3.257  17.723  0.00  0.00    +0.000 C 
BRANCH  14  15
ATOM     15  C   UNL     1       4.729   4.525  17.823  0.00  0.00    +0.000 C 
BRANCH  15  16
ATOM     16  C   UNL     1       6.061   4.390  17.083  0.00  0.00    +0.000 C 
BRANCH  16  18
ATOM     17  O   UNL     1       8.355   4.165  17.808  0.00  0.00    +0.000 OA
ATOM     18  C   UNL     1       7.229   4.569  18.032  0.00  0.00    +0.000 C 
ATOM     19  N   UNL     1       6.928   5.243  19.204  0.00  0.00    +0.000 N 
ATOM     20  H   UNL     1       5.998   5.575  19.380  0.00  0.00    +0.000 HD
BRANCH  19  21
ATOM     21  O   UNL     1       7.885   5.503  20.203  0.00  0.00    +0.000 OA
ATOM     22  H   UNL     1       8.739   5.202  19.845  0.00  0.00    +0.000 HD
ENDBRANCH  19  21
ENDBRANCH  16  18
ENDBRANCH  15  16
ENDBRANCH  14  15
ENDBRANCH  13  14
ENDBRANCH  12  13
ENDBRANCH  11  12
ENDBRANCH   7  11
ENDBRANCH   1   9
BRANCH   4  23
ATOM     23  C   UNL     1       0.736  10.809  18.628  0.00  0.00    +0.000 C 
ATOM     24  O   UNL     1       1.479  11.772  18.611  0.00  0.00    +0.000 OA
ATOM     25  N   UNL     1      -0.601  10.867  18.274  0.00  0.00    +0.000 N 
ATOM     26  H   UNL     1      -1.167  10.036  18.332  0.00  0.00    +0.000 HD
BRANCH  25  27
ATOM     27  C   UNL     1      -1.284  12.088  17.840  0.00  0.00    +0.000 C 
ATOM     28  C   UNL     1      -1.585  13.012  19.025  0.00  0.00    +0.000 C 
ATOM     29  C   UNL     1      -2.676  12.434  19.927  0.00  0.00    +0.000 C 
ATOM     30  N   UNL     1      -3.901  12.129  19.182  0.00  0.00    +0.000 NA
ATOM     31  C   UNL     1      -3.643  11.191  18.090  0.00  0.00    +0.000 C 
ATOM     32  C   UNL     1      -2.588  11.724  17.119  0.00  0.00    +0.000 C 
ATOM     33  H   UNL     1      -4.280  12.994  18.797  0.00  0.00    +0.000 HD
ENDBRANCH  25  27
ENDBRANCH   4  23
TORSDOF 11
ENDMDL
MODEL 3
REMARK VINA RESULT:      -7.2      2.311      3.468
REMARK  Name = 
REMARK  11 active torsions:
REMARK  status: ('A' for Active; 'I' for Inactive)
REMARK    1  A    between atoms: C_2  and  C_3
REMARK    2  A    between atoms: C_3  and  C_4
REMARK    3  A    between atoms: C_4  and  C_5
REMARK    4  A    between atoms: C_5  and  C_6
REMARK    5  A    between atoms: C_6  and  C_7
REMARK    6  A    between atoms: C_7  and  C_8
REMARK    7  A    between atoms: C_8  and  C_9
REMARK    8  A    between atoms: N_11  and  C_12
REMARK    9  A    between atoms: C_15  and  C_16
REMARK   10  A    between atoms: N_18  and  C_19
REMARK   11  A    between atoms: N_27  and  O_28
REMARK                            x       y       z     vdW  Elec       q    Type
REMARK                         _______ _______ _______ _____ _____    ______ ____
ROOT
ATOM      1  C   UNL     1       3.186   6.541  18.277  0.00  0.00    +0.000 A 
ATOM      2  C   UNL     1       2.766   6.309  19.589  0.00  0.00    +0.000 A 
ATOM      3  C   UNL     1       2.017   7.257  20.280  0.00  0.00    +0.000 A 
ATOM      4  C   UNL     1       1.676   8.472  19.685  0.00  0.00    +0.000 A 
ATOM      5  C   UNL     1       2.094   8.714  18.367  0.00  0.00    +0.000 A 
ATOM      6  C   UNL     1       2.851   7.754  17.671  0.00  0.00    +0.000 A 
ENDROOT
BRANCH   1   9
ATOM      7  C   UNL     1       3.613   4.230  17.553  0.00  0.00    +0.000 C 
ATOM      8  O   UNL     1       2.651   3.721  18.106  0.00  0.00    +0.000 OA
ATOM      9  N   UNL     1       3.941   5.582  17.563  0.00  0.00    +0.000 N 
ATOM     10  H   UNL     1       4.643   5.918  16.917  0.00  0.00    +0.000 HD
BRANCH   7  11
ATOM     11  C   UNL     1       4.529   3.369  16.718  0.00  0.00    +0.000 C 
BRANCH  11  12
ATOM     12  C   UNL     1       5.006   4.165  15.499  0.00  0.00    +0.000 C 
BRANCH  12  13
ATOM     13  C   UNL     1       6.526   4.184  15.352  0.00  0.00    +0.000 C 
BRANCH  13  14
ATOM     14  C   UNL     1       7.206   4.659  16.638  0.00  0.00    +0.000 C 
BRANCH  14  15
ATOM     15  C   UNL     1       6.980   6.151  16.866  0.00  0.00    +0.000 C 
BRANCH  15  16
ATOM     16  C   UNL     1       7.758   6.670  18.076  0.00  0.00    +0.000 C 
BRANCH  16  18
ATOM     17  O   UNL     1       6.269   5.519  19.592  0.00  0.00    +0.000 OA
ATOM     18  C   UNL     1       7.396   5.892  19.326  0.00  0.00    +0.000 C 
ATOM     19  N   UNL     1       8.460   5.621  20.171  0.00  0.00    +0.000 N 
ATOM     20  H   UNL     1       9.386   5.929  19.943  0.00  0.00    +0.000 HD
BRANCH  19  21
ATOM     21  O   UNL     1       8.315   4.910  21.377  0.00  0.00    +0.000 OA
ATOM     22  H   UNL     1       8.709   4.033  21.224  0.00  0.00    +0.000 HD
ENDBRANCH  19  21
ENDBRANCH  16  18
ENDBRANCH  15  16
ENDBRANCH  14  15
ENDBRANCH  13  14
ENDBRANCH  12  13
ENDBRANCH  11  12
ENDBRANCH   7  11
ENDBRANCH   1   9
BRANCH   4  23
ATOM     23  C   UNL     1       0.911   9.501  20.471  0.00  0.00    +0.000 C 
ATOM     24  O   UNL     1       0.841   9.424  21.684  0.00  0.00    +0.000 OA
ATOM     25  N   UNL     1       0.318  10.509  19.732  0.00  0.00    +0.000 N 
ATOM     26  H   UNL     1       0.396  10.501  18.728  0.00  0.00    +0.000 HD
BRANCH  25  27
ATOM     27  C   UNL     1      -0.466  11.602  20.313  0.00  0.00    +0.000 C 
ATOM     28  C   UNL     1      -1.831  11.736  19.629  0.00  0.00    +0.000 C 
ATOM     29  C   UNL     1      -1.697  12.268  18.202  0.00  0.00    +0.000 C 
ATOM     30  N   UNL     1      -0.966  13.538  18.155  0.00  0.00    +0.000 NA
ATOM     31  C   UNL     1       0.368  13.409  18.741  0.00  0.00    +0.000 C 
ATOM     32  C   UNL     1       0.310  12.919  20.188  0.00  0.00    +0.000 C 
ATOM     33  H   UNL     1      -1.491  14.243  18.673  0.00  0.00    +0.000 HD
ENDBRANCH  25  27
ENDBRANCH   4  23
TORSDOF 11
ENDMDL
MODEL 4
REMARK VINA RESULT:      -7.1      2.170      3.209
REMARK  Name = 
REMARK  11 active torsions:
REMARK  status: ('A' for Active; 'I' for Inactive)
REMARK    1  A    between atoms: C_2  and  C_3
REMARK    2  A    between atoms: C_3  and  C_4
REMARK    3  A    between atoms: C_4  and  C_5
REMARK    4  A    between atoms: C_5  and  C_6
REMARK    5  A    between atoms: C_6  and  C_7
REMARK    6  A    between atoms: C_7  and  C_8
REMARK    7  A    between atoms: C_8  and  C_9
REMARK    8  A    between atoms: N_11  and  C_12
REMARK    9  A    between atoms: C_15  and  C_16
REMARK   10  A    between atoms: N_18  and  C_19
REMARK   11  A    between atoms: N_27  and  O_28
REMARK                            x       y       z     vdW  Elec       q    Type
REMARK                         _______ _______ _______ _____ _____    ______ ____
ROOT
ATOM      1  C   UNL     1       2.573   6.290  19.018  0.00  0.00    +0.000 A 
ATOM      2  C   UNL     1       2.474   7.525  18.373  0.00  0.00    +0.000 A 
ATOM      3  C   UNL     1       1.900   8.623  19.008  0.00  0.00    +0.000 A 
ATOM      4  C   UNL     1       1.396   8.515  20.305  0.00  0.00    +0.000 A 
ATOM      5  C   UNL     1       1.491   7.278  20.962  0.00  0.00    +0.000 A 
ATOM      6  C   UNL     1       2.072   6.171  20.317  0.00  0.00    +0.000 A 
ENDROOT
BRANCH   1   9
ATOM      7  C   UNL     1       2.413   4.235  17.677  0.00  0.00    +0.000 C 
ATOM      8  O   UNL     1       1.208   4.275  17.487  0.00  0.00    +0.000 OA
ATOM      9  N   UNL     1       3.161   5.171  18.385  0.00  0.00    +0.000 N 
ATOM     10  H   UNL     1       4.170   5.142  18.315  0.00  0.00    +0.000 HD
BRANCH   7  11
ATOM     11  C   UNL     1       3.224   3.123  17.060  0.00  0.00    +0.000 C 
BRANCH  11  12
ATOM     12  C   UNL     1       4.716   3.449  17.184  0.00  0.00    +0.000 C 
BRANCH  12  13
ATOM     13  C   UNL     1       5.361   3.823  15.852  0.00  0.00    +0.000 C 
BRANCH  13  14
ATOM     14  C   UNL     1       5.491   5.340  15.700  0.00  0.00    +0.000 C 
BRANCH  14  15
ATOM     15  C   UNL     1       6.804   5.846  16.290  0.00  0.00    +0.000 C 
BRANCH  15  16
ATOM     16  C   UNL     1       6.576   6.819  17.448  0.00  0.00    +0.000 C 
BRANCH  16  18
ATOM     17  O   UNL     1       8.514   7.513  18.712  0.00  0.00    +0.000 OA
ATOM     18  C   UNL     1       7.660   6.674  18.499  0.00  0.00    +0.000 C 
ATOM     19  N   UNL     1       7.614   5.495  19.223  0.00  0.00    +0.000 N 
ATOM     20  H   UNL     1       6.905   4.810  19.042  0.00  0.00    +0.000 HD
BRANCH  19  21
ATOM     21  O   UNL     1       8.538   5.187  20.239  0.00  0.00    +0.000 OA
ATOM     22  H   UNL     1       8.950   6.030  20.496  0.00  0.00    +0.000 HD
ENDBRANCH  19  21
ENDBRANCH  16  18
ENDBRANCH  15  16
ENDBRANCH  14  15
ENDBRANCH  13  14
ENDBRANCH  12  13
ENDBRANCH  11  12
ENDBRANCH   7  11
ENDBRANCH   1   9
BRANCH   4  23
ATOM     23  C   UNL     1       0.733   9.702  20.950  0.00  0.00    +0.000 C 
ATOM     24  O   UNL     1       0.447   9.682  22.132  0.00  0.00    +0.000 OA
ATOM     25  N   UNL     1       0.485  10.781  20.120  0.00  0.00    +0.000 N 
ATOM     26  H   UNL     1       0.726  10.722  19.144  0.00  0.00    +0.000 HD
BRANCH  25  27
ATOM     27  C   UNL     1      -0.150  12.026  20.558  0.00  0.00    +0.000 C 
ATOM     28  C   UNL     1      -1.638  12.054  20.193  0.00  0.00    +0.000 C 
ATOM     29  C   UNL     1      -1.845  12.196  18.685  0.00  0.00    +0.000 C 
ATOM     30  N   UNL     1      -1.156  13.371  18.143  0.00  0.00    +0.000 NA
ATOM     31  C   UNL     1       0.279  13.324  18.422  0.00  0.00    +0.000 C 
ATOM     32  C   UNL     1       0.565  13.224  19.921  0.00  0.00    +0.000 C 
ATOM     33  H   UNL     1      -1.550  14.212  18.565  0.00  0.00    +0.000 HD
ENDBRANCH  25  27
ENDBRANCH   4  23
TORSDOF 11
ENDMDL
MODEL 5
REMARK VINA RESULT:      -7.1      2.235      3.243
REMARK  Name = 
REMARK  11 active torsions:
REMARK  status: ('A' for Active; 'I' for Inactive)
REMARK    1  A    between atoms: C_2  and  C_3
REMARK    2  A    between atoms: C_3  and  C_4
REMARK    3  A    between atoms: C_4  and  C_5
REMARK    4  A    between atoms: C_5  and  C_6
REMARK    5  A    between atoms: C_6  and  C_7
REMARK    6  A    between atoms: C_7  and  C_8
REMARK    7  A    between atoms: C_8  and  C_9
REMARK    8  A    between atoms: N_11  and  C_12
REMARK    9  A    between atoms: C_15  and  C_16
REMARK   10  A    between atoms: N_18  and  C_19
REMARK   11  A    between atoms: N_27  and  O_28
REMARK                            x       y       z     vdW  Elec       q    Type
REMARK                         _______ _______ _______ _____ _____    ______ ____
ROOT
ATOM      1  C   UNL     1       2.290   7.665  19.170  0.00  0.00    +0.000 A 
ATOM      2  C   UNL     1       1.905   8.380  18.033  0.00  0.00    +0.000 A 
ATOM      3  C   UNL     1       0.999   9.433  18.121  0.00  0.00    +0.000 A 
ATOM      4  C   UNL     1       0.439   9.795  19.347  0.00  0.00    +0.000 A 
ATOM      5  C   UNL     1       0.819   9.082  20.494  0.00  0.00    +0.000 A 
ATOM      6  C   UNL     1       1.735   8.019  20.403  0.00  0.00    +0.000 A 
ENDROOT
BRANCH   1   9
ATOM      7  C   UNL     1       2.816   5.269  18.998  0.00  0.00    +0.000 C 
ATOM      8  O   UNL     1       1.665   4.868  18.934  0.00  0.00    +0.000 OA
ATOM      9  N   UNL     1       3.215   6.599  19.094  0.00  0.00    +0.000 N 
ATOM     10  H   UNL     1       4.189   6.827  18.946  0.00  0.00    +0.000 HD
BRANCH   7  11
ATOM     11  C   UNL     1       3.952   4.280  18.911  0.00  0.00    +0.000 C 
BRANCH  11  12
ATOM     12  C   UNL     1       4.008   3.693  17.497  0.00  0.00    +0.000 C 
BRANCH  12  13
ATOM     13  C   UNL     1       4.710   4.607  16.495  0.00  0.00    +0.000 C 
BRANCH  13  14
ATOM     14  C   UNL     1       6.008   3.981  15.981  0.00  0.00    +0.000 C 
BRANCH  14  15
ATOM     15  C   UNL     1       7.229   4.754  16.471  0.00  0.00    +0.000 C 
BRANCH  15  16
ATOM     16  C   UNL     1       6.844   6.096  17.097  0.00  0.00    +0.000 C 
BRANCH  16  18
ATOM     17  O   UNL     1       8.247   7.319  18.639  0.00  0.00    +0.000 OA
ATOM     18  C   UNL     1       7.593   6.322  18.396  0.00  0.00    +0.000 C 
ATOM     19  N   UNL     1       7.482   5.294  19.318  0.00  0.00    +0.000 N 
ATOM     20  H   UNL     1       6.939   4.477  19.111  0.00  0.00    +0.000 HD
BRANCH  19  21
ATOM     21  O   UNL     1       8.108   5.328  20.578  0.00  0.00    +0.000 OA
ATOM     22  H   UNL     1       8.502   6.214  20.662  0.00  0.00    +0.000 HD
ENDBRANCH  19  21
ENDBRANCH  16  18
ENDBRANCH  15  16
ENDBRANCH  14  15
ENDBRANCH  13  14
ENDBRANCH  12  13
ENDBRANCH  11  12
ENDBRANCH   7  11
ENDBRANCH   1   9
BRANCH   4  23
ATOM     23  C   UNL     1      -0.578  10.902  19.406  0.00  0.00    +0.000 C 
ATOM     24  O   UNL     1      -1.552  10.884  18.677  0.00  0.00    +0.000 OA
ATOM     25  N   UNL     1      -0.327  11.905  20.326  0.00  0.00    +0.000 N 
ATOM     26  H   UNL     1       0.511  11.870  20.883  0.00  0.00    +0.000 HD
BRANCH  25  27
ATOM     27  C   UNL     1      -1.198  13.065  20.535  0.00  0.00    +0.000 C 
ATOM     28  C   UNL     1      -0.382  14.343  20.755  0.00  0.00    +0.000 C 
ATOM     29  C   UNL     1       0.331  14.331  22.106  0.00  0.00    +0.000 C 
ATOM     30  N   UNL     1      -0.599  14.112  23.218  0.00  0.00    +0.000 NA
ATOM     31  C   UNL     1      -1.335  12.858  23.059  0.00  0.00    +0.000 C 
ATOM     32  C   UNL     1      -2.111  12.816  21.742  0.00  0.00    +0.000 C 
ATOM     33  H   UNL     1      -1.263  14.886  23.254  0.00  0.00    +0.000 HD
ENDBRANCH  25  27
ENDBRANCH   4  23
TORSDOF 11
ENDMDL
MODEL 6
REMARK VINA RESULT:      -6.9      2.233      2.976
REMARK  Name = 
REMARK  11 active torsions:
REMARK  status: ('A' for Active; 'I' for Inactive)
REMARK    1  A    between atoms: C_2  and  C_3
REMARK    2  A    between atoms: C_3  and  C_4
REMARK    3  A    between atoms: C_4  and  C_5
REMARK    4  A    between atoms: C_5  and  C_6
REMARK    5  A    between atoms: C_6  and  C_7
REMARK    6  A    between atoms: C_7  and  C_8
REMARK    7  A    between atoms: C_8  and  C_9
REMARK    8  A    between atoms: N_11  and  C_12
REMARK    9  A    between atoms: C_15  and  C_16
REMARK   10  A    between atoms: N_18  and  C_19
REMARK   11  A    between atoms: N_27  and  O_28
REMARK                            x       y       z     vdW  Elec       q    Type
REMARK                         _______ _______ _______ _____ _____    ______ ____
ROOT
ATOM      1  C   UNL     1       2.254   6.952  19.958  0.00  0.00    +0.000 A 
ATOM      2  C   UNL     1       1.553   7.730  20.882  0.00  0.00    +0.000 A 
ATOM      3  C   UNL     1       1.022   8.966  20.523  0.00  0.00    +0.000 A 
ATOM      4  C   UNL     1       1.186   9.467  19.231  0.00  0.00    +0.000 A 
ATOM      5  C   UNL     1       1.889   8.692  18.295  0.00  0.00    +0.000 A 
ATOM      6  C   UNL     1       2.425   7.444  18.661  0.00  0.00    +0.000 A 
ENDROOT
BRANCH   1   9
ATOM      7  C   UNL     1       2.001   4.555  20.445  0.00  0.00    +0.000 C 
ATOM      8  O   UNL     1       0.797   4.490  20.253  0.00  0.00    +0.000 OA
ATOM      9  N   UNL     1       2.791   5.693  20.309  0.00  0.00    +0.000 N 
ATOM     10  H   UNL     1       3.797   5.588  20.304  0.00  0.00    +0.000 HD
BRANCH   7  11
ATOM     11  C   UNL     1       2.761   3.304  20.808  0.00  0.00    +0.000 C 
BRANCH  11  12
ATOM     12  C   UNL     1       3.662   2.897  19.637  0.00  0.00    +0.000 C 
BRANCH  12  13
ATOM     13  C   UNL     1       3.010   3.120  18.274  0.00  0.00    +0.000 C 
BRANCH  13  14
ATOM     14  C   UNL     1       3.979   3.786  17.294  0.00  0.00    +0.000 C 
BRANCH  14  15
ATOM     15  C   UNL     1       5.300   4.136  17.973  0.00  0.00    +0.000 C 
BRANCH  15  16
ATOM     16  C   UNL     1       5.679   5.604  17.768  0.00  0.00    +0.000 C 
BRANCH  16  18
ATOM     17  O   UNL     1       7.773   6.749  18.145  0.00  0.00    +0.000 OA
ATOM     18  C   UNL     1       6.942   5.949  18.532  0.00  0.00    +0.000 C 
ATOM     19  N   UNL     1       7.096   5.279  19.735  0.00  0.00    +0.000 N 
ATOM     20  H   UNL     1       6.405   4.623  20.048  0.00  0.00    +0.000 HD
BRANCH  19  21
ATOM     21  O   UNL     1       8.206   5.471  20.579  0.00  0.00    +0.000 OA
ATOM     22  H   UNL     1       8.632   4.600  20.669  0.00  0.00    +0.000 HD
ENDBRANCH  19  21
ENDBRANCH  16  18
ENDBRANCH  15  16
ENDBRANCH  14  15
ENDBRANCH  13  14
ENDBRANCH  12  13
ENDBRANCH  11  12
ENDBRANCH   7  11
ENDBRANCH   1   9
BRANCH   4  23
ATOM     23  C   UNL     1       0.649  10.828  18.883  0.00  0.00    +0.000 C 
ATOM     24  O   UNL     1      -0.436  10.943  18.343  0.00  0.00    +0.000 OA
ATOM     25  N   UNL     1       1.456  11.901  19.217  0.00  0.00    +0.000 N 
ATOM     26  H   UNL     1       2.354  11.733  19.642  0.00  0.00    +0.000 HD
BRANCH  25  27
ATOM     27  C   UNL     1       1.109  13.301  18.963  0.00  0.00    +0.000 C 
ATOM     28  C   UNL     1       2.248  14.039  18.251  0.00  0.00    +0.000 C 
ATOM     29  C   UNL     1       3.447  14.252  19.176  0.00  0.00    +0.000 C 
ATOM     30  N   UNL     1       3.072  14.945  20.411  0.00  0.00    +0.000 NA
ATOM     31  C   UNL     1       2.035  14.216  21.140  0.00  0.00    +0.000 C 
ATOM     32  C   UNL     1       0.783  14.003  20.288  0.00  0.00    +0.000 C 
ATOM     33  H   UNL     1       2.724  15.876  20.178  0.00  0.00    +0.000 HD
ENDBRANCH  25  27
ENDBRANCH   4  23
TORSDOF 11
ENDMDL
MODEL 7
REMARK VINA RESULT:      -6.9      1.929      3.589
REMARK  Name = 
REMARK  11 active torsions:
REMARK  status: ('A' for Active; 'I' for Inactive)
REMARK    1  A    between atoms: C_2  and  C_3
REMARK    2  A    between atoms: C_3  and  C_4
REMARK    3  A    between atoms: C_4  and  C_5
REMARK    4  A    between atoms: C_5  and  C_6
REMARK    5  A    between atoms: C_6  and  C_7
REMARK    6  A    between atoms: C_7  and  C_8
REMARK    7  A    between atoms: C_8  and  C_9
REMARK    8  A    between atoms: N_11  and  C_12
REMARK    9  A    between atoms: C_15  and  C_16
REMARK   10  A    between atoms: N_18  and  C_19
REMARK   11  A    between atoms: N_27  and  O_28
REMARK                            x       y       z     vdW  Elec       q    Type
REMARK                         _______ _______ _______ _____ _____    ______ ____
ROOT
ATOM      1  C   UNL     1       2.499   7.380  19.248  0.00  0.00    +0.000 A 
ATOM      2  C   UNL     1       2.326   7.939  17.980  0.00  0.00    +0.000 A 
ATOM      3  C   UNL     1       1.516   9.055  17.791  0.00  0.00    +0.000 A 
ATOM      4  C   UNL     1       0.842   9.639  18.865  0.00  0.00    +0.000 A 
ATOM      5  C   UNL     1       1.009   9.085  20.143  0.00  0.00    +0.000 A 
ATOM      6  C   UNL     1       1.829   7.957  20.330  0.00  0.00    +0.000 A 
ENDROOT
BRANCH   1   9
ATOM      7  C   UNL     1       4.478   6.025  18.706  0.00  0.00    +0.000 C 
ATOM      8  O   UNL     1       4.926   6.757  17.837  0.00  0.00    +0.000 OA
ATOM      9  N   UNL     1       3.326   6.253  19.453  0.00  0.00    +0.000 N 
ATOM     10  H   UNL     1       3.156   5.682  20.271  0.00  0.00    +0.000 HD
BRANCH   7  11
ATOM     11  C   UNL     1       5.234   4.776  19.085  0.00  0.00    +0.000 C 
BRANCH  11  12
ATOM     12  C   UNL     1       4.363   3.548  18.806  0.00  0.00    +0.000 C 
BRANCH  12  13
ATOM     13  C   UNL     1       3.859   3.483  17.366  0.00  0.00    +0.000 C 
BRANCH  13  14
ATOM     14  C   UNL     1       2.335   3.364  17.312  0.00  0.00    +0.000 C 
BRANCH  14  15
ATOM     15  C   UNL     1       1.840   2.192  18.153  0.00  0.00    +0.000 C 
BRANCH  15  16
ATOM     16  C   UNL     1       0.647   2.578  19.029  0.00  0.00    +0.000 C 
BRANCH  16  18
ATOM     17  O   UNL     1       0.885   4.496  20.480  0.00  0.00    +0.000 OA
ATOM     18  C   UNL     1       1.104   3.317  20.272  0.00  0.00    +0.000 C 
ATOM     19  N   UNL     1       1.805   2.545  21.183  0.00  0.00    +0.000 N 
ATOM     20  H   UNL     1       1.979   1.574  21.005  0.00  0.00    +0.000 HD
BRANCH  19  21
ATOM     21  O   UNL     1       2.307   3.060  22.393  0.00  0.00    +0.000 OA
ATOM     22  H   UNL     1       3.037   2.471  22.656  0.00  0.00    +0.000 HD
ENDBRANCH  19  21
ENDBRANCH  16  18
ENDBRANCH  15  16
ENDBRANCH  14  15
ENDBRANCH  13  14
ENDBRANCH  12  13
ENDBRANCH  11  12
ENDBRANCH   7  11
ENDBRANCH   1   9
BRANCH   4  23
ATOM     23  C   UNL     1      -0.069  10.811  18.626  0.00  0.00    +0.000 C 
ATOM     24  O   UNL     1       0.134  11.874  19.183  0.00  0.00    +0.000 OA
ATOM     25  N   UNL     1      -1.119  10.593  17.751  0.00  0.00    +0.000 N 
ATOM     26  H   UNL     1      -1.243   9.681  17.342  0.00  0.00    +0.000 HD
BRANCH  25  27
ATOM     27  C   UNL     1      -2.112  11.608  17.389  0.00  0.00    +0.000 C 
ATOM     28  C   UNL     1      -3.354  11.517  18.281  0.00  0.00    +0.000 C 
ATOM     29  C   UNL     1      -4.173  10.262  17.981  0.00  0.00    +0.000 C 
ATOM     30  N   UNL     1      -4.543  10.170  16.566  0.00  0.00    +0.000 NA
ATOM     31  C   UNL     1      -3.362  10.184  15.703  0.00  0.00    +0.000 C 
ATOM     32  C   UNL     1      -2.514  11.437  15.918  0.00  0.00    +0.000 C 
ATOM     33  H   UNL     1      -5.140  10.963  16.326  0.00  0.00    +0.000 HD
ENDBRANCH  25  27
ENDBRANCH   4  23
TORSDOF 11
ENDMDL
MODEL 8
REMARK VINA RESULT:      -6.8      1.009      1.119
REMARK  Name = 
REMARK  11 active torsions:
REMARK  status: ('A' for Active; 'I' for Inactive)
REMARK    1  A    between atoms: C_2  and  C_3
REMARK    2  A    between atoms: C_3  and  C_4
REMARK    3  A    between atoms: C_4  and  C_5
REMARK    4  A    between atoms: C_5  and  C_6
REMARK    5  A    between atoms: C_6  and  C_7
REMARK    6  A    between atoms: C_7  and  C_8
REMARK    7  A    between atoms: C_8  and  C_9
REMARK    8  A    between atoms: N_11  and  C_12
REMARK    9  A    between atoms: C_15  and  C_16
REMARK   10  A    between atoms: N_18  and  C_19
REMARK   11  A    between atoms: N_27  and  O_28
REMARK                            x       y       z     vdW  Elec       q    Type
REMARK                         _______ _______ _______ _____ _____    ______ ____
ROOT
ATOM      1  C   UNL     1       2.308   6.560  19.882  0.00  0.00    +0.000 A 
ATOM      2  C   UNL     1       1.667   7.455  20.741  0.00  0.00    +0.000 A 
ATOM      3  C   UNL     1       1.284   8.720  20.304  0.00  0.00    +0.000 A 
ATOM      4  C   UNL     1       1.544   9.135  18.997  0.00  0.00    +0.000 A 
ATOM      5  C   UNL     1       2.189   8.242  18.127  0.00  0.00    +0.000 A 
ATOM      6  C   UNL     1       2.573   6.964  18.571  0.00  0.00    +0.000 A 
ENDROOT
BRANCH   1   9
ATOM      7  C   UNL     1       1.778   4.238  20.492  0.00  0.00    +0.000 C 
ATOM      8  O   UNL     1       0.578   4.297  20.276  0.00  0.00    +0.000 OA
ATOM      9  N   UNL     1       2.694   5.270  20.312  0.00  0.00    +0.000 N 
ATOM     10  H   UNL     1       3.682   5.054  20.336  0.00  0.00    +0.000 HD
BRANCH   7  11
ATOM     11  C   UNL     1       2.386   2.931  20.938  0.00  0.00    +0.000 C 
BRANCH  11  12
ATOM     12  C   UNL     1       3.741   2.738  20.250  0.00  0.00    +0.000 C 
BRANCH  12  13
ATOM     13  C   UNL     1       3.664   1.846  19.013  0.00  0.00    +0.000 C 
BRANCH  13  14
ATOM     14  C   UNL     1       2.535   2.283  18.078  0.00  0.00    +0.000 C 
BRANCH  14  15
ATOM     15  C   UNL     1       2.977   3.428  17.171  0.00  0.00    +0.000 C 
BRANCH  15  16
ATOM     16  C   UNL     1       4.482   3.395  16.900  0.00  0.00    +0.000 C 
BRANCH  16  18
ATOM     17  O   UNL     1       5.494   5.053  18.338  0.00  0.00    +0.000 OA
ATOM     18  C   UNL     1       5.120   4.731  17.225  0.00  0.00    +0.000 C 
ATOM     19  N   UNL     1       5.258   5.588  16.146  0.00  0.00    +0.000 N 
ATOM     20  H   UNL     1       4.950   5.315  15.232  0.00  0.00    +0.000 HD
BRANCH  19  21
ATOM     21  O   UNL     1       5.828   6.871  16.258  0.00  0.00    +0.000 OA
ATOM     22  H   UNL     1       5.792   7.263  15.368  0.00  0.00    +0.000 HD
ENDBRANCH  19  21
ENDBRANCH  16  18
ENDBRANCH  15  16
ENDBRANCH  14  15
ENDBRANCH  13  14
ENDBRANCH  12  13
ENDBRANCH  11  12
ENDBRANCH   7  11
ENDBRANCH   1   9
BRANCH   4  23
ATOM     23  C   UNL     1       1.169  10.526  18.566  0.00  0.00    +0.000 C 
ATOM     24  O   UNL     1       2.009  11.276  18.105  0.00  0.00    +0.000 OA
ATOM     25  N   UNL     1      -0.161  10.871  18.727  0.00  0.00    +0.000 N 
ATOM     26  H   UNL     1      -0.800  10.209  19.137  0.00  0.00    +0.000 HD
BRANCH  25  27
ATOM     27  C   UNL     1      -0.721  12.175  18.366  0.00  0.00    +0.000 C 
ATOM     28  C   UNL     1      -1.047  13.007  19.610  0.00  0.00    +0.000 C 
ATOM     29  C   UNL     1      -2.242  12.436  20.374  0.00  0.00    +0.000 C 
ATOM     30  N   UNL     1      -3.425  12.295  19.520  0.00  0.00    +0.000 NA
ATOM     31  C   UNL     1      -3.150  11.444  18.362  0.00  0.00    +0.000 C 
ATOM     32  C   UNL     1      -1.989  11.980  17.524  0.00  0.00    +0.000 C 
ATOM     33  H   UNL     1      -3.712  13.219  19.194  0.00  0.00    +0.000 HD
ENDBRANCH  25  27
ENDBRANCH   4  23
TORSDOF 11
ENDMDL
MODEL 9
REMARK VINA RESULT:      -6.8      1.747      2.237
REMARK  Name = 
REMARK  11 active torsions:
REMARK  status: ('A' for Active; 'I' for Inactive)
REMARK    1  A    between atoms: C_2  and  C_3
REMARK    2  A    between atoms: C_3  and  C_4
REMARK    3  A    between atoms: C_4  and  C_5
REMARK    4  A    between atoms: C_5  and  C_6
REMARK    5  A    between atoms: C_6  and  C_7
REMARK    6  A    between atoms: C_7  and  C_8
REMARK    7  A    between atoms: C_8  and  C_9
REMARK    8  A    between atoms: N_11  and  C_12
REMARK    9  A    between atoms: C_15  and  C_16
REMARK   10  A    between atoms: N_18  and  C_19
REMARK   11  A    between atoms: N_27  and  O_28
REMARK                            x       y       z     vdW  Elec       q    Type
REMARK                         _______ _______ _______ _____ _____    ______ ____
ROOT
ATOM      1  C   UNL     1       2.265   6.763  19.974  0.00  0.00    +0.000 A 
ATOM      2  C   UNL     1       1.607   7.495  20.965  0.00  0.00    +0.000 A 
ATOM      3  C   UNL     1       1.100   8.764  20.702  0.00  0.00    +0.000 A 
ATOM      4  C   UNL     1       1.248   9.347  19.442  0.00  0.00    +0.000 A 
ATOM      5  C   UNL     1       1.909   8.619  18.440  0.00  0.00    +0.000 A 
ATOM      6  C   UNL     1       2.420   7.337  18.709  0.00  0.00    +0.000 A 
ENDROOT
BRANCH   1   9
ATOM      7  C   UNL     1       1.954   4.362  20.402  0.00  0.00    +0.000 C 
ATOM      8  O   UNL     1       0.736   4.354  20.325  0.00  0.00    +0.000 OA
ATOM      9  N   UNL     1       2.777   5.471  20.228  0.00  0.00    +0.000 N 
ATOM     10  H   UNL     1       3.773   5.325  20.122  0.00  0.00    +0.000 HD
BRANCH   7  11
ATOM     11  C   UNL     1       2.689   3.067  20.645  0.00  0.00    +0.000 C 
BRANCH  11  12
ATOM     12  C   UNL     1       3.870   2.961  19.674  0.00  0.00    +0.000 C 
BRANCH  12  13
ATOM     13  C   UNL     1       3.445   2.614  18.249  0.00  0.00    +0.000 C 
BRANCH  13  14
ATOM     14  C   UNL     1       3.938   3.661  17.248  0.00  0.00    +0.000 C 
BRANCH  14  15
ATOM     15  C   UNL     1       5.281   4.246  17.674  0.00  0.00    +0.000 C 
BRANCH  15  16
ATOM     16  C   UNL     1       5.363   5.749  17.405  0.00  0.00    +0.000 C 
BRANCH  16  18
ATOM     17  O   UNL     1       5.310   6.682  15.176  0.00  0.00    +0.000 OA
ATOM     18  C   UNL     1       5.897   6.021  16.012  0.00  0.00    +0.000 C 
ATOM     19  N   UNL     1       7.133   5.457  15.743  0.00  0.00    +0.000 N 
ATOM     20  H   UNL     1       7.612   4.916  16.438  0.00  0.00    +0.000 HD
BRANCH  19  21
ATOM     21  O   UNL     1       7.785   5.602  14.504  0.00  0.00    +0.000 OA
ATOM     22  H   UNL     1       7.088   5.580  13.826  0.00  0.00    +0.000 HD
ENDBRANCH  19  21
ENDBRANCH  16  18
ENDBRANCH  15  16
ENDBRANCH  14  15
ENDBRANCH  13  14
ENDBRANCH  12  13
ENDBRANCH  11  12
ENDBRANCH   7  11
ENDBRANCH   1   9
BRANCH   4  23
ATOM     23  C   UNL     1       0.738  10.741  19.199  0.00  0.00    +0.000 C 
ATOM     24  O   UNL     1       1.098  11.367  18.219  0.00  0.00    +0.000 OA
ATOM     25  N   UNL     1      -0.143  11.236  20.144  0.00  0.00    +0.000 N 
ATOM     26  H   UNL     1      -0.381  10.674  20.944  0.00  0.00    +0.000 HD
BRANCH  25  27
ATOM     27  C   UNL     1      -0.749  12.569  20.084  0.00  0.00    +0.000 C 
ATOM     28  C   UNL     1       0.319  13.668  20.067  0.00  0.00    +0.000 C 
ATOM     29  C   UNL     1       1.027  13.786  21.416  0.00  0.00    +0.000 C 
ATOM     30  N   UNL     1       0.083  13.997  22.517  0.00  0.00    +0.000 NA
ATOM     31  C   UNL     1      -0.901  12.918  22.591  0.00  0.00    +0.000 C 
ATOM     32  C   UNL     1      -1.682  12.768  21.285  0.00  0.00    +0.000 C 
ATOM     33  H   UNL     1      -0.404  14.883  22.373  0.00  0.00    +0.000 HD
ENDBRANCH  25  27
ENDBRANCH   4  23
TORSDOF 11
ENDMDL
