MODEL 1
REMARK VINA RESULT:      -8.8      0.000      0.000
REMARK  Name = 
REMARK  5 active torsions:
REMARK  status: ('A' for Active; 'I' for Inactive)
REMARK    1  A    between atoms: N_3  and  C_4
REMARK    2  A    between atoms: C_6  and  C_7
REMARK    3  A    between atoms: C_12  and  C_13
REMARK    4  A    between atoms: N_20  and  C_21
REMARK    5  A    between atoms: C_26  and  C_27
REMARK                            x       y       z     vdW  Elec       q    Type
REMARK                         _______ _______ _______ _____ _____    ______ ____
ROOT
ATOM      1  O   UNL     1       2.151   9.358  17.458  0.00  0.00    +0.000 OA
ATOM      2  C   UNL     1       1.865   9.035  18.597  0.00  0.00    +0.000 C 
ATOM      3  N   UNL     1       2.086   7.770  19.195  0.00  0.00    +0.000 N 
ATOM      4  C   UNL     1       1.415   7.732  20.471  0.00  0.00    +0.000 C 
ATOM      5  C   UNL     1       1.233   9.211  20.823  0.00  0.00    +0.000 C 
ATOM      6  N   UNL     1       1.221   9.856  19.538  0.00  0.00    +0.000 N 
ENDROOT
BRANCH   3   7
ATOM      7  C   UNL     1       2.651   6.660  18.513  0.00  0.00    +0.000 A 
ATOM      8  C   UNL     1       2.112   5.389  18.724  0.00  0.00    +0.000 A 
ATOM      9  C   UNL     1       2.648   4.271  18.103  0.00  0.00    +0.000 A 
ATOM     10  N   UNL     1       3.719   4.379  17.276  0.00  0.00    +0.000 NA
ATOM     11  C   UNL     1       4.255   5.615  17.053  0.00  0.00    +0.000 A 
ATOM     12  C   UNL     1       3.728   6.777  17.638  0.00  0.00    +0.000 A 
BRANCH   9  13
ATOM     13  C   UNL     1       1.997   2.914  18.352  0.00  0.00    +0.000 C 
ATOM     14  F   UNL     1       2.361   2.347  19.542  0.00  0.00    +0.000 F 
ATOM     15  F   UNL     1       0.637   2.984  18.394  0.00  0.00    +0.000 F 
ATOM     16  F   UNL     1       2.305   1.986  17.402  0.00  0.00    +0.000 F 
ENDBRANCH   9  13
BRANCH  11  17
ATOM     17  C   UNL     1       5.485   5.717  16.158  0.00  0.00    +0.000 C 
ATOM     18  F   UNL     1       5.276   6.400  14.997  0.00  0.00    +0.000 F 
ATOM     19  F   UNL     1       6.530   6.343  16.774  0.00  0.00    +0.000 F 
ATOM     20  F   UNL     1       5.962   4.492  15.786  0.00  0.00    +0.000 F 
ENDBRANCH  11  17
ENDBRANCH   3   7
BRANCH   6  21
ATOM     21  C   UNL     1       0.554  11.065  19.204  0.00  0.00    +0.000 A 
ATOM     22  C   UNL     1       1.221  12.288  19.438  0.00  0.00    +0.000 A 
ATOM     23  N   UNL     1       0.776  13.519  19.096  0.00  0.00    +0.000 NA
ATOM     24  C   UNL     1      -0.412  13.560  18.489  0.00  0.00    +0.000 A 
ATOM     25  C   UNL     1      -1.165  12.428  18.222  0.00  0.00    +0.000 A 
ATOM     26  C   UNL     1      -0.712  11.136  18.588  0.00  0.00    +0.000 A 
BRANCH  26  27
ATOM     27  C   UNL     1      -1.633   9.972  18.261  0.00  0.00    +0.000 C 
ATOM     28  C   UNL     1      -3.050  10.113  17.758  0.00  0.00    +0.000 C 
ATOM     29  C   UNL     1      -1.968   9.741  16.799  0.00  0.00    +0.000 C 
ENDBRANCH  26  27
ENDBRANCH   6  21
TORSDOF 5
ENDMDL
MODEL 2
REMARK VINA RESULT:      -8.8      0.168      1.030
REMARK  Name = 
REMARK  5 active torsions:
REMARK  status: ('A' for Active; 'I' for Inactive)
REMARK    1  A    between atoms: N_3  and  C_4
REMARK    2  A    between atoms: C_6  and  C_7
REMARK    3  A    between atoms: C_12  and  C_13
REMARK    4  A    between atoms: N_20  and  C_21
REMARK    5  A    between atoms: C_26  and  C_27
REMARK                            x       y       z     vdW  Elec       q    Type
REMARK                         _______ _______ _______ _____ _____    ______ ____
ROOT
ATOM      1  O   UNL     1       2.178   9.379  17.457  0.00  0.00    +0.000 OA
ATOM      2  C   UNL     1       1.883   9.053  18.594  0.00  0.00    +0.000 C 
ATOM      3  N   UNL     1       2.104   7.788  19.191  0.00  0.00    +0.000 N 
ATOM      4  C   UNL     1       1.423   7.746  20.462  0.00  0.00    +0.000 C 
ATOM      5  C   UNL     1       1.232   9.224  20.814  0.00  0.00    +0.000 C 
ATOM      6  N   UNL     1       1.229   9.871  19.530  0.00  0.00    +0.000 N 
ENDROOT
BRANCH   3   7
ATOM      7  C   UNL     1       2.678   6.681  18.513  0.00  0.00    +0.000 A 
ATOM      8  C   UNL     1       2.124   5.413  18.694  0.00  0.00    +0.000 A 
ATOM      9  C   UNL     1       2.667   4.297  18.075  0.00  0.00    +0.000 A 
ATOM     10  N   UNL     1       3.761   4.405  17.278  0.00  0.00    +0.000 NA
ATOM     11  C   UNL     1       4.313   5.639  17.084  0.00  0.00    +0.000 A 
ATOM     12  C   UNL     1       3.779   6.799  17.668  0.00  0.00    +0.000 A 
BRANCH   9  13
ATOM     13  C   UNL     1       1.999   2.943  18.291  0.00  0.00    +0.000 C 
ATOM     14  F   UNL     1       2.362   2.004  17.364  0.00  0.00    +0.000 F 
ATOM     15  F   UNL     1       2.312   2.390  19.497  0.00  0.00    +0.000 F 
ATOM     16  F   UNL     1       0.639   2.998  18.235  0.00  0.00    +0.000 F 
ENDBRANCH   9  13
BRANCH  11  17
ATOM     17  C   UNL     1       5.567   5.741  16.223  0.00  0.00    +0.000 C 
ATOM     18  F   UNL     1       6.340   4.619  16.228  0.00  0.00    +0.000 F 
ATOM     19  F   UNL     1       5.283   5.991  14.912  0.00  0.00    +0.000 F 
ATOM     20  F   UNL     1       6.388   6.758  16.619  0.00  0.00    +0.000 F 
ENDBRANCH  11  17
ENDBRANCH   3   7
BRANCH   6  21
ATOM     21  C   UNL     1       0.560  11.078  19.193  0.00  0.00    +0.000 A 
ATOM     22  C   UNL     1       1.228  12.303  19.419  0.00  0.00    +0.000 A 
ATOM     23  N   UNL     1       0.781  13.531  19.073  0.00  0.00    +0.000 NA
ATOM     24  C   UNL     1      -0.408  13.570  18.469  0.00  0.00    +0.000 A 
ATOM     25  C   UNL     1      -1.162  12.436  18.210  0.00  0.00    +0.000 A 
ATOM     26  C   UNL     1      -0.707  11.146  18.581  0.00  0.00    +0.000 A 
BRANCH  26  27
ATOM     27  C   UNL     1      -1.629   9.980  18.262  0.00  0.00    +0.000 C 
ATOM     28  C   UNL     1      -3.048  10.118  17.764  0.00  0.00    +0.000 C 
ATOM     29  C   UNL     1      -1.970   9.743  16.802  0.00  0.00    +0.000 C 
ENDBRANCH  26  27
ENDBRANCH   6  21
TORSDOF 5
ENDMDL
MODEL 3
REMARK VINA RESULT:      -8.8      0.235      3.223
REMARK  Name = 
REMARK  5 active torsions:
REMARK  status: ('A' for Active; 'I' for Inactive)
REMARK    1  A    between atoms: N_3  and  C_4
REMARK    2  A    between atoms: C_6  and  C_7
REMARK    3  A    between atoms: C_12  and  C_13
REMARK    4  A    between atoms: N_20  and  C_21
REMARK    5  A    between atoms: C_26  and  C_27
REMARK                            x       y       z     vdW  Elec       q    Type
REMARK                         _______ _______ _______ _____ _____    ______ ____
ROOT
ATOM      1  O   UNL     1       2.067   9.240  17.518  0.00  0.00    +0.000 OA
ATOM      2  C   UNL     1       1.800   8.974  18.676  0.00  0.00    +0.000 C 
ATOM      3  N   UNL     1       2.005   7.731  19.323  0.00  0.00    +0.000 N 
ATOM      4  C   UNL     1       1.362   7.764  20.614  0.00  0.00    +0.000 C 
ATOM      5  C   UNL     1       1.221   9.261  20.904  0.00  0.00    +0.000 C 
ATOM      6  N   UNL     1       1.195   9.850  19.593  0.00  0.00    +0.000 N 
ENDROOT
BRANCH   3   7
ATOM      7  C   UNL     1       2.529   6.579  18.679  0.00  0.00    +0.000 A 
ATOM      8  C   UNL     1       3.559   6.733  17.749  0.00  0.00    +0.000 A 
ATOM      9  C   UNL     1       4.084   5.641  17.074  0.00  0.00    +0.000 A 
ATOM     10  N   UNL     1       3.606   4.390  17.292  0.00  0.00    +0.000 NA
ATOM     11  C   UNL     1       2.602   4.220  18.203  0.00  0.00    +0.000 A 
ATOM     12  C   UNL     1       2.061   5.292  18.930  0.00  0.00    +0.000 A 
BRANCH   9  13
ATOM     13  C   UNL     1       5.228   5.870  16.091  0.00  0.00    +0.000 C 
ATOM     14  F   UNL     1       6.427   6.118  16.701  0.00  0.00    +0.000 F 
ATOM     15  F   UNL     1       5.455   4.792  15.288  0.00  0.00    +0.000 F 
ATOM     16  F   UNL     1       5.021   6.931  15.260  0.00  0.00    +0.000 F 
ENDBRANCH   9  13
BRANCH  11  17
ATOM     17  C   UNL     1       2.042   2.816  18.406  0.00  0.00    +0.000 C 
ATOM     18  F   UNL     1       2.365   2.255  19.605  0.00  0.00    +0.000 F 
ATOM     19  F   UNL     1       0.680   2.781  18.334  0.00  0.00    +0.000 F 
ATOM     20  F   UNL     1       2.481   1.939  17.456  0.00  0.00    +0.000 F 
ENDBRANCH  11  17
ENDBRANCH   3   7
BRANCH   6  21
ATOM     21  C   UNL     1       0.548  11.058  19.221  0.00  0.00    +0.000 A 
ATOM     22  C   UNL     1       1.227  12.279  19.436  0.00  0.00    +0.000 A 
ATOM     23  N   UNL     1       0.802  13.506  19.058  0.00  0.00    +0.000 NA
ATOM     24  C   UNL     1      -0.376  13.548  18.433  0.00  0.00    +0.000 A 
ATOM     25  C   UNL     1      -1.140  12.418  18.183  0.00  0.00    +0.000 A 
ATOM     26  C   UNL     1      -0.708  11.130  18.586  0.00  0.00    +0.000 A 
BRANCH  26  27
ATOM     27  C   UNL     1      -1.639   9.970  18.273  0.00  0.00    +0.000 C 
ATOM     28  C   UNL     1      -3.054  10.117  17.768  0.00  0.00    +0.000 C 
ATOM     29  C   UNL     1      -1.975   9.723  16.814  0.00  0.00    +0.000 C 
ENDBRANCH  26  27
ENDBRANCH   6  21
TORSDOF 5
ENDMDL
MODEL 4
REMARK VINA RESULT:      -8.6      0.922      1.191
REMARK  Name = 
REMARK  5 active torsions:
REMARK  status: ('A' for Active; 'I' for Inactive)
REMARK    1  A    between atoms: N_3  and  C_4
REMARK    2  A    between atoms: C_6  and  C_7
REMARK    3  A    between atoms: C_12  and  C_13
REMARK    4  A    between atoms: N_20  and  C_21
REMARK    5  A    between atoms: C_26  and  C_27
REMARK                            x       y       z     vdW  Elec       q    Type
REMARK                         _______ _______ _______ _____ _____    ______ ____
ROOT
ATOM      1  O   UNL     1       1.883   9.181  17.857  0.00  0.00    +0.000 OA
ATOM      2  C   UNL     1       1.646   9.040  19.044  0.00  0.00    +0.000 C 
ATOM      3  N   UNL     1       1.802   7.852  19.799  0.00  0.00    +0.000 N 
ATOM      4  C   UNL     1       1.213   8.046  21.101  0.00  0.00    +0.000 C 
ATOM      5  C   UNL     1       1.173   9.569  21.253  0.00  0.00    +0.000 C 
ATOM      6  N   UNL     1       1.131  10.034  19.893  0.00  0.00    +0.000 N 
ENDROOT
BRANCH   3   7
ATOM      7  C   UNL     1       2.231   6.616  19.250  0.00  0.00    +0.000 A 
ATOM      8  C   UNL     1       1.666   5.430  19.724  0.00  0.00    +0.000 A 
ATOM      9  C   UNL     1       2.073   4.197  19.239  0.00  0.00    +0.000 A 
ATOM     10  N   UNL     1       3.040   4.106  18.291  0.00  0.00    +0.000 NA
ATOM     11  C   UNL     1       3.601   5.255  17.810  0.00  0.00    +0.000 A 
ATOM     12  C   UNL     1       3.199   6.526  18.252  0.00  0.00    +0.000 A 
BRANCH   9  13
ATOM     13  C   UNL     1       1.398   2.940  19.777  0.00  0.00    +0.000 C 
ATOM     14  F   UNL     1       2.211   1.840  19.770  0.00  0.00    +0.000 F 
ATOM     15  F   UNL     1       0.995   3.074  21.072  0.00  0.00    +0.000 F 
ATOM     16  F   UNL     1       0.293   2.575  19.067  0.00  0.00    +0.000 F 
ENDBRANCH   9  13
BRANCH  11  17
ATOM     17  C   UNL     1       4.718   5.137  16.779  0.00  0.00    +0.000 C 
ATOM     18  F   UNL     1       4.594   4.069  15.941  0.00  0.00    +0.000 F 
ATOM     19  F   UNL     1       4.803   6.235  15.972  0.00  0.00    +0.000 F 
ATOM     20  F   UNL     1       5.948   5.013  17.357  0.00  0.00    +0.000 F 
ENDBRANCH  11  17
ENDBRANCH   3   7
BRANCH   6  21
ATOM     21  C   UNL     1       0.543  11.241  19.430  0.00  0.00    +0.000 A 
ATOM     22  C   UNL     1       1.257  12.448  19.606  0.00  0.00    +0.000 A 
ATOM     23  N   UNL     1       0.892  13.666  19.145  0.00  0.00    +0.000 NA
ATOM     24  C   UNL     1      -0.259  13.713  18.471  0.00  0.00    +0.000 A 
ATOM     25  C   UNL     1      -1.053  12.598  18.252  0.00  0.00    +0.000 A 
ATOM     26  C   UNL     1      -0.684  11.320  18.741  0.00  0.00    +0.000 A 
BRANCH  26  27
ATOM     27  C   UNL     1      -1.644  10.177  18.455  0.00  0.00    +0.000 C 
ATOM     28  C   UNL     1      -2.971  10.326  17.752  0.00  0.00    +0.000 C 
ATOM     29  C   UNL     1      -1.810   9.757  17.006  0.00  0.00    +0.000 C 
ENDBRANCH  26  27
ENDBRANCH   6  21
TORSDOF 5
ENDMDL
MODEL 5
REMARK VINA RESULT:      -8.6      0.756      1.097
REMARK  Name = 
REMARK  5 active torsions:
REMARK  status: ('A' for Active; 'I' for Inactive)
REMARK    1  A    between atoms: N_3  and  C_4
REMARK    2  A    between atoms: C_6  and  C_7
REMARK    3  A    between atoms: C_12  and  C_13
REMARK    4  A    between atoms: N_20  and  C_21
REMARK    5  A    between atoms: C_26  and  C_27
REMARK                            x       y       z     vdW  Elec       q    Type
REMARK                         _______ _______ _______ _____ _____    ______ ____
ROOT
ATOM      1  O   UNL     1       1.971   9.155  17.722  0.00  0.00    +0.000 OA
ATOM      2  C   UNL     1       1.721   8.966  18.900  0.00  0.00    +0.000 C 
ATOM      3  N   UNL     1       1.879   7.751  19.610  0.00  0.00    +0.000 N 
ATOM      4  C   UNL     1       1.273   7.889  20.912  0.00  0.00    +0.000 C 
ATOM      5  C   UNL     1       1.217   9.404  21.122  0.00  0.00    +0.000 C 
ATOM      6  N   UNL     1       1.187   9.922  19.781  0.00  0.00    +0.000 N 
ENDROOT
BRANCH   3   7
ATOM      7  C   UNL     1       2.326   6.541  19.018  0.00  0.00    +0.000 A 
ATOM      8  C   UNL     1       1.735   5.337  19.408  0.00  0.00    +0.000 A 
ATOM      9  C   UNL     1       2.158   4.127  18.879  0.00  0.00    +0.000 A 
ATOM     10  N   UNL     1       3.164   4.076  17.970  0.00  0.00    +0.000 NA
ATOM     11  C   UNL     1       3.750   5.244  17.573  0.00  0.00    +0.000 A 
ATOM     12  C   UNL     1       3.336   6.494  18.060  0.00  0.00    +0.000 A 
BRANCH   9  13
ATOM     13  C   UNL     1       1.454   2.849  19.324  0.00  0.00    +0.000 C 
ATOM     14  F   UNL     1       0.422   2.483  18.504  0.00  0.00    +0.000 F 
ATOM     15  F   UNL     1       2.288   1.771  19.348  0.00  0.00    +0.000 F 
ATOM     16  F   UNL     1       0.908   2.940  20.570  0.00  0.00    +0.000 F 
ENDBRANCH   9  13
BRANCH  11  17
ATOM     17  C   UNL     1       4.910   5.171  16.586  0.00  0.00    +0.000 C 
ATOM     18  F   UNL     1       5.130   6.326  15.896  0.00  0.00    +0.000 F 
ATOM     19  F   UNL     1       6.095   4.868  17.192  0.00  0.00    +0.000 F 
ATOM     20  F   UNL     1       4.727   4.203  15.640  0.00  0.00    +0.000 F 
ENDBRANCH  11  17
ENDBRANCH   3   7
BRANCH   6  21
ATOM     21  C   UNL     1       0.593  11.141  19.358  0.00  0.00    +0.000 A 
ATOM     22  C   UNL     1       1.316  12.341  19.545  0.00  0.00    +0.000 A 
ATOM     23  N   UNL     1       0.945  13.570  19.119  0.00  0.00    +0.000 NA
ATOM     24  C   UNL     1      -0.221  13.636  18.473  0.00  0.00    +0.000 A 
ATOM     25  C   UNL     1      -1.023  12.529  18.246  0.00  0.00    +0.000 A 
ATOM     26  C   UNL     1      -0.648  11.239  18.699  0.00  0.00    +0.000 A 
BRANCH  26  27
ATOM     27  C   UNL     1      -1.618  10.106  18.408  0.00  0.00    +0.000 C 
ATOM     28  C   UNL     1      -2.987  10.283  17.795  0.00  0.00    +0.000 C 
ATOM     29  C   UNL     1      -1.870   9.764  16.952  0.00  0.00    +0.000 C 
ENDBRANCH  26  27
ENDBRANCH   6  21
TORSDOF 5
ENDMDL
MODEL 6
REMARK VINA RESULT:      -8.5      0.931      3.353
REMARK  Name = 
REMARK  5 active torsions:
REMARK  status: ('A' for Active; 'I' for Inactive)
REMARK    1  A    between atoms: N_3  and  C_4
REMARK    2  A    between atoms: C_6  and  C_7
REMARK    3  A    between atoms: C_12  and  C_13
REMARK    4  A    between atoms: N_20  and  C_21
REMARK    5  A    between atoms: C_26  and  C_27
REMARK                            x       y       z     vdW  Elec       q    Type
REMARK                         _______ _______ _______ _____ _____    ______ ____
ROOT
ATOM      1  O   UNL     1       1.907   9.163  17.998  0.00  0.00    +0.000 OA
ATOM      2  C   UNL     1       1.630   9.059  19.179  0.00  0.00    +0.000 C 
ATOM      3  N   UNL     1       1.742   7.890  19.971  0.00  0.00    +0.000 N 
ATOM      4  C   UNL     1       1.116   8.128  21.248  0.00  0.00    +0.000 C 
ATOM      5  C   UNL     1       1.096   9.655  21.357  0.00  0.00    +0.000 C 
ATOM      6  N   UNL     1       1.105  10.084  19.985  0.00  0.00    +0.000 N 
ENDROOT
BRANCH   3   7
ATOM      7  C   UNL     1       2.168   6.632  19.469  0.00  0.00    +0.000 A 
ATOM      8  C   UNL     1       3.159   6.593  18.487  0.00  0.00    +0.000 A 
ATOM      9  C   UNL     1       3.587   5.390  17.946  0.00  0.00    +0.000 A 
ATOM     10  N   UNL     1       3.049   4.213  18.352  0.00  0.00    +0.000 NA
ATOM     11  C   UNL     1       2.081   4.230  19.317  0.00  0.00    +0.000 A 
ATOM     12  C   UNL     1       1.638   5.422  19.912  0.00  0.00    +0.000 A 
BRANCH   9  13
ATOM     13  C   UNL     1       4.694   5.413  16.896  0.00  0.00    +0.000 C 
ATOM     14  F   UNL     1       4.617   4.379  16.004  0.00  0.00    +0.000 F 
ATOM     15  F   UNL     1       4.670   6.542  16.134  0.00  0.00    +0.000 F 
ATOM     16  F   UNL     1       5.945   5.336  17.430  0.00  0.00    +0.000 F 
ENDBRANCH   9  13
BRANCH  11  17
ATOM     17  C   UNL     1       1.452   2.905  19.732  0.00  0.00    +0.000 C 
ATOM     18  F   UNL     1       1.009   2.876  21.020  0.00  0.00    +0.000 F 
ATOM     19  F   UNL     1       0.376   2.572  18.960  0.00  0.00    +0.000 F 
ATOM     20  F   UNL     1       2.321   1.858  19.616  0.00  0.00    +0.000 F 
ENDBRANCH  11  17
ENDBRANCH   3   7
BRANCH   6  21
ATOM     21  C   UNL     1       0.552  11.287  19.471  0.00  0.00    +0.000 A 
ATOM     22  C   UNL     1       1.293  12.482  19.613  0.00  0.00    +0.000 A 
ATOM     23  N   UNL     1       0.964  13.691  19.103  0.00  0.00    +0.000 NA
ATOM     24  C   UNL     1      -0.178  13.740  18.413  0.00  0.00    +0.000 A 
ATOM     25  C   UNL     1      -0.995  12.637  18.223  0.00  0.00    +0.000 A 
ATOM     26  C   UNL     1      -0.663  11.370  18.763  0.00  0.00    +0.000 A 
BRANCH  26  27
ATOM     27  C   UNL     1      -1.647  10.240  18.505  0.00  0.00    +0.000 C 
ATOM     28  C   UNL     1      -2.966  10.397  17.787  0.00  0.00    +0.000 C 
ATOM     29  C   UNL     1      -1.812   9.778  17.069  0.00  0.00    +0.000 C 
ENDBRANCH  26  27
ENDBRANCH   6  21
TORSDOF 5
ENDMDL
MODEL 7
REMARK VINA RESULT:      -8.4      1.029      2.322
REMARK  Name = 
REMARK  5 active torsions:
REMARK  status: ('A' for Active; 'I' for Inactive)
REMARK    1  A    between atoms: N_3  and  C_4
REMARK    2  A    between atoms: C_6  and  C_7
REMARK    3  A    between atoms: C_12  and  C_13
REMARK    4  A    between atoms: N_20  and  C_21
REMARK    5  A    between atoms: C_26  and  C_27
REMARK                            x       y       z     vdW  Elec       q    Type
REMARK                         _______ _______ _______ _____ _____    ______ ____
ROOT
ATOM      1  O   UNL     1       1.834   8.999  17.266  0.00  0.00    +0.000 OA
ATOM      2  C   UNL     1       1.737   8.759  18.456  0.00  0.00    +0.000 C 
ATOM      3  N   UNL     1       2.183   7.589  19.118  0.00  0.00    +0.000 N 
ATOM      4  C   UNL     1       1.690   7.601  20.474  0.00  0.00    +0.000 C 
ATOM      5  C   UNL     1       1.375   9.078  20.726  0.00  0.00    +0.000 C 
ATOM      6  N   UNL     1       1.122   9.591  19.407  0.00  0.00    +0.000 N 
ENDROOT
BRANCH   3   7
ATOM      7  C   UNL     1       2.787   6.487  18.458  0.00  0.00    +0.000 A 
ATOM      8  C   UNL     1       2.249   5.211  18.636  0.00  0.00    +0.000 A 
ATOM      9  C   UNL     1       2.821   4.100  18.034  0.00  0.00    +0.000 A 
ATOM     10  N   UNL     1       3.929   4.221  17.259  0.00  0.00    +0.000 NA
ATOM     11  C   UNL     1       4.466   5.462  17.069  0.00  0.00    +0.000 A 
ATOM     12  C   UNL     1       3.903   6.617  17.634  0.00  0.00    +0.000 A 
BRANCH   9  13
ATOM     13  C   UNL     1       2.169   2.738  18.245  0.00  0.00    +0.000 C 
ATOM     14  F   UNL     1       2.511   2.149  19.432  0.00  0.00    +0.000 F 
ATOM     15  F   UNL     1       0.808   2.804  18.262  0.00  0.00    +0.000 F 
ATOM     16  F   UNL     1       2.498   1.829  17.284  0.00  0.00    +0.000 F 
ENDBRANCH   9  13
BRANCH  11  17
ATOM     17  C   UNL     1       5.736   5.578  16.233  0.00  0.00    +0.000 C 
ATOM     18  F   UNL     1       6.479   4.436  16.184  0.00  0.00    +0.000 F 
ATOM     19  F   UNL     1       5.479   5.909  14.934  0.00  0.00    +0.000 F 
ATOM     20  F   UNL     1       6.578   6.548  16.697  0.00  0.00    +0.000 F 
ENDBRANCH  11  17
ENDBRANCH   3   7
BRANCH   6  21
ATOM     21  C   UNL     1       0.277  10.682  19.071  0.00  0.00    +0.000 A 
ATOM     22  C   UNL     1      -1.122  10.480  19.092  0.00  0.00    +0.000 A 
ATOM     23  N   UNL     1      -2.068  11.426  18.892  0.00  0.00    +0.000 NA
ATOM     24  C   UNL     1      -1.618  12.657  18.644  0.00  0.00    +0.000 A 
ATOM     25  C   UNL     1      -0.269  12.970  18.581  0.00  0.00    +0.000 A 
ATOM     26  C   UNL     1       0.729  11.984  18.777  0.00  0.00    +0.000 A 
BRANCH  26  27
ATOM     27  C   UNL     1       2.173  12.443  18.666  0.00  0.00    +0.000 C 
ATOM     28  C   UNL     1       2.606  13.814  18.203  0.00  0.00    +0.000 C 
ATOM     29  C   UNL     1       2.649  13.487  19.659  0.00  0.00    +0.000 C 
ENDBRANCH  26  27
ENDBRANCH   6  21
TORSDOF 5
ENDMDL
MODEL 8
REMARK VINA RESULT:      -8.4      2.098      4.082
REMARK  Name = 
REMARK  5 active torsions:
REMARK  status: ('A' for Active; 'I' for Inactive)
REMARK    1  A    between atoms: N_3  and  C_4
REMARK    2  A    between atoms: C_6  and  C_7
REMARK    3  A    between atoms: C_12  and  C_13
REMARK    4  A    between atoms: N_20  and  C_21
REMARK    5  A    between atoms: C_26  and  C_27
REMARK                            x       y       z     vdW  Elec       q    Type
REMARK                         _______ _______ _______ _____ _____    ______ ____
ROOT
ATOM      1  O   UNL     1       1.754   7.061  20.597  0.00  0.00    +0.000 OA
ATOM      2  C   UNL     1       2.021   7.588  19.532  0.00  0.00    +0.000 C 
ATOM      3  N   UNL     1       2.998   7.158  18.601  0.00  0.00    +0.000 N 
ATOM      4  C   UNL     1       3.147   8.168  17.581  0.00  0.00    +0.000 C 
ATOM      5  C   UNL     1       1.843   8.964  17.672  0.00  0.00    +0.000 C 
ATOM      6  N   UNL     1       1.426   8.760  19.033  0.00  0.00    +0.000 N 
ENDROOT
BRANCH   3   7
ATOM      7  C   UNL     1       3.853   6.045  18.807  0.00  0.00    +0.000 A 
ATOM      8  C   UNL     1       5.209   6.164  18.497  0.00  0.00    +0.000 A 
ATOM      9  C   UNL     1       6.078   5.095  18.655  0.00  0.00    +0.000 A 
ATOM     10  N   UNL     1       5.633   3.896  19.111  0.00  0.00    +0.000 NA
ATOM     11  C   UNL     1       4.311   3.763  19.425  0.00  0.00    +0.000 A 
ATOM     12  C   UNL     1       3.401   4.826  19.308  0.00  0.00    +0.000 A 
BRANCH   9  13
ATOM     13  C   UNL     1       7.553   5.297  18.325  0.00  0.00    +0.000 C 
ATOM     14  F   UNL     1       7.791   6.402  17.553  0.00  0.00    +0.000 F 
ATOM     15  F   UNL     1       8.321   5.470  19.437  0.00  0.00    +0.000 F 
ATOM     16  F   UNL     1       8.100   4.254  17.639  0.00  0.00    +0.000 F 
ENDBRANCH   9  13
BRANCH  11  17
ATOM     17  C   UNL     1       3.814   2.399  19.893  0.00  0.00    +0.000 C 
ATOM     18  F   UNL     1       4.634   1.785  20.792  0.00  0.00    +0.000 F 
ATOM     19  F   UNL     1       2.590   2.465  20.492  0.00  0.00    +0.000 F 
ATOM     20  F   UNL     1       3.669   1.516  18.862  0.00  0.00    +0.000 F 
ENDBRANCH  11  17
ENDBRANCH   3   7
BRANCH   6  21
ATOM     21  C   UNL     1       0.651   9.649  19.823  0.00  0.00    +0.000 A 
ATOM     22  C   UNL     1       1.113   9.975  21.118  0.00  0.00    +0.000 A 
ATOM     23  N   UNL     1       0.553  10.871  21.964  0.00  0.00    +0.000 NA
ATOM     24  C   UNL     1      -0.543  11.486  21.518  0.00  0.00    +0.000 A 
ATOM     25  C   UNL     1      -1.098  11.234  20.273  0.00  0.00    +0.000 A 
ATOM     26  C   UNL     1      -0.526  10.290  19.386  0.00  0.00    +0.000 A 
BRANCH  26  27
ATOM     27  C   UNL     1      -1.234  10.085  18.057  0.00  0.00    +0.000 C 
ATOM     28  C   UNL     1      -2.733  10.029  17.882  0.00  0.00    +0.000 C 
ATOM     29  C   UNL     1      -1.998  11.267  17.488  0.00  0.00    +0.000 C 
ENDBRANCH  26  27
ENDBRANCH   6  21
TORSDOF 5
ENDMDL
MODEL 9
REMARK VINA RESULT:      -8.3      2.055      4.074
REMARK  Name = 
REMARK  5 active torsions:
REMARK  status: ('A' for Active; 'I' for Inactive)
REMARK    1  A    between atoms: N_3  and  C_4
REMARK    2  A    between atoms: C_6  and  C_7
REMARK    3  A    between atoms: C_12  and  C_13
REMARK    4  A    between atoms: N_20  and  C_21
REMARK    5  A    between atoms: C_26  and  C_27
REMARK                            x       y       z     vdW  Elec       q    Type
REMARK                         _______ _______ _______ _____ _____    ______ ____
ROOT
ATOM      1  O   UNL     1       1.750   6.804  20.722  0.00  0.00    +0.000 OA
ATOM      2  C   UNL     1       1.961   7.445  19.708  0.00  0.00    +0.000 C 
ATOM      3  N   UNL     1       2.877   7.115  18.679  0.00  0.00    +0.000 N 
ATOM      4  C   UNL     1       2.981   8.232  17.771  0.00  0.00    +0.000 C 
ATOM      5  C   UNL     1       1.695   9.022  18.027  0.00  0.00    +0.000 C 
ATOM      6  N   UNL     1       1.355   8.669  19.378  0.00  0.00    +0.000 N 
ENDROOT
BRANCH   3   7
ATOM      7  C   UNL     1       3.727   5.979  18.709  0.00  0.00    +0.000 A 
ATOM      8  C   UNL     1       5.097   6.152  18.505  0.00  0.00    +0.000 A 
ATOM      9  C   UNL     1       5.964   5.070  18.498  0.00  0.00    +0.000 A 
ATOM     10  N   UNL     1       5.503   3.807  18.682  0.00  0.00    +0.000 NA
ATOM     11  C   UNL     1       4.166   3.618  18.889  0.00  0.00    +0.000 A 
ATOM     12  C   UNL     1       3.257   4.687  18.933  0.00  0.00    +0.000 A 
BRANCH   9  13
ATOM     13  C   UNL     1       7.454   5.327  18.298  0.00  0.00    +0.000 C 
ATOM     14  F   UNL     1       8.137   5.506  19.470  0.00  0.00    +0.000 F 
ATOM     15  F   UNL     1       8.086   4.294  17.673  0.00  0.00    +0.000 F 
ATOM     16  F   UNL     1       7.714   6.440  17.557  0.00  0.00    +0.000 F 
ENDBRANCH   9  13
BRANCH  11  17
ATOM     17  C   UNL     1       3.654   2.191  19.050  0.00  0.00    +0.000 C 
ATOM     18  F   UNL     1       2.465   2.095  19.708  0.00  0.00    +0.000 F 
ATOM     19  F   UNL     1       3.468   1.564  17.852  0.00  0.00    +0.000 F 
ATOM     20  F   UNL     1       4.526   1.401  19.743  0.00  0.00    +0.000 F 
ENDBRANCH  11  17
ENDBRANCH   3   7
BRANCH   6  21
ATOM     21  C   UNL     1       0.639   9.470  20.307  0.00  0.00    +0.000 A 
ATOM     22  C   UNL     1       1.138   9.581  21.625  0.00  0.00    +0.000 A 
ATOM     23  N   UNL     1       0.639  10.369  22.604  0.00  0.00    +0.000 NA
ATOM     24  C   UNL     1      -0.432  11.096  22.277  0.00  0.00    +0.000 A 
ATOM     25  C   UNL     1      -1.019  11.056  21.022  0.00  0.00    +0.000 A 
ATOM     26  C   UNL     1      -0.510  10.224  19.994  0.00  0.00    +0.000 A 
BRANCH  26  27
ATOM     27  C   UNL     1      -1.249  10.251  18.667  0.00  0.00    +0.000 C 
ATOM     28  C   UNL     1      -2.522  11.020  18.408  0.00  0.00    +0.000 C 
ATOM     29  C   UNL     1      -1.229  11.552  17.886  0.00  0.00    +0.000 C 
ENDBRANCH  26  27
ENDBRANCH   6  21
TORSDOF 5
ENDMDL
