MODEL 1
REMARK VINA RESULT:      -7.1      0.000      0.000
REMARK  Name = 
REMARK  5 active torsions:
REMARK  status: ('A' for Active; 'I' for Inactive)
REMARK    1  A    between atoms: C_1  and  O_2
REMARK    2  A    between atoms: O_2  and  C_3
REMARK    3  A    between atoms: C_8  and  C_9
REMARK    4  A    between atoms: C_9  and  C_10
REMARK    5  A    between atoms: C_9  and  C_11
REMARK                            x       y       z     vdW  Elec       q    Type
REMARK                         _______ _______ _______ _____ _____    ______ ____
ROOT
ATOM      1  C   UNL     1      -0.863  11.478  20.147  0.00  0.00    +0.000 A 
ATOM      2  C   UNL     1      -0.667  10.824  21.360  0.00  0.00    +0.000 A 
ATOM      3  C   UNL     1       0.179   9.710  21.429  0.00  0.00    +0.000 A 
ATOM      4  C   UNL     1       0.834   9.226  20.284  0.00  0.00    +0.000 A 
ATOM      5  C   UNL     1       1.647   8.075  20.326  0.00  0.00    +0.000 A 
ATOM      6  C   UNL     1       2.267   7.557  19.171  0.00  0.00    +0.000 A 
ATOM      7  C   UNL     1       2.082   8.233  17.963  0.00  0.00    +0.000 A 
ATOM      8  C   UNL     1       1.295   9.393  17.910  0.00  0.00    +0.000 A 
ATOM      9  C   UNL     1       0.651   9.891  19.056  0.00  0.00    +0.000 A 
ATOM     10  C   UNL     1      -0.192  11.017  19.009  0.00  0.00    +0.000 A 
ENDROOT
BRANCH   1  12
ATOM     11  C   UNL     1      -2.996  12.294  19.482  0.00  0.00    +0.000 C 
ATOM     12  O   UNL     1      -1.675  12.560  19.940  0.00  0.00    +0.000 OA
ENDBRANCH   1  12
BRANCH   6  13
ATOM     13  C   UNL     1       3.009   6.227  19.274  0.00  0.00    +0.000 C 
ATOM     14  C   UNL     1       2.335   5.343  20.332  0.00  0.00    +0.000 C 
BRANCH  13  15
ATOM     15  C   UNL     1       3.172   5.455  17.947  0.00  0.00    +0.000 C 
ATOM     16  O   UNL     1       2.301   4.675  17.561  0.00  0.00    +0.000 OA
ATOM     17  N   UNL     1       4.352   5.638  17.222  0.00  0.00    +0.000 N 
ATOM     18  C   UNL     1       5.450   6.537  17.590  0.00  0.00    +0.000 C 
ATOM     19  C   UNL     1       6.653   5.771  18.147  0.00  0.00    +0.000 C 
ATOM     20  S   UNL     1       7.339   4.607  16.920  0.00  0.00    +0.000 S 
ATOM     21  C   UNL     1       5.785   3.730  16.513  0.00  0.00    +0.000 C 
ATOM     22  C   UNL     1       4.666   4.705  16.126  0.00  0.00    +0.000 C 
ENDBRANCH  13  15
ENDBRANCH   6  13
TORSDOF 3
ENDMDL
MODEL 2
REMARK VINA RESULT:      -7.1      2.260      2.961
REMARK  Name = 
REMARK  5 active torsions:
REMARK  status: ('A' for Active; 'I' for Inactive)
REMARK    1  A    between atoms: C_1  and  O_2
REMARK    2  A    between atoms: O_2  and  C_3
REMARK    3  A    between atoms: C_8  and  C_9
REMARK    4  A    between atoms: C_9  and  C_10
REMARK    5  A    between atoms: C_9  and  C_11
REMARK                            x       y       z     vdW  Elec       q    Type
REMARK                         _______ _______ _______ _____ _____    ______ ____
ROOT
ATOM      1  C   UNL     1      -0.528  10.668  21.325  0.00  0.00    +0.000 A 
ATOM      2  C   UNL     1      -0.127   9.621  22.150  0.00  0.00    +0.000 A 
ATOM      3  C   UNL     1       0.753   8.645  21.668  0.00  0.00    +0.000 A 
ATOM      4  C   UNL     1       1.240   8.695  20.350  0.00  0.00    +0.000 A 
ATOM      5  C   UNL     1       2.084   7.692  19.833  0.00  0.00    +0.000 A 
ATOM      6  C   UNL     1       2.535   7.712  18.498  0.00  0.00    +0.000 A 
ATOM      7  C   UNL     1       2.145   8.779  17.685  0.00  0.00    +0.000 A 
ATOM      8  C   UNL     1       1.324   9.796  18.193  0.00  0.00    +0.000 A 
ATOM      9  C   UNL     1       0.848   9.759  19.515  0.00  0.00    +0.000 A 
ATOM     10  C   UNL     1      -0.027  10.739  20.021  0.00  0.00    +0.000 A 
ENDROOT
BRANCH   1  12
ATOM     11  C   UNL     1      -1.616  11.889  23.053  0.00  0.00    +0.000 C 
ATOM     12  O   UNL     1      -1.397  11.670  21.664  0.00  0.00    +0.000 OA
ENDBRANCH   1  12
BRANCH   6  13
ATOM     13  C   UNL     1       3.326   6.515  17.976  0.00  0.00    +0.000 C 
ATOM     14  C   UNL     1       4.465   7.007  17.073  0.00  0.00    +0.000 C 
BRANCH  13  15
ATOM     15  C   UNL     1       3.867   5.555  19.057  0.00  0.00    +0.000 C 
ATOM     16  O   UNL     1       4.975   5.736  19.563  0.00  0.00    +0.000 OA
ATOM     17  N   UNL     1       3.081   4.457  19.412  0.00  0.00    +0.000 N 
ATOM     18  C   UNL     1       1.754   4.146  18.873  0.00  0.00    +0.000 C 
ATOM     19  C   UNL     1       1.800   2.991  17.869  0.00  0.00    +0.000 C 
ATOM     20  S   UNL     1       2.409   1.452  18.640  0.00  0.00    +0.000 S 
ATOM     21  C   UNL     1       3.953   2.125  19.355  0.00  0.00    +0.000 C 
ATOM     22  C   UNL     1       3.688   3.373  20.206  0.00  0.00    +0.000 C 
ENDBRANCH  13  15
ENDBRANCH   6  13
TORSDOF 3
ENDMDL
MODEL 3
REMARK VINA RESULT:      -6.6      4.200      8.331
REMARK  Name = 
REMARK  5 active torsions:
REMARK  status: ('A' for Active; 'I' for Inactive)
REMARK    1  A    between atoms: C_1  and  O_2
REMARK    2  A    between atoms: O_2  and  C_3
REMARK    3  A    between atoms: C_8  and  C_9
REMARK    4  A    between atoms: C_9  and  C_10
REMARK    5  A    between atoms: C_9  and  C_11
REMARK                            x       y       z     vdW  Elec       q    Type
REMARK                         _______ _______ _______ _____ _____    ______ ____
ROOT
ATOM      1  C   UNL     1       3.867   5.965  17.912  0.00  0.00    +0.000 A 
ATOM      2  C   UNL     1       3.589   5.435  19.169  0.00  0.00    +0.000 A 
ATOM      3  C   UNL     1       2.733   6.114  20.044  0.00  0.00    +0.000 A 
ATOM      4  C   UNL     1       2.149   7.340  19.681  0.00  0.00    +0.000 A 
ATOM      5  C   UNL     1       1.328   8.063  20.570  0.00  0.00    +0.000 A 
ATOM      6  C   UNL     1       0.780   9.315  20.228  0.00  0.00    +0.000 A 
ATOM      7  C   UNL     1       1.046   9.828  18.956  0.00  0.00    +0.000 A 
ATOM      8  C   UNL     1       1.842   9.109  18.052  0.00  0.00    +0.000 A 
ATOM      9  C   UNL     1       2.416   7.875  18.405  0.00  0.00    +0.000 A 
ATOM     10  C   UNL     1       3.267   7.171  17.533  0.00  0.00    +0.000 A 
ENDROOT
BRANCH   1  12
ATOM     11  C   UNL     1       5.331   4.187  17.317  0.00  0.00    +0.000 C 
ATOM     12  O   UNL     1       4.698   5.415  16.974  0.00  0.00    +0.000 OA
ENDBRANCH   1  12
BRANCH   6  13
ATOM     13  C   UNL     1       0.023  10.098  21.298  0.00  0.00    +0.000 C 
ATOM     14  C   UNL     1       0.238   9.438  22.666  0.00  0.00    +0.000 C 
BRANCH  13  15
ATOM     15  C   UNL     1       0.346  11.606  21.367  0.00  0.00    +0.000 C 
ATOM     16  O   UNL     1       1.512  12.001  21.386  0.00  0.00    +0.000 OA
ATOM     17  N   UNL     1      -0.722  12.503  21.448  0.00  0.00    +0.000 N 
ATOM     18  C   UNL     1      -2.143  12.142  21.436  0.00  0.00    +0.000 C 
ATOM     19  C   UNL     1      -2.771  12.245  22.828  0.00  0.00    +0.000 C 
ATOM     20  S   UNL     1      -2.684  13.946  23.483  0.00  0.00    +0.000 S 
ATOM     21  C   UNL     1      -0.889  14.211  23.252  0.00  0.00    +0.000 C 
ATOM     22  C   UNL     1      -0.450  13.904  21.815  0.00  0.00    +0.000 C 
ENDBRANCH  13  15
ENDBRANCH   6  13
TORSDOF 3
ENDMDL
MODEL 4
REMARK VINA RESULT:      -6.5      1.918      2.075
REMARK  Name = 
REMARK  5 active torsions:
REMARK  status: ('A' for Active; 'I' for Inactive)
REMARK    1  A    between atoms: C_1  and  O_2
REMARK    2  A    between atoms: O_2  and  C_3
REMARK    3  A    between atoms: C_8  and  C_9
REMARK    4  A    between atoms: C_9  and  C_10
REMARK    5  A    between atoms: C_9  and  C_11
REMARK                            x       y       z     vdW  Elec       q    Type
REMARK                         _______ _______ _______ _____ _____    ______ ____
ROOT
ATOM      1  C   UNL     1      -0.249  12.032  20.055  0.00  0.00    +0.000 A 
ATOM      2  C   UNL     1      -0.394  11.346  21.257  0.00  0.00    +0.000 A 
ATOM      3  C   UNL     1       0.178  10.078  21.416  0.00  0.00    +0.000 A 
ATOM      4  C   UNL     1       0.896   9.471  20.371  0.00  0.00    +0.000 A 
ATOM      5  C   UNL     1       1.433   8.174  20.496  0.00  0.00    +0.000 A 
ATOM      6  C   UNL     1       2.112   7.542  19.436  0.00  0.00    +0.000 A 
ATOM      7  C   UNL     1       2.273   8.247  18.240  0.00  0.00    +0.000 A 
ATOM      8  C   UNL     1       1.764   9.548  18.109  0.00  0.00    +0.000 A 
ATOM      9  C   UNL     1       1.058  10.165  19.157  0.00  0.00    +0.000 A 
ATOM     10  C   UNL     1       0.488  11.445  19.020  0.00  0.00    +0.000 A 
ENDROOT
BRANCH   1  12
ATOM     11  C   UNL     1      -0.379  13.854  18.532  0.00  0.00    +0.000 C 
ATOM     12  O   UNL     1      -0.773  13.262  19.764  0.00  0.00    +0.000 OA
ENDBRANCH   1  12
BRANCH   6  13
ATOM     13  C   UNL     1       2.535   6.084  19.603  0.00  0.00    +0.000 C 
ATOM     14  C   UNL     1       1.836   5.485  20.830  0.00  0.00    +0.000 C 
BRANCH  13  15
ATOM     15  C   UNL     1       2.321   5.186  18.365  0.00  0.00    +0.000 C 
ATOM     16  O   UNL     1       1.321   5.316  17.658  0.00  0.00    +0.000 OA
ATOM     17  N   UNL     1       3.273   4.201  18.097  0.00  0.00    +0.000 N 
ATOM     18  C   UNL     1       4.494   3.960  18.872  0.00  0.00    +0.000 C 
ATOM     19  C   UNL     1       4.375   2.716  19.756  0.00  0.00    +0.000 C 
ATOM     20  S   UNL     1       4.096   1.209  18.765  0.00  0.00    +0.000 S 
ATOM     21  C   UNL     1       2.660   1.806  17.801  0.00  0.00    +0.000 C 
ATOM     22  C   UNL     1       2.952   3.147  17.117  0.00  0.00    +0.000 C 
ENDBRANCH  13  15
ENDBRANCH   6  13
TORSDOF 3
ENDMDL
MODEL 5
REMARK VINA RESULT:      -6.5      1.670      3.099
REMARK  Name = 
REMARK  5 active torsions:
REMARK  status: ('A' for Active; 'I' for Inactive)
REMARK    1  A    between atoms: C_1  and  O_2
REMARK    2  A    between atoms: O_2  and  C_3
REMARK    3  A    between atoms: C_8  and  C_9
REMARK    4  A    between atoms: C_9  and  C_10
REMARK    5  A    between atoms: C_9  and  C_11
REMARK                            x       y       z     vdW  Elec       q    Type
REMARK                         _______ _______ _______ _____ _____    ______ ____
ROOT
ATOM      1  C   UNL     1       1.053   9.890  19.865  0.00  0.00    +0.000 A 
ATOM      2  C   UNL     1       1.418   9.880  18.522  0.00  0.00    +0.000 A 
ATOM      3  C   UNL     1       1.924   8.710  17.940  0.00  0.00    +0.000 A 
ATOM      4  C   UNL     1       2.081   7.535  18.695  0.00  0.00    +0.000 A 
ATOM      5  C   UNL     1       2.637   6.366  18.139  0.00  0.00    +0.000 A 
ATOM      6  C   UNL     1       2.842   5.200  18.904  0.00  0.00    +0.000 A 
ATOM      7  C   UNL     1       2.452   5.214  20.245  0.00  0.00    +0.000 A 
ATOM      8  C   UNL     1       1.875   6.363  20.806  0.00  0.00    +0.000 A 
ATOM      9  C   UNL     1       1.701   7.535  20.051  0.00  0.00    +0.000 A 
ATOM     10  C   UNL     1       1.182   8.716  20.615  0.00  0.00    +0.000 A 
ENDROOT
BRANCH   1  12
ATOM     11  C   UNL     1      -0.828  11.219  20.459  0.00  0.00    +0.000 C 
ATOM     12  O   UNL     1       0.568  10.967  20.557  0.00  0.00    +0.000 OA
ENDBRANCH   1  12
BRANCH   6  13
ATOM     13  C   UNL     1       3.583   4.028  18.266  0.00  0.00    +0.000 C 
ATOM     14  C   UNL     1       3.409   4.079  16.742  0.00  0.00    +0.000 C 
BRANCH  13  15
ATOM     15  C   UNL     1       5.076   3.906  18.638  0.00  0.00    +0.000 C 
ATOM     16  O   UNL     1       5.429   3.261  19.625  0.00  0.00    +0.000 OA
ATOM     17  N   UNL     1       6.006   4.581  17.844  0.00  0.00    +0.000 N 
ATOM     18  C   UNL     1       5.696   5.375  16.652  0.00  0.00    +0.000 C 
ATOM     19  C   UNL     1       5.782   6.879  16.928  0.00  0.00    +0.000 C 
ATOM     20  S   UNL     1       7.461   7.374  17.446  0.00  0.00    +0.000 S 
ATOM     21  C   UNL     1       7.670   6.165  18.804  0.00  0.00    +0.000 C 
ATOM     22  C   UNL     1       7.387   4.732  18.337  0.00  0.00    +0.000 C 
ENDBRANCH  13  15
ENDBRANCH   6  13
TORSDOF 3
ENDMDL
MODEL 6
REMARK VINA RESULT:      -6.5      1.229      1.974
REMARK  Name = 
REMARK  5 active torsions:
REMARK  status: ('A' for Active; 'I' for Inactive)
REMARK    1  A    between atoms: C_1  and  O_2
REMARK    2  A    between atoms: O_2  and  C_3
REMARK    3  A    between atoms: C_8  and  C_9
REMARK    4  A    between atoms: C_9  and  C_10
REMARK    5  A    between atoms: C_9  and  C_11
REMARK                            x       y       z     vdW  Elec       q    Type
REMARK                         _______ _______ _______ _____ _____    ______ ____
ROOT
ATOM      1  C   UNL     1       0.711  11.491  19.507  0.00  0.00    +0.000 A 
ATOM      2  C   UNL     1       1.351  11.227  18.299  0.00  0.00    +0.000 A 
ATOM      3  C   UNL     1       1.870   9.952  18.043  0.00  0.00    +0.000 A 
ATOM      4  C   UNL     1       1.766   8.923  18.995  0.00  0.00    +0.000 A 
ATOM      5  C   UNL     1       2.329   7.650  18.775  0.00  0.00    +0.000 A 
ATOM      6  C   UNL     1       2.270   6.630  19.746  0.00  0.00    +0.000 A 
ATOM      7  C   UNL     1       1.606   6.897  20.945  0.00  0.00    +0.000 A 
ATOM      8  C   UNL     1       1.020   8.152  21.169  0.00  0.00    +0.000 A 
ATOM      9  C   UNL     1       1.108   9.180  20.214  0.00  0.00    +0.000 A 
ATOM     10  C   UNL     1       0.580  10.463  20.448  0.00  0.00    +0.000 A 
ENDROOT
BRANCH   1  12
ATOM     11  C   UNL     1       0.260  13.759  18.948  0.00  0.00    +0.000 C 
ATOM     12  O   UNL     1       0.181  12.694  19.889  0.00  0.00    +0.000 OA
ENDBRANCH   1  12
BRANCH   6  13
ATOM     13  C   UNL     1       3.029   5.331  19.489  0.00  0.00    +0.000 C 
ATOM     14  C   UNL     1       2.355   4.183  20.252  0.00  0.00    +0.000 C 
BRANCH  13  15
ATOM     15  C   UNL     1       3.218   4.956  18.003  0.00  0.00    +0.000 C 
ATOM     16  O   UNL     1       2.378   4.276  17.413  0.00  0.00    +0.000 OA
ATOM     17  N   UNL     1       4.386   5.377  17.364  0.00  0.00    +0.000 N 
ATOM     18  C   UNL     1       5.448   6.186  17.970  0.00  0.00    +0.000 C 
ATOM     19  C   UNL     1       6.684   5.347  18.307  0.00  0.00    +0.000 C 
ATOM     20  S   UNL     1       7.412   4.590  16.814  0.00  0.00    +0.000 S 
ATOM     21  C   UNL     1       5.894   3.794  16.173  0.00  0.00    +0.000 C 
ATOM     22  C   UNL     1       4.734   4.791  16.057  0.00  0.00    +0.000 C 
ENDBRANCH  13  15
ENDBRANCH   6  13
TORSDOF 3
ENDMDL
MODEL 7
REMARK VINA RESULT:      -6.4      3.843      7.999
REMARK  Name = 
REMARK  5 active torsions:
REMARK  status: ('A' for Active; 'I' for Inactive)
REMARK    1  A    between atoms: C_1  and  O_2
REMARK    2  A    between atoms: O_2  and  C_3
REMARK    3  A    between atoms: C_8  and  C_9
REMARK    4  A    between atoms: C_9  and  C_10
REMARK    5  A    between atoms: C_9  and  C_11
REMARK                            x       y       z     vdW  Elec       q    Type
REMARK                         _______ _______ _______ _____ _____    ______ ____
ROOT
ATOM      1  C   UNL     1       4.906   5.750  17.713  0.00  0.00    +0.000 A 
ATOM      2  C   UNL     1       4.519   5.169  18.918  0.00  0.00    +0.000 A 
ATOM      3  C   UNL     1       3.471   5.726  19.661  0.00  0.00    +0.000 A 
ATOM      4  C   UNL     1       2.799   6.877  19.216  0.00  0.00    +0.000 A 
ATOM      5  C   UNL     1       1.777   7.480  19.977  0.00  0.00    +0.000 A 
ATOM      6  C   UNL     1       1.134   8.662  19.559  0.00  0.00    +0.000 A 
ATOM      7  C   UNL     1       1.513   9.224  18.338  0.00  0.00    +0.000 A 
ATOM      8  C   UNL     1       2.512   8.622  17.558  0.00  0.00    +0.000 A 
ATOM      9  C   UNL     1       3.176   7.461  17.991  0.00  0.00    +0.000 A 
ATOM     10  C   UNL     1       4.223   6.880  17.251  0.00  0.00    +0.000 A 
ENDROOT
BRANCH   1  12
ATOM     11  C   UNL     1       7.039   4.711  17.544  0.00  0.00    +0.000 C 
ATOM     12  O   UNL     1       5.923   5.320  16.905  0.00  0.00    +0.000 OA
ENDBRANCH   1  12
BRANCH   6  13
ATOM     13  C   UNL     1       0.143   9.330  20.509  0.00  0.00    +0.000 C 
ATOM     14  C   UNL     1      -0.249   8.345  21.619  0.00  0.00    +0.000 C 
BRANCH  13  15
ATOM     15  C   UNL     1       0.607  10.673  21.114  0.00  0.00    +0.000 C 
ATOM     16  O   UNL     1       1.395  10.698  22.059  0.00  0.00    +0.000 OA
ATOM     17  N   UNL     1       0.076  11.850  20.583  0.00  0.00    +0.000 N 
ATOM     18  C   UNL     1      -0.866  11.933  19.463  0.00  0.00    +0.000 C 
ATOM     19  C   UNL     1      -2.289  12.248  19.934  0.00  0.00    +0.000 C 
ATOM     20  S   UNL     1      -2.374  13.858  20.791  0.00  0.00    +0.000 S 
ATOM     21  C   UNL     1      -1.035  13.566  22.004  0.00  0.00    +0.000 C 
ATOM     22  C   UNL     1       0.261  13.112  21.321  0.00  0.00    +0.000 C 
ENDBRANCH  13  15
ENDBRANCH   6  13
TORSDOF 3
ENDMDL
MODEL 8
REMARK VINA RESULT:      -6.4      4.018      8.171
REMARK  Name = 
REMARK  5 active torsions:
REMARK  status: ('A' for Active; 'I' for Inactive)
REMARK    1  A    between atoms: C_1  and  O_2
REMARK    2  A    between atoms: O_2  and  C_3
REMARK    3  A    between atoms: C_8  and  C_9
REMARK    4  A    between atoms: C_9  and  C_10
REMARK    5  A    between atoms: C_9  and  C_11
REMARK                            x       y       z     vdW  Elec       q    Type
REMARK                         _______ _______ _______ _____ _____    ______ ____
ROOT
ATOM      1  C   UNL     1       3.513   5.030  18.845  0.00  0.00    +0.000 A 
ATOM      2  C   UNL     1       2.960   4.698  20.079  0.00  0.00    +0.000 A 
ATOM      3  C   UNL     1       2.126   5.606  20.742  0.00  0.00    +0.000 A 
ATOM      4  C   UNL     1       1.839   6.865  20.187  0.00  0.00    +0.000 A 
ATOM      5  C   UNL     1       1.044   7.811  20.866  0.00  0.00    +0.000 A 
ATOM      6  C   UNL     1       0.793   9.092  20.337  0.00  0.00    +0.000 A 
ATOM      7  C   UNL     1       1.334   9.408  19.088  0.00  0.00    +0.000 A 
ATOM      8  C   UNL     1       2.108   8.469  18.390  0.00  0.00    +0.000 A 
ATOM      9  C   UNL     1       2.384   7.202  18.933  0.00  0.00    +0.000 A 
ATOM     10  C   UNL     1       3.210   6.272  18.275  0.00  0.00    +0.000 A 
ENDROOT
BRANCH   1  12
ATOM     11  C   UNL     1       3.836   3.011  17.632  0.00  0.00    +0.000 C 
ATOM     12  O   UNL     1       4.357   4.246  18.106  0.00  0.00    +0.000 OA
ENDBRANCH   1  12
BRANCH   6  13
ATOM     13  C   UNL     1       0.046  10.106  21.199  0.00  0.00    +0.000 C 
ATOM     14  C   UNL     1       0.159   9.706  22.676  0.00  0.00    +0.000 C 
BRANCH  13  15
ATOM     15  C   UNL     1       0.465  11.579  21.003  0.00  0.00    +0.000 C 
ATOM     16  O   UNL     1       1.555  11.983  21.408  0.00  0.00    +0.000 OA
ATOM     17  N   UNL     1      -0.444  12.444  20.389  0.00  0.00    +0.000 N 
ATOM     18  C   UNL     1      -1.764  12.069  19.873  0.00  0.00    +0.000 C 
ATOM     19  C   UNL     1      -2.893  12.546  20.790  0.00  0.00    +0.000 C 
ATOM     20  S   UNL     1      -2.908  14.364  20.953  0.00  0.00    +0.000 S 
ATOM     21  C   UNL     1      -1.158  14.585  21.440  0.00  0.00    +0.000 C 
ATOM     22  C   UNL     1      -0.203  13.896  20.457  0.00  0.00    +0.000 C 
ENDBRANCH  13  15
ENDBRANCH   6  13
TORSDOF 3
ENDMDL
MODEL 9
REMARK VINA RESULT:      -6.4      3.742      7.829
REMARK  Name = 
REMARK  5 active torsions:
REMARK  status: ('A' for Active; 'I' for Inactive)
REMARK    1  A    between atoms: C_1  and  O_2
REMARK    2  A    between atoms: O_2  and  C_3
REMARK    3  A    between atoms: C_8  and  C_9
REMARK    4  A    between atoms: C_9  and  C_10
REMARK    5  A    between atoms: C_9  and  C_11
REMARK                            x       y       z     vdW  Elec       q    Type
REMARK                         _______ _______ _______ _____ _____    ______ ____
ROOT
ATOM      1  C   UNL     1       3.586   5.045  18.950  0.00  0.00    +0.000 A 
ATOM      2  C   UNL     1       3.782   5.740  17.760  0.00  0.00    +0.000 A 
ATOM      3  C   UNL     1       3.225   7.014  17.591  0.00  0.00    +0.000 A 
ATOM      4  C   UNL     1       2.455   7.609  18.604  0.00  0.00    +0.000 A 
ATOM      5  C   UNL     1       1.843   8.866  18.430  0.00  0.00    +0.000 A 
ATOM      6  C   UNL     1       1.031   9.446  19.424  0.00  0.00    +0.000 A 
ATOM      7  C   UNL     1       0.858   8.751  20.624  0.00  0.00    +0.000 A 
ATOM      8  C   UNL     1       1.479   7.509  20.821  0.00  0.00    +0.000 A 
ATOM      9  C   UNL     1       2.264   6.916  19.816  0.00  0.00    +0.000 A 
ATOM     10  C   UNL     1       2.843   5.643  19.974  0.00  0.00    +0.000 A 
ENDROOT
BRANCH   1  12
ATOM     11  C   UNL     1       3.300   3.017  20.159  0.00  0.00    +0.000 C 
ATOM     12  O   UNL     1       4.055   3.792  19.235  0.00  0.00    +0.000 OA
ENDBRANCH   1  12
BRANCH   6  13
ATOM     13  C   UNL     1       0.289  10.740  19.100  0.00  0.00    +0.000 C 
ATOM     14  C   UNL     1      -1.100  10.408  18.537  0.00  0.00    +0.000 C 
BRANCH  13  15
ATOM     15  C   UNL     1       0.175  11.748  20.264  0.00  0.00    +0.000 C 
ATOM     16  O   UNL     1      -0.745  11.668  21.079  0.00  0.00    +0.000 OA
ATOM     17  N   UNL     1       1.121  12.772  20.339  0.00  0.00    +0.000 N 
ATOM     18  C   UNL     1       2.250  12.961  19.425  0.00  0.00    +0.000 C 
ATOM     19  C   UNL     1       2.007  14.113  18.445  0.00  0.00    +0.000 C 
ATOM     20  S   UNL     1       1.786  15.702  19.315  0.00  0.00    +0.000 S 
ATOM     21  C   UNL     1       0.472  15.173  20.473  0.00  0.00    +0.000 C 
ATOM     22  C   UNL     1       0.870  13.908  21.245  0.00  0.00    +0.000 C 
ENDBRANCH  13  15
ENDBRANCH   6  13
TORSDOF 3
ENDMDL
