MODEL 1
REMARK VINA RESULT:      -8.2      0.000      0.000
REMARK  Name = 
REMARK  5 active torsions:
REMARK  status: ('A' for Active; 'I' for Inactive)
REMARK    1  A    between atoms: C_1  and  O_2
REMARK    2  A    between atoms: O_2  and  C_3
REMARK    3  A    between atoms: C_6  and  N_7
REMARK    4  A    between atoms: C_10  and  C_11
REMARK    5  A    between atoms: C_12  and  C_13
REMARK                            x       y       z     vdW  Elec       q    Type
REMARK                         _______ _______ _______ _____ _____    ______ ____
ROOT
ATOM      1  N   UNL     1       1.072   9.294  19.545  0.00  0.00    +0.000 N 
ATOM      2  C   UNL     1       0.663   8.748  20.763  0.00  0.00    +0.000 A 
ATOM      3  C   UNL     1       1.027   7.536  21.171  0.00  0.00    +0.000 A 
ATOM      4  C   UNL     1       1.908   6.715  20.373  0.00  0.00    +0.000 A 
ATOM      5  C   UNL     1       2.286   5.371  20.935  0.00  0.00    +0.000 C 
ATOM      6  C   UNL     1       2.341   7.196  19.189  0.00  0.00    +0.000 A 
ATOM      7  C   UNL     1       1.893   8.542  18.682  0.00  0.00    +0.000 A 
ATOM      8  O   UNL     1       2.305   8.903  17.578  0.00  0.00    +0.000 OA
ENDROOT
BRANCH   6   9
ATOM      9  C   UNL     1       3.278   6.438  18.344  0.00  0.00    +0.000 A 
ATOM     10  C   UNL     1       2.868   5.258  17.726  0.00  0.00    +0.000 A 
ATOM     11  C   UNL     1       3.728   4.603  16.844  0.00  0.00    +0.000 A 
ATOM     12  C   UNL     1       4.993   5.107  16.570  0.00  0.00    +0.000 A 
ATOM     13  N   UNL     1       5.722   4.603  15.569  0.00  0.00    +0.000 NA
ATOM     14  C   UNL     1       6.917   5.157  15.348  0.00  0.00    +0.000 A 
ATOM     15  N   UNL     1       7.456   5.037  14.078  0.00  0.00    +0.000 N 
ATOM     16  N   UNL     1       7.506   6.074  16.116  0.00  0.00    +0.000 NA
ATOM     17  C   UNL     1       6.750   6.581  17.098  0.00  0.00    +0.000 A 
ATOM     18  C   UNL     1       5.441   6.198  17.319  0.00  0.00    +0.000 A 
ATOM     19  C   UNL     1       4.587   6.885  18.188  0.00  0.00    +0.000 A 
ATOM     20  H   UNL     1       6.689   5.251  13.450  0.00  0.00    +0.000 HD
ATOM     21  H   UNL     1       8.193   5.733  14.040  0.00  0.00    +0.000 HD
ENDBRANCH   6   9
BRANCH   1  25
ATOM     22  C   UNL     1      -0.080  13.287  18.550  0.00  0.00    +0.000 A 
ATOM     23  C   UNL     1       1.168  13.038  19.111  0.00  0.00    +0.000 A 
ATOM     24  C   UNL     1       1.566  11.733  19.408  0.00  0.00    +0.000 A 
ATOM     25  C   UNL     1       0.713  10.644  19.179  0.00  0.00    +0.000 A 
ATOM     26  C   UNL     1      -0.542  10.914  18.607  0.00  0.00    +0.000 A 
ATOM     27  C   UNL     1      -0.937  12.221  18.300  0.00  0.00    +0.000 A 
BRANCH  22  29
ATOM     28  C   UNL     1       0.557  15.534  18.881  0.00  0.00    +0.000 C 
ATOM     29  O   UNL     1      -0.369  14.605  18.332  0.00  0.00    +0.000 OA
ENDBRANCH  22  29
ENDBRANCH   1  25
TORSDOF 3
ENDMDL
MODEL 2
REMARK VINA RESULT:      -8.0      2.551      8.234
REMARK  Name = 
REMARK  5 active torsions:
REMARK  status: ('A' for Active; 'I' for Inactive)
REMARK    1  A    between atoms: C_1  and  O_2
REMARK    2  A    between atoms: O_2  and  C_3
REMARK    3  A    between atoms: C_6  and  N_7
REMARK    4  A    between atoms: C_10  and  C_11
REMARK    5  A    between atoms: C_12  and  C_13
REMARK                            x       y       z     vdW  Elec       q    Type
REMARK                         _______ _______ _______ _____ _____    ______ ____
ROOT
ATOM      1  N   UNL     1       2.787   6.746  18.808  0.00  0.00    +0.000 N 
ATOM      2  C   UNL     1       2.441   6.210  20.049  0.00  0.00    +0.000 A 
ATOM      3  C   UNL     1       1.678   6.853  20.927  0.00  0.00    +0.000 A 
ATOM      4  C   UNL     1       1.131   8.156  20.626  0.00  0.00    +0.000 A 
ATOM      5  C   UNL     1       0.254   8.789  21.672  0.00  0.00    +0.000 C 
ATOM      6  C   UNL     1       1.427   8.719  19.436  0.00  0.00    +0.000 A 
ATOM      7  C   UNL     1       2.338   8.033  18.452  0.00  0.00    +0.000 A 
ATOM      8  O   UNL     1       2.588   8.621  17.398  0.00  0.00    +0.000 OA
ENDROOT
BRANCH   6   9
ATOM      9  C   UNL     1       0.868  10.022  19.038  0.00  0.00    +0.000 A 
ATOM     10  C   UNL     1      -0.413  10.099  18.496  0.00  0.00    +0.000 A 
ATOM     11  C   UNL     1      -0.974  11.346  18.220  0.00  0.00    +0.000 A 
ATOM     12  C   UNL     1      -0.276  12.518  18.476  0.00  0.00    +0.000 A 
ATOM     13  N   UNL     1      -0.893  13.702  18.417  0.00  0.00    +0.000 NA
ATOM     14  C   UNL     1      -0.164  14.784  18.702  0.00  0.00    +0.000 A 
ATOM     15  N   UNL     1      -0.833  15.913  19.143  0.00  0.00    +0.000 N 
ATOM     16  N   UNL     1       1.153  14.804  18.908  0.00  0.00    +0.000 NA
ATOM     17  C   UNL     1       1.747  13.607  18.987  0.00  0.00    +0.000 A 
ATOM     18  C   UNL     1       1.060  12.413  18.868  0.00  0.00    +0.000 A 
ATOM     19  C   UNL     1       1.635  11.175  19.175  0.00  0.00    +0.000 A 
ATOM     20  H   UNL     1      -1.496  15.570  19.830  0.00  0.00    +0.000 HD
ATOM     21  H   UNL     1      -0.116  16.498  19.557  0.00  0.00    +0.000 HD
ENDBRANCH   6   9
BRANCH   1  25
ATOM     22  C   UNL     1       5.161   4.481  16.069  0.00  0.00    +0.000 A 
ATOM     23  C   UNL     1       4.075   3.892  16.707  0.00  0.00    +0.000 A 
ATOM     24  C   UNL     1       3.274   4.634  17.577  0.00  0.00    +0.000 A 
ATOM     25  C   UNL     1       3.557   5.979  17.855  0.00  0.00    +0.000 A 
ATOM     26  C   UNL     1       4.654   6.559  17.199  0.00  0.00    +0.000 A 
ATOM     27  C   UNL     1       5.452   5.819  16.319  0.00  0.00    +0.000 A 
BRANCH  22  29
ATOM     28  C   UNL     1       6.230   4.174  13.989  0.00  0.00    +0.000 C 
ATOM     29  O   UNL     1       5.888   3.649  15.266  0.00  0.00    +0.000 OA
ENDBRANCH  22  29
ENDBRANCH   1  25
TORSDOF 3
ENDMDL
MODEL 3
REMARK VINA RESULT:      -7.6      2.884      8.286
REMARK  Name = 
REMARK  5 active torsions:
REMARK  status: ('A' for Active; 'I' for Inactive)
REMARK    1  A    between atoms: C_1  and  O_2
REMARK    2  A    between atoms: O_2  and  C_3
REMARK    3  A    between atoms: C_6  and  N_7
REMARK    4  A    between atoms: C_10  and  C_11
REMARK    5  A    between atoms: C_12  and  C_13
REMARK                            x       y       z     vdW  Elec       q    Type
REMARK                         _______ _______ _______ _____ _____    ______ ____
ROOT
ATOM      1  N   UNL     1       4.214   5.012  17.722  0.00  0.00    +0.000 N 
ATOM      2  C   UNL     1       3.693   3.819  18.226  0.00  0.00    +0.000 A 
ATOM      3  C   UNL     1       2.720   3.780  19.130  0.00  0.00    +0.000 A 
ATOM      4  C   UNL     1       2.116   4.994  19.627  0.00  0.00    +0.000 A 
ATOM      5  C   UNL     1       1.000   4.844  20.626  0.00  0.00    +0.000 C 
ATOM      6  C   UNL     1       2.575   6.177  19.169  0.00  0.00    +0.000 A 
ATOM      7  C   UNL     1       3.718   6.245  18.189  0.00  0.00    +0.000 A 
ATOM      8  O   UNL     1       4.104   7.361  17.838  0.00  0.00    +0.000 OA
ENDROOT
BRANCH   6   9
ATOM      9  C   UNL     1       1.978   7.454  19.593  0.00  0.00    +0.000 A 
ATOM     10  C   UNL     1       1.624   8.412  18.645  0.00  0.00    +0.000 A 
ATOM     11  C   UNL     1       0.963   9.573  19.046  0.00  0.00    +0.000 A 
ATOM     12  C   UNL     1       0.651   9.794  20.381  0.00  0.00    +0.000 A 
ATOM     13  N   UNL     1      -0.167  10.792  20.730  0.00  0.00    +0.000 NA
ATOM     14  C   UNL     1      -0.444  10.926  22.030  0.00  0.00    +0.000 A 
ATOM     15  N   UNL     1      -1.621  11.569  22.374  0.00  0.00    +0.000 N 
ATOM     16  N   UNL     1       0.126  10.243  23.023  0.00  0.00    +0.000 NA
ATOM     17  C   UNL     1       0.923   9.234  22.650  0.00  0.00    +0.000 A 
ATOM     18  C   UNL     1       1.153   8.900  21.330  0.00  0.00    +0.000 A 
ATOM     19  C   UNL     1       1.796   7.718  20.947  0.00  0.00    +0.000 A 
ATOM     20  H   UNL     1      -2.323  11.170  21.758  0.00  0.00    +0.000 HD
ATOM     21  H   UNL     1      -1.777  11.326  23.346  0.00  0.00    +0.000 HD
ENDBRANCH   6   9
BRANCH   1  25
ATOM     22  C   UNL     1       7.127   5.079  14.595  0.00  0.00    +0.000 A 
ATOM     23  C   UNL     1       7.465   5.500  15.876  0.00  0.00    +0.000 A 
ATOM     24  C   UNL     1       6.530   5.450  16.911  0.00  0.00    +0.000 A 
ATOM     25  C   UNL     1       5.220   5.004  16.685  0.00  0.00    +0.000 A 
ATOM     26  C   UNL     1       4.897   4.577  15.387  0.00  0.00    +0.000 A 
ATOM     27  C   UNL     1       5.837   4.618  14.350  0.00  0.00    +0.000 A 
BRANCH  22  29
ATOM     28  C   UNL     1       7.697   5.067  12.306  0.00  0.00    +0.000 C 
ATOM     29  O   UNL     1       8.114   5.203  13.659  0.00  0.00    +0.000 OA
ENDBRANCH  22  29
ENDBRANCH   1  25
TORSDOF 3
ENDMDL
MODEL 4
REMARK VINA RESULT:      -7.4      1.032      1.251
REMARK  Name = 
REMARK  5 active torsions:
REMARK  status: ('A' for Active; 'I' for Inactive)
REMARK    1  A    between atoms: C_1  and  O_2
REMARK    2  A    between atoms: O_2  and  C_3
REMARK    3  A    between atoms: C_6  and  N_7
REMARK    4  A    between atoms: C_10  and  C_11
REMARK    5  A    between atoms: C_12  and  C_13
REMARK                            x       y       z     vdW  Elec       q    Type
REMARK                         _______ _______ _______ _____ _____    ______ ____
ROOT
ATOM      1  N   UNL     1       1.380   8.100  19.948  0.00  0.00    +0.000 N 
ATOM      2  C   UNL     1       1.040   7.320  21.055  0.00  0.00    +0.000 A 
ATOM      3  C   UNL     1       1.441   6.061  21.203  0.00  0.00    +0.000 A 
ATOM      4  C   UNL     1       2.294   5.430  20.223  0.00  0.00    +0.000 A 
ATOM      5  C   UNL     1       2.719   4.013  20.496  0.00  0.00    +0.000 C 
ATOM      6  C   UNL     1       2.661   6.140  19.136  0.00  0.00    +0.000 A 
ATOM      7  C   UNL     1       2.168   7.548  18.919  0.00  0.00    +0.000 A 
ATOM      8  O   UNL     1       2.521   8.124  17.889  0.00  0.00    +0.000 OA
ENDROOT
BRANCH   6   9
ATOM      9  C   UNL     1       3.567   5.582  18.119  0.00  0.00    +0.000 A 
ATOM     10  C   UNL     1       3.176   4.480  17.361  0.00  0.00    +0.000 A 
ATOM     11  C   UNL     1       3.996   4.024  16.329  0.00  0.00    +0.000 A 
ATOM     12  C   UNL     1       5.203   4.649  16.042  0.00  0.00    +0.000 A 
ATOM     13  N   UNL     1       5.873   4.350  14.925  0.00  0.00    +0.000 NA
ATOM     14  C   UNL     1       7.011   5.013  14.703  0.00  0.00    +0.000 A 
ATOM     15  N   UNL     1       7.449   5.118  13.393  0.00  0.00    +0.000 N 
ATOM     16  N   UNL     1       7.608   5.846  15.555  0.00  0.00    +0.000 NA
ATOM     17  C   UNL     1       6.908   6.150  16.655  0.00  0.00    +0.000 A 
ATOM     18  C   UNL     1       5.646   5.648  16.912  0.00  0.00    +0.000 A 
ATOM     19  C   UNL     1       4.830   6.138  17.936  0.00  0.00    +0.000 A 
ATOM     20  H   UNL     1       6.620   5.368  12.862  0.00  0.00    +0.000 HD
ATOM     21  H   UNL     1       8.137   5.862  13.406  0.00  0.00    +0.000 HD
ENDBRANCH   6   9
BRANCH   1  25
ATOM     22  C   UNL     1       0.085  12.165  19.704  0.00  0.00    +0.000 A 
ATOM     23  C   UNL     1       0.711  11.698  20.854  0.00  0.00    +0.000 A 
ATOM     24  C   UNL     1       1.168  10.380  20.930  0.00  0.00    +0.000 A 
ATOM     25  C   UNL     1       0.983   9.486  19.866  0.00  0.00    +0.000 A 
ATOM     26  C   UNL     1       0.353   9.976  18.710  0.00  0.00    +0.000 A 
ATOM     27  C   UNL     1      -0.096  11.299  18.630  0.00  0.00    +0.000 A 
BRANCH  22  29
ATOM     28  C   UNL     1       0.011  14.272  18.647  0.00  0.00    +0.000 C 
ATOM     29  O   UNL     1      -0.346  13.461  19.759  0.00  0.00    +0.000 OA
ENDBRANCH  22  29
ENDBRANCH   1  25
TORSDOF 3
ENDMDL
MODEL 5
REMARK VINA RESULT:      -7.3      3.965      9.824
REMARK  Name = 
REMARK  5 active torsions:
REMARK  status: ('A' for Active; 'I' for Inactive)
REMARK    1  A    between atoms: C_1  and  O_2
REMARK    2  A    between atoms: O_2  and  C_3
REMARK    3  A    between atoms: C_6  and  N_7
REMARK    4  A    between atoms: C_10  and  C_11
REMARK    5  A    between atoms: C_12  and  C_13
REMARK                            x       y       z     vdW  Elec       q    Type
REMARK                         _______ _______ _______ _____ _____    ______ ____
ROOT
ATOM      1  N   UNL     1       1.222  10.317  18.947  0.00  0.00    +0.000 N 
ATOM      2  C   UNL     1       1.960  11.361  18.388  0.00  0.00    +0.000 A 
ATOM      3  C   UNL     1       1.559  12.628  18.418  0.00  0.00    +0.000 A 
ATOM      4  C   UNL     1       0.327  13.004  19.073  0.00  0.00    +0.000 A 
ATOM      5  C   UNL     1      -0.026  14.467  19.080  0.00  0.00    +0.000 C 
ATOM      6  C   UNL     1      -0.423  12.036  19.638  0.00  0.00    +0.000 A 
ATOM      7  C   UNL     1      -0.016  10.587  19.563  0.00  0.00    +0.000 A 
ATOM      8  O   UNL     1      -0.766   9.755  20.076  0.00  0.00    +0.000 OA
ENDROOT
BRANCH   6   9
ATOM      9  C   UNL     1      -1.666  12.347  20.364  0.00  0.00    +0.000 A 
ATOM     10  C   UNL     1      -2.881  12.397  19.685  0.00  0.00    +0.000 A 
ATOM     11  C   UNL     1      -4.065  12.587  20.398  0.00  0.00    +0.000 A 
ATOM     12  C   UNL     1      -4.055  12.732  21.779  0.00  0.00    +0.000 A 
ATOM     13  N   UNL     1      -5.197  12.695  22.473  0.00  0.00    +0.000 NA
ATOM     14  C   UNL     1      -5.106  12.812  23.800  0.00  0.00    +0.000 A 
ATOM     15  N   UNL     1      -6.135  12.288  24.565  0.00  0.00    +0.000 N 
ATOM     16  N   UNL     1      -3.997  13.098  24.484  0.00  0.00    +0.000 NA
ATOM     17  C   UNL     1      -2.863  13.106  23.772  0.00  0.00    +0.000 A 
ATOM     18  C   UNL     1      -2.818  12.837  22.418  0.00  0.00    +0.000 A 
ATOM     19  C   UNL     1      -1.620  12.623  21.728  0.00  0.00    +0.000 A 
ATOM     20  H   UNL     1      -6.317  11.374  24.161  0.00  0.00    +0.000 HD
ATOM     21  H   UNL     1      -5.758  12.227  25.504  0.00  0.00    +0.000 HD
ENDBRANCH   6   9
BRANCH   1  25
ATOM     22  C   UNL     1       2.854   6.367  18.960  0.00  0.00    +0.000 A 
ATOM     23  C   UNL     1       2.259   6.882  20.106  0.00  0.00    +0.000 A 
ATOM     24  C   UNL     1       1.694   8.159  20.101  0.00  0.00    +0.000 A 
ATOM     25  C   UNL     1       1.735   8.966  18.956  0.00  0.00    +0.000 A 
ATOM     26  C   UNL     1       2.334   8.428  17.805  0.00  0.00    +0.000 A 
ATOM     27  C   UNL     1       2.893   7.145  17.807  0.00  0.00    +0.000 A 
BRANCH  22  29
ATOM     28  C   UNL     1       4.812   5.086  19.256  0.00  0.00    +0.000 C 
ATOM     29  O   UNL     1       3.400   5.122  19.095  0.00  0.00    +0.000 OA
ENDBRANCH  22  29
ENDBRANCH   1  25
TORSDOF 3
ENDMDL
MODEL 6
REMARK VINA RESULT:      -7.3      4.075      9.965
REMARK  Name = 
REMARK  5 active torsions:
REMARK  status: ('A' for Active; 'I' for Inactive)
REMARK    1  A    between atoms: C_1  and  O_2
REMARK    2  A    between atoms: O_2  and  C_3
REMARK    3  A    between atoms: C_6  and  N_7
REMARK    4  A    between atoms: C_10  and  C_11
REMARK    5  A    between atoms: C_12  and  C_13
REMARK                            x       y       z     vdW  Elec       q    Type
REMARK                         _______ _______ _______ _____ _____    ______ ____
ROOT
ATOM      1  N   UNL     1       0.984  10.633  19.079  0.00  0.00    +0.000 N 
ATOM      2  C   UNL     1       1.740  11.746  18.707  0.00  0.00    +0.000 A 
ATOM      3  C   UNL     1       1.285  12.992  18.796  0.00  0.00    +0.000 A 
ATOM      4  C   UNL     1      -0.033  13.267  19.322  0.00  0.00    +0.000 A 
ATOM      5  C   UNL     1      -0.445  14.712  19.411  0.00  0.00    +0.000 C 
ATOM      6  C   UNL     1      -0.804  12.229  19.704  0.00  0.00    +0.000 A 
ATOM      7  C   UNL     1      -0.330  10.807  19.556  0.00  0.00    +0.000 A 
ATOM      8  O   UNL     1      -1.101   9.909  19.898  0.00  0.00    +0.000 OA
ENDROOT
BRANCH   6   9
ATOM      9  C   UNL     1      -2.138  12.434  20.294  0.00  0.00    +0.000 A 
ATOM     10  C   UNL     1      -3.258  12.543  19.473  0.00  0.00    +0.000 A 
ATOM     11  C   UNL     1      -4.528  12.631  20.043  0.00  0.00    +0.000 A 
ATOM     12  C   UNL     1      -4.698  12.615  21.421  0.00  0.00    +0.000 A 
ATOM     13  N   UNL     1      -5.916  12.479  21.953  0.00  0.00    +0.000 NA
ATOM     14  C   UNL     1      -5.998  12.443  23.286  0.00  0.00    +0.000 A 
ATOM     15  N   UNL     1      -7.099  11.817  23.846  0.00  0.00    +0.000 N 
ATOM     16  N   UNL     1      -4.995  12.665  24.135  0.00  0.00    +0.000 NA
ATOM     17  C   UNL     1      -3.780  12.774  23.582  0.00  0.00    +0.000 A 
ATOM     18  C   UNL     1      -3.555  12.665  22.223  0.00  0.00    +0.000 A 
ATOM     19  C   UNL     1      -2.274  12.551  21.674  0.00  0.00    +0.000 A 
ATOM     20  H   UNL     1      -7.201  10.954  23.321  0.00  0.00    +0.000 HD
ATOM     21  H   UNL     1      -6.843  11.654  24.813  0.00  0.00    +0.000 HD
ENDBRANCH   6   9
BRANCH   1  25
ATOM     22  C   UNL     1       2.539   6.653  18.970  0.00  0.00    +0.000 A 
ATOM     23  C   UNL     1       2.529   7.432  17.819  0.00  0.00    +0.000 A 
ATOM     24  C   UNL     1       2.054   8.745  17.853  0.00  0.00    +0.000 A 
ATOM     25  C   UNL     1       1.549   9.303  19.035  0.00  0.00    +0.000 A 
ATOM     26  C   UNL     1       1.572   8.504  20.190  0.00  0.00    +0.000 A 
ATOM     27  C   UNL     1       2.057   7.192  20.159  0.00  0.00    +0.000 A 
BRANCH  22  29
ATOM     28  C   UNL     1       2.023   4.422  18.406  0.00  0.00    +0.000 C 
ATOM     29  O   UNL     1       2.998   5.377  18.807  0.00  0.00    +0.000 OA
ENDBRANCH  22  29
ENDBRANCH   1  25
TORSDOF 3
ENDMDL
MODEL 7
REMARK VINA RESULT:      -7.2      2.629      8.024
REMARK  Name = 
REMARK  5 active torsions:
REMARK  status: ('A' for Active; 'I' for Inactive)
REMARK    1  A    between atoms: C_1  and  O_2
REMARK    2  A    between atoms: O_2  and  C_3
REMARK    3  A    between atoms: C_6  and  N_7
REMARK    4  A    between atoms: C_10  and  C_11
REMARK    5  A    between atoms: C_12  and  C_13
REMARK                            x       y       z     vdW  Elec       q    Type
REMARK                         _______ _______ _______ _____ _____    ______ ____
ROOT
ATOM      1  N   UNL     1       4.157   4.775  17.623  0.00  0.00    +0.000 N 
ATOM      2  C   UNL     1       3.581   3.561  17.999  0.00  0.00    +0.000 A 
ATOM      3  C   UNL     1       2.582   3.474  18.872  0.00  0.00    +0.000 A 
ATOM      4  C   UNL     1       2.007   4.658  19.467  0.00  0.00    +0.000 A 
ATOM      5  C   UNL     1       0.860   4.458  20.420  0.00  0.00    +0.000 C 
ATOM      6  C   UNL     1       2.520   5.860  19.133  0.00  0.00    +0.000 A 
ATOM      7  C   UNL     1       3.691   5.977  18.192  0.00  0.00    +0.000 A 
ATOM      8  O   UNL     1       4.125   7.105  17.957  0.00  0.00    +0.000 OA
ENDROOT
BRANCH   6   9
ATOM      9  C   UNL     1       1.957   7.114  19.661  0.00  0.00    +0.000 A 
ATOM     10  C   UNL     1       1.652   7.231  21.016  0.00  0.00    +0.000 A 
ATOM     11  C   UNL     1       1.218   8.455  21.525  0.00  0.00    +0.000 A 
ATOM     12  C   UNL     1       1.080   9.565  20.702  0.00  0.00    +0.000 A 
ATOM     13  N   UNL     1       0.878  10.777  21.227  0.00  0.00    +0.000 NA
ATOM     14  C   UNL     1       0.783  11.801  20.375  0.00  0.00    +0.000 A 
ATOM     15  N   UNL     1       1.081  13.066  20.854  0.00  0.00    +0.000 N 
ATOM     16  N   UNL     1       0.738  11.708  19.046  0.00  0.00    +0.000 NA
ATOM     17  C   UNL     1       0.966  10.489  18.541  0.00  0.00    +0.000 A 
ATOM     18  C   UNL     1       1.237   9.385  19.326  0.00  0.00    +0.000 A 
ATOM     19  C   UNL     1       1.697   8.174  18.797  0.00  0.00    +0.000 A 
ATOM     20  H   UNL     1       1.936  12.946  21.388  0.00  0.00    +0.000 HD
ATOM     21  H   UNL     1       1.221  13.633  20.025  0.00  0.00    +0.000 HD
ENDBRANCH   6   9
BRANCH   1  25
ATOM     22  C   UNL     1       7.153   5.023  14.585  0.00  0.00    +0.000 A 
ATOM     23  C   UNL     1       7.467   5.330  15.905  0.00  0.00    +0.000 A 
ATOM     24  C   UNL     1       6.503   5.219  16.909  0.00  0.00    +0.000 A 
ATOM     25  C   UNL     1       5.190   4.826  16.614  0.00  0.00    +0.000 A 
ATOM     26  C   UNL     1       4.892   4.514  15.278  0.00  0.00    +0.000 A 
ATOM     27  C   UNL     1       5.860   4.616  14.272  0.00  0.00    +0.000 A 
BRANCH  22  29
ATOM     28  C   UNL     1       7.774   5.274  12.324  0.00  0.00    +0.000 C 
ATOM     29  O   UNL     1       8.168   5.198  13.688  0.00  0.00    +0.000 OA
ENDBRANCH  22  29
ENDBRANCH   1  25
TORSDOF 3
ENDMDL
MODEL 8
REMARK VINA RESULT:      -7.2      2.690      8.245
REMARK  Name = 
REMARK  5 active torsions:
REMARK  status: ('A' for Active; 'I' for Inactive)
REMARK    1  A    between atoms: C_1  and  O_2
REMARK    2  A    between atoms: O_2  and  C_3
REMARK    3  A    between atoms: C_6  and  N_7
REMARK    4  A    between atoms: C_10  and  C_11
REMARK    5  A    between atoms: C_12  and  C_13
REMARK                            x       y       z     vdW  Elec       q    Type
REMARK                         _______ _______ _______ _____ _____    ______ ____
ROOT
ATOM      1  N   UNL     1       2.144   7.477  19.397  0.00  0.00    +0.000 N 
ATOM      2  C   UNL     1       1.639   7.053  20.627  0.00  0.00    +0.000 A 
ATOM      3  C   UNL     1       0.912   7.835  21.419  0.00  0.00    +0.000 A 
ATOM      4  C   UNL     1       0.572   9.183  21.026  0.00  0.00    +0.000 A 
ATOM      5  C   UNL     1      -0.281   9.979  21.978  0.00  0.00    +0.000 C 
ATOM      6  C   UNL     1       1.028   9.644  19.843  0.00  0.00    +0.000 A 
ATOM      7  C   UNL     1       1.903   8.794  18.959  0.00  0.00    +0.000 A 
ATOM      8  O   UNL     1       2.307   9.292  17.906  0.00  0.00    +0.000 OA
ENDROOT
BRANCH   6   9
ATOM      9  C   UNL     1       0.684  10.989  19.354  0.00  0.00    +0.000 A 
ATOM     10  C   UNL     1      -0.515  11.204  18.678  0.00  0.00    +0.000 A 
ATOM     11  C   UNL     1      -0.881  12.499  18.312  0.00  0.00    +0.000 A 
ATOM     12  C   UNL     1      -0.067  13.585  18.608  0.00  0.00    +0.000 A 
ATOM     13  N   UNL     1      -0.518  14.833  18.453  0.00  0.00    +0.000 NA
ATOM     14  C   UNL     1       0.312  15.826  18.784  0.00  0.00    +0.000 A 
ATOM     15  N   UNL     1      -0.248  17.047  19.122  0.00  0.00    +0.000 N 
ATOM     16  N   UNL     1       1.593  15.689  19.127  0.00  0.00    +0.000 NA
ATOM     17  C   UNL     1       2.017  14.431  19.300  0.00  0.00    +0.000 A 
ATOM     18  C   UNL     1       1.198  13.329  19.142  0.00  0.00    +0.000 A 
ATOM     19  C   UNL     1       1.575  12.042  19.540  0.00  0.00    +0.000 A 
ATOM     20  H   UNL     1      -1.016  16.816  19.744  0.00  0.00    +0.000 HD
ATOM     21  H   UNL     1       0.494  17.553  19.593  0.00  0.00    +0.000 HD
ENDBRANCH   6   9
BRANCH   1  25
ATOM     22  C   UNL     1       4.185   4.793  16.770  0.00  0.00    +0.000 A 
ATOM     23  C   UNL     1       4.690   6.068  17.000  0.00  0.00    +0.000 A 
ATOM     24  C   UNL     1       4.049   6.940  17.882  0.00  0.00    +0.000 A 
ATOM     25  C   UNL     1       2.866   6.568  18.537  0.00  0.00    +0.000 A 
ATOM     26  C   UNL     1       2.372   5.275  18.298  0.00  0.00    +0.000 A 
ATOM     27  C   UNL     1       3.020   4.398  17.421  0.00  0.00    +0.000 A 
BRANCH  22  29
ATOM     28  C   UNL     1       5.616   4.781  14.896  0.00  0.00    +0.000 C 
ATOM     29  O   UNL     1       4.880   4.044  15.865  0.00  0.00    +0.000 OA
ENDBRANCH  22  29
ENDBRANCH   1  25
TORSDOF 3
ENDMDL
MODEL 9
REMARK VINA RESULT:      -7.1      1.862      2.515
REMARK  Name = 
REMARK  5 active torsions:
REMARK  status: ('A' for Active; 'I' for Inactive)
REMARK    1  A    between atoms: C_1  and  O_2
REMARK    2  A    between atoms: O_2  and  C_3
REMARK    3  A    between atoms: C_6  and  N_7
REMARK    4  A    between atoms: C_10  and  C_11
REMARK    5  A    between atoms: C_12  and  C_13
REMARK                            x       y       z     vdW  Elec       q    Type
REMARK                         _______ _______ _______ _____ _____    ______ ____
ROOT
ATOM      1  N   UNL     1       1.838   6.917  20.192  0.00  0.00    +0.000 N 
ATOM      2  C   UNL     1       1.579   5.957  21.170  0.00  0.00    +0.000 A 
ATOM      3  C   UNL     1       2.019   4.705  21.090  0.00  0.00    +0.000 A 
ATOM      4  C   UNL     1       2.832   4.271  19.977  0.00  0.00    +0.000 A 
ATOM      5  C   UNL     1       3.307   2.843  19.992  0.00  0.00    +0.000 C 
ATOM      6  C   UNL     1       3.120   5.161  19.005  0.00  0.00    +0.000 A 
ATOM      7  C   UNL     1       2.582   6.567  19.047  0.00  0.00    +0.000 A 
ATOM      8  O   UNL     1       2.862   7.315  18.109  0.00  0.00    +0.000 OA
ENDROOT
BRANCH   6   9
ATOM      9  C   UNL     1       3.983   4.806  17.865  0.00  0.00    +0.000 A 
ATOM     10  C   UNL     1       3.595   3.804  16.978  0.00  0.00    +0.000 A 
ATOM     11  C   UNL     1       4.366   3.548  15.844  0.00  0.00    +0.000 A 
ATOM     12  C   UNL     1       5.520   4.275  15.582  0.00  0.00    +0.000 A 
ATOM     13  N   UNL     1       6.128   4.178  14.396  0.00  0.00    +0.000 NA
ATOM     14  C   UNL     1       7.217   4.929  14.207  0.00  0.00    +0.000 A 
ATOM     15  N   UNL     1       7.561   5.245  12.904  0.00  0.00    +0.000 N 
ATOM     16  N   UNL     1       7.828   5.663  15.136  0.00  0.00    +0.000 NA
ATOM     17  C   UNL     1       7.189   5.765  16.309  0.00  0.00    +0.000 A 
ATOM     18  C   UNL     1       5.973   5.162  16.562  0.00  0.00    +0.000 A 
ATOM     19  C   UNL     1       5.203   5.453  17.693  0.00  0.00    +0.000 A 
ATOM     20  H   UNL     1       6.689   5.522  12.465  0.00  0.00    +0.000 HD
ATOM     21  H   UNL     1       8.214   6.017  12.986  0.00  0.00    +0.000 HD
ENDBRANCH   6   9
BRANCH   1  25
ATOM     22  C   UNL     1       0.443  10.934  20.625  0.00  0.00    +0.000 A 
ATOM     23  C   UNL     1       0.591  10.120  21.743  0.00  0.00    +0.000 A 
ATOM     24  C   UNL     1       1.078   8.817  21.614  0.00  0.00    +0.000 A 
ATOM     25  C   UNL     1       1.402   8.285  20.359  0.00  0.00    +0.000 A 
ATOM     26  C   UNL     1       1.252   9.123  19.241  0.00  0.00    +0.000 A 
ATOM     27  C   UNL     1       0.773  10.431  19.371  0.00  0.00    +0.000 A 
BRANCH  22  29
ATOM     28  C   UNL     1      -0.610  12.368  22.174  0.00  0.00    +0.000 C 
ATOM     29  O   UNL     1      -0.071  12.175  20.872  0.00  0.00    +0.000 OA
ENDBRANCH  22  29
ENDBRANCH   1  25
TORSDOF 3
ENDMDL
