MODEL 1
REMARK VINA RESULT:      -7.3      0.000      0.000
REMARK  Name = 
REMARK  4 active torsions:
REMARK  status: ('A' for Active; 'I' for Inactive)
REMARK    1  A    between atoms: C_4  and  S_5
REMARK    2  A    between atoms: S_5  and  C_6
REMARK    3  A    between atoms: C_6  and  C_7
REMARK    4  A    between atoms: C_13  and  C_14
REMARK                            x       y       z     vdW  Elec       q    Type
REMARK                         _______ _______ _______ _____ _____    ______ ____
ROOT
ATOM      1  N   UNL     1       3.833   2.649  19.856  0.00  0.00    +0.000 N 
ATOM      2  C   UNL     1       3.825   3.713  18.979  0.00  0.00    +0.000 A 
ATOM      3  N   UNL     1       4.470   3.568  17.838  0.00  0.00    +0.000 NA
ATOM      4  C   UNL     1       4.418   4.613  17.019  0.00  0.00    +0.000 A 
ATOM      5  N   UNL     1       3.780   5.755  17.269  0.00  0.00    +0.000 NA
ATOM      6  C   UNL     1       3.174   5.798  18.458  0.00  0.00    +0.000 A 
ATOM      7  N   UNL     1       3.186   4.808  19.351  0.00  0.00    +0.000 NA
ATOM      8  H   UNL     1       4.613   2.032  19.678  0.00  0.00    +0.000 HD
ATOM      9  H   UNL     1       3.672   2.944  20.808  0.00  0.00    +0.000 HD
ENDROOT
BRANCH   6  10
ATOM     10  C   UNL     1       2.498   7.056  18.845  0.00  0.00    +0.000 A 
ATOM     11  C   UNL     1       2.027   7.276  20.156  0.00  0.00    +0.000 A 
ATOM     12  C   UNL     1       1.343   8.447  20.503  0.00  0.00    +0.000 A 
ATOM     13  C   UNL     1       1.129   9.437  19.550  0.00  0.00    +0.000 A 
ATOM     14  C   UNL     1       1.603   9.263  18.255  0.00  0.00    +0.000 A 
ATOM     15  C   UNL     1       2.278   8.088  17.909  0.00  0.00    +0.000 A 
ENDBRANCH   6  10
BRANCH   4  16
ATOM     16  S   UNL     1       5.252   4.403  15.464  0.00  0.00    +0.000 S 
BRANCH  16  17
ATOM     17  C   UNL     1       6.986   4.278  15.987  0.00  0.00    +0.000 C 
BRANCH  17  18
ATOM     18  C   UNL     1       7.347   5.230  17.076  0.00  0.00    +0.000 A 
ATOM     19  N   UNL     1       7.520   6.533  16.982  0.00  0.00    +0.000 NA
ATOM     20  C   UNL     1       7.846   6.960  18.244  0.00  0.00    +0.000 A 
ATOM     21  C   UNL     1       7.860   5.908  19.126  0.00  0.00    +0.000 A 
ATOM     22  N   UNL     1       7.519   4.819  18.377  0.00  0.00    +0.000 N 
ATOM     23  H   UNL     1       7.468   3.861  18.695  0.00  0.00    +0.000 HD
ENDBRANCH  17  18
ENDBRANCH  16  17
ENDBRANCH   4  16
TORSDOF 4
ENDMDL
MODEL 2
REMARK VINA RESULT:      -7.3      2.678      6.455
REMARK  Name = 
REMARK  4 active torsions:
REMARK  status: ('A' for Active; 'I' for Inactive)
REMARK    1  A    between atoms: C_4  and  S_5
REMARK    2  A    between atoms: S_5  and  C_6
REMARK    3  A    between atoms: C_6  and  C_7
REMARK    4  A    between atoms: C_13  and  C_14
REMARK                            x       y       z     vdW  Elec       q    Type
REMARK                         _______ _______ _______ _____ _____    ______ ____
ROOT
ATOM      1  N   UNL     1       8.017   5.057  19.018  0.00  0.00    +0.000 N 
ATOM      2  C   UNL     1       6.988   5.175  18.109  0.00  0.00    +0.000 A 
ATOM      3  N   UNL     1       5.808   5.542  18.568  0.00  0.00    +0.000 NA
ATOM      4  C   UNL     1       4.853   5.659  17.652  0.00  0.00    +0.000 A 
ATOM      5  N   UNL     1       5.007   5.437  16.347  0.00  0.00    +0.000 NA
ATOM      6  C   UNL     1       6.237   5.057  15.996  0.00  0.00    +0.000 A 
ATOM      7  N   UNL     1       7.252   4.895  16.845  0.00  0.00    +0.000 NA
ATOM      8  H   UNL     1       7.666   4.922  19.956  0.00  0.00    +0.000 HD
ATOM      9  H   UNL     1       8.740   4.433  18.690  0.00  0.00    +0.000 HD
ENDROOT
BRANCH   6  10
ATOM     10  C   UNL     1       6.479   4.723  14.574  0.00  0.00    +0.000 A 
ATOM     11  C   UNL     1       5.697   3.770  13.890  0.00  0.00    +0.000 A 
ATOM     12  C   UNL     1       5.963   3.422  12.560  0.00  0.00    +0.000 A 
ATOM     13  C   UNL     1       7.010   4.032  11.876  0.00  0.00    +0.000 A 
ATOM     14  C   UNL     1       7.784   4.995  12.515  0.00  0.00    +0.000 A 
ATOM     15  C   UNL     1       7.520   5.334  13.846  0.00  0.00    +0.000 A 
ENDBRANCH   6  10
BRANCH   4  16
ATOM     16  S   UNL     1       3.272   6.194  18.264  0.00  0.00    +0.000 S 
BRANCH  16  17
ATOM     17  C   UNL     1       2.270   4.693  18.064  0.00  0.00    +0.000 C 
BRANCH  17  18
ATOM     18  C   UNL     1       2.069   3.942  19.336  0.00  0.00    +0.000 A 
ATOM     19  N   UNL     1       0.931   3.524  19.854  0.00  0.00    +0.000 NA
ATOM     20  C   UNL     1       1.262   2.896  21.027  0.00  0.00    +0.000 A 
ATOM     21  C   UNL     1       2.620   2.914  21.224  0.00  0.00    +0.000 A 
ATOM     22  N   UNL     1       3.123   3.562  20.133  0.00  0.00    +0.000 N 
ATOM     23  H   UNL     1       4.093   3.791  19.962  0.00  0.00    +0.000 HD
ENDBRANCH  17  18
ENDBRANCH  16  17
ENDBRANCH   4  16
TORSDOF 4
ENDMDL
MODEL 3
REMARK VINA RESULT:      -7.3      2.507      6.266
REMARK  Name = 
REMARK  4 active torsions:
REMARK  status: ('A' for Active; 'I' for Inactive)
REMARK    1  A    between atoms: C_4  and  S_5
REMARK    2  A    between atoms: S_5  and  C_6
REMARK    3  A    between atoms: C_6  and  C_7
REMARK    4  A    between atoms: C_13  and  C_14
REMARK                            x       y       z     vdW  Elec       q    Type
REMARK                         _______ _______ _______ _____ _____    ______ ____
ROOT
ATOM      1  N   UNL     1       8.086   4.998  19.025  0.00  0.00    +0.000 N 
ATOM      2  C   UNL     1       7.084   5.178  18.097  0.00  0.00    +0.000 A 
ATOM      3  N   UNL     1       5.924   5.630  18.531  0.00  0.00    +0.000 NA
ATOM      4  C   UNL     1       4.996   5.805  17.596  0.00  0.00    +0.000 A 
ATOM      5  N   UNL     1       5.157   5.559  16.297  0.00  0.00    +0.000 NA
ATOM      6  C   UNL     1       6.364   5.090  15.972  0.00  0.00    +0.000 A 
ATOM      7  N   UNL     1       7.350   4.867  16.841  0.00  0.00    +0.000 NA
ATOM      8  H   UNL     1       7.711   4.897  19.958  0.00  0.00    +0.000 HD
ATOM      9  H   UNL     1       8.769   4.321  18.716  0.00  0.00    +0.000 HD
ENDROOT
BRANCH   6  10
ATOM     10  C   UNL     1       6.606   4.726  14.558  0.00  0.00    +0.000 A 
ATOM     11  C   UNL     1       7.606   5.354  13.787  0.00  0.00    +0.000 A 
ATOM     12  C   UNL     1       7.797   5.040  12.437  0.00  0.00    +0.000 A 
ATOM     13  C   UNL     1       7.001   4.076  11.826  0.00  0.00    +0.000 A 
ATOM     14  C   UNL     1       6.023   3.419  12.565  0.00  0.00    +0.000 A 
ATOM     15  C   UNL     1       5.830   3.742  13.912  0.00  0.00    +0.000 A 
ENDBRANCH   6  10
BRANCH   4  16
ATOM     16  S   UNL     1       3.446   6.455  18.175  0.00  0.00    +0.000 S 
BRANCH  16  17
ATOM     17  C   UNL     1       2.334   5.042  17.924  0.00  0.00    +0.000 C 
BRANCH  17  18
ATOM     18  C   UNL     1       2.880   3.758  18.450  0.00  0.00    +0.000 A 
ATOM     19  N   UNL     1       3.309   3.506  19.671  0.00  0.00    +0.000 NA
ATOM     20  C   UNL     1       3.717   2.198  19.662  0.00  0.00    +0.000 A 
ATOM     21  C   UNL     1       3.522   1.635  18.425  0.00  0.00    +0.000 A 
ATOM     22  N   UNL     1       2.969   2.629  17.671  0.00  0.00    +0.000 N 
ATOM     23  H   UNL     1       2.728   2.579  16.691  0.00  0.00    +0.000 HD
ENDBRANCH  17  18
ENDBRANCH  16  17
ENDBRANCH   4  16
TORSDOF 4
ENDMDL
MODEL 4
REMARK VINA RESULT:      -7.3      3.353      6.778
REMARK  Name = 
REMARK  4 active torsions:
REMARK  status: ('A' for Active; 'I' for Inactive)
REMARK    1  A    between atoms: C_4  and  S_5
REMARK    2  A    between atoms: S_5  and  C_6
REMARK    3  A    between atoms: C_6  and  C_7
REMARK    4  A    between atoms: C_13  and  C_14
REMARK                            x       y       z     vdW  Elec       q    Type
REMARK                         _______ _______ _______ _____ _____    ______ ____
ROOT
ATOM      1  N   UNL     1       7.945   7.894  17.838  0.00  0.00    +0.000 N 
ATOM      2  C   UNL     1       7.289   6.743  17.459  0.00  0.00    +0.000 A 
ATOM      3  N   UNL     1       6.635   6.079  18.392  0.00  0.00    +0.000 NA
ATOM      4  C   UNL     1       6.003   4.987  17.975  0.00  0.00    +0.000 A 
ATOM      5  N   UNL     1       5.990   4.538  16.721  0.00  0.00    +0.000 NA
ATOM      6  C   UNL     1       6.695   5.278  15.864  0.00  0.00    +0.000 A 
ATOM      7  N   UNL     1       7.375   6.377  16.193  0.00  0.00    +0.000 NA
ATOM      8  H   UNL     1       8.140   7.898  18.829  0.00  0.00    +0.000 HD
ATOM      9  H   UNL     1       8.701   8.122  17.208  0.00  0.00    +0.000 HD
ENDROOT
BRANCH   6  10
ATOM     10  C   UNL     1       6.791   4.813  14.462  0.00  0.00    +0.000 A 
ATOM     11  C   UNL     1       7.712   5.371  13.553  0.00  0.00    +0.000 A 
ATOM     12  C   UNL     1       7.762   4.961  12.215  0.00  0.00    +0.000 A 
ATOM     13  C   UNL     1       6.901   3.969  11.757  0.00  0.00    +0.000 A 
ATOM     14  C   UNL     1       5.998   3.380  12.635  0.00  0.00    +0.000 A 
ATOM     15  C   UNL     1       5.945   3.798  13.969  0.00  0.00    +0.000 A 
ENDBRANCH   6  10
BRANCH   4  16
ATOM     16  S   UNL     1       5.086   4.114  19.223  0.00  0.00    +0.000 S 
BRANCH  16  17
ATOM     17  C   UNL     1       4.069   2.993  18.220  0.00  0.00    +0.000 C 
BRANCH  17  18
ATOM     18  C   UNL     1       2.664   2.876  18.704  0.00  0.00    +0.000 A 
ATOM     19  N   UNL     1       1.619   2.422  18.041  0.00  0.00    +0.000 NA
ATOM     20  C   UNL     1       0.557   2.521  18.902  0.00  0.00    +0.000 A 
ATOM     21  C   UNL     1       0.957   3.029  20.113  0.00  0.00    +0.000 A 
ATOM     22  N   UNL     1       2.300   3.230  19.982  0.00  0.00    +0.000 N 
ATOM     23  H   UNL     1       2.920   3.633  20.672  0.00  0.00    +0.000 HD
ENDBRANCH  17  18
ENDBRANCH  16  17
ENDBRANCH   4  16
TORSDOF 4
ENDMDL
MODEL 5
REMARK VINA RESULT:      -7.2      2.361      6.271
REMARK  Name = 
REMARK  4 active torsions:
REMARK  status: ('A' for Active; 'I' for Inactive)
REMARK    1  A    between atoms: C_4  and  S_5
REMARK    2  A    between atoms: S_5  and  C_6
REMARK    3  A    between atoms: C_6  and  C_7
REMARK    4  A    between atoms: C_13  and  C_14
REMARK                            x       y       z     vdW  Elec       q    Type
REMARK                         _______ _______ _______ _____ _____    ______ ____
ROOT
ATOM      1  N   UNL     1       8.022   5.003  18.966  0.00  0.00    +0.000 N 
ATOM      2  C   UNL     1       7.017   5.201  18.045  0.00  0.00    +0.000 A 
ATOM      3  N   UNL     1       5.872   5.685  18.485  0.00  0.00    +0.000 NA
ATOM      4  C   UNL     1       4.941   5.876  17.557  0.00  0.00    +0.000 A 
ATOM      5  N   UNL     1       5.084   5.616  16.258  0.00  0.00    +0.000 NA
ATOM      6  C   UNL     1       6.276   5.115  15.926  0.00  0.00    +0.000 A 
ATOM      7  N   UNL     1       7.264   4.874  16.789  0.00  0.00    +0.000 NA
ATOM      8  H   UNL     1       7.652   4.919  19.902  0.00  0.00    +0.000 HD
ATOM      9  H   UNL     1       8.686   4.308  18.657  0.00  0.00    +0.000 HD
ENDROOT
BRANCH   6  10
ATOM     10  C   UNL     1       6.498   4.734  14.513  0.00  0.00    +0.000 A 
ATOM     11  C   UNL     1       5.696   3.773  13.866  0.00  0.00    +0.000 A 
ATOM     12  C   UNL     1       5.942   3.380  12.545  0.00  0.00    +0.000 A 
ATOM     13  C   UNL     1       6.990   3.954  11.832  0.00  0.00    +0.000 A 
ATOM     14  C   UNL     1       7.784   4.924  12.433  0.00  0.00    +0.000 A 
ATOM     15  C   UNL     1       7.540   5.308  13.755  0.00  0.00    +0.000 A 
ENDBRANCH   6  10
BRANCH   4  16
ATOM     16  S   UNL     1       3.412   6.569  18.143  0.00  0.00    +0.000 S 
BRANCH  16  17
ATOM     17  C   UNL     1       2.880   5.322  19.352  0.00  0.00    +0.000 C 
BRANCH  17  18
ATOM     18  C   UNL     1       2.894   3.932  18.814  0.00  0.00    +0.000 A 
ATOM     19  N   UNL     1       2.073   3.402  17.929  0.00  0.00    +0.000 NA
ATOM     20  C   UNL     1       2.485   2.105  17.766  0.00  0.00    +0.000 A 
ATOM     21  C   UNL     1       3.580   1.838  18.549  0.00  0.00    +0.000 A 
ATOM     22  N   UNL     1       3.844   3.012  19.193  0.00  0.00    +0.000 N 
ATOM     23  H   UNL     1       4.564   3.173  19.883  0.00  0.00    +0.000 HD
ENDBRANCH  17  18
ENDBRANCH  16  17
ENDBRANCH   4  16
TORSDOF 4
ENDMDL
MODEL 6
REMARK VINA RESULT:      -7.2      2.254      6.281
REMARK  Name = 
REMARK  4 active torsions:
REMARK  status: ('A' for Active; 'I' for Inactive)
REMARK    1  A    between atoms: C_4  and  S_5
REMARK    2  A    between atoms: S_5  and  C_6
REMARK    3  A    between atoms: C_6  and  C_7
REMARK    4  A    between atoms: C_13  and  C_14
REMARK                            x       y       z     vdW  Elec       q    Type
REMARK                         _______ _______ _______ _____ _____    ______ ____
ROOT
ATOM      1  N   UNL     1       8.110   4.989  18.905  0.00  0.00    +0.000 N 
ATOM      2  C   UNL     1       7.083   4.676  18.042  0.00  0.00    +0.000 A 
ATOM      3  N   UNL     1       5.914   4.370  18.571  0.00  0.00    +0.000 NA
ATOM      4  C   UNL     1       4.950   4.093  17.699  0.00  0.00    +0.000 A 
ATOM      5  N   UNL     1       5.085   4.104  16.374  0.00  0.00    +0.000 NA
ATOM      6  C   UNL     1       6.312   4.413  15.949  0.00  0.00    +0.000 A 
ATOM      7  N   UNL     1       7.344   4.687  16.747  0.00  0.00    +0.000 NA
ATOM      8  H   UNL     1       7.947   4.608  19.826  0.00  0.00    +0.000 HD
ATOM      9  H   UNL     1       9.016   4.835  18.485  0.00  0.00    +0.000 HD
ENDROOT
BRANCH   6  10
ATOM     10  C   UNL     1       6.569   4.381  14.492  0.00  0.00    +0.000 A 
ATOM     11  C   UNL     1       5.875   3.505  13.632  0.00  0.00    +0.000 A 
ATOM     12  C   UNL     1       6.158   3.445  12.262  0.00  0.00    +0.000 A 
ATOM     13  C   UNL     1       7.132   4.274  11.715  0.00  0.00    +0.000 A 
ATOM     14  C   UNL     1       7.816   5.168  12.531  0.00  0.00    +0.000 A 
ATOM     15  C   UNL     1       7.536   5.219  13.901  0.00  0.00    +0.000 A 
ENDBRANCH   6  10
BRANCH   4  16
ATOM     16  S   UNL     1       3.364   3.722  18.410  0.00  0.00    +0.000 S 
BRANCH  16  17
ATOM     17  C   UNL     1       3.321   4.852  19.831  0.00  0.00    +0.000 C 
BRANCH  17  18
ATOM     18  C   UNL     1       2.790   6.204  19.497  0.00  0.00    +0.000 A 
ATOM     19  N   UNL     1       2.794   6.803  18.322  0.00  0.00    +0.000 NA
ATOM     20  C   UNL     1       2.206   8.025  18.523  0.00  0.00    +0.000 A 
ATOM     21  C   UNL     1       1.823   8.173  19.834  0.00  0.00    +0.000 A 
ATOM     22  N   UNL     1       2.179   7.001  20.436  0.00  0.00    +0.000 N 
ATOM     23  H   UNL     1       2.081   6.773  21.416  0.00  0.00    +0.000 HD
ENDBRANCH  17  18
ENDBRANCH  16  17
ENDBRANCH   4  16
TORSDOF 4
ENDMDL
MODEL 7
REMARK VINA RESULT:      -7.2      2.942      4.890
REMARK  Name = 
REMARK  4 active torsions:
REMARK  status: ('A' for Active; 'I' for Inactive)
REMARK    1  A    between atoms: C_4  and  S_5
REMARK    2  A    between atoms: S_5  and  C_6
REMARK    3  A    between atoms: C_6  and  C_7
REMARK    4  A    between atoms: C_13  and  C_14
REMARK                            x       y       z     vdW  Elec       q    Type
REMARK                         _______ _______ _______ _____ _____    ______ ____
ROOT
ATOM      1  N   UNL     1       7.174   5.080  14.078  0.00  0.00    +0.000 N 
ATOM      2  C   UNL     1       6.721   5.266  15.366  0.00  0.00    +0.000 A 
ATOM      3  N   UNL     1       7.467   5.992  16.176  0.00  0.00    +0.000 NA
ATOM      4  C   UNL     1       6.980   6.158  17.401  0.00  0.00    +0.000 A 
ATOM      5  N   UNL     1       5.830   5.655  17.847  0.00  0.00    +0.000 NA
ATOM      6  C   UNL     1       5.165   4.926  16.949  0.00  0.00    +0.000 A 
ATOM      7  N   UNL     1       5.582   4.690  15.705  0.00  0.00    +0.000 NA
ATOM      8  H   UNL     1       8.172   5.221  14.015  0.00  0.00    +0.000 HD
ATOM      9  H   UNL     1       6.787   4.247  13.659  0.00  0.00    +0.000 HD
ENDROOT
BRANCH   6  10
ATOM     10  C   UNL     1       3.909   4.272  17.381  0.00  0.00    +0.000 A 
ATOM     11  C   UNL     1       2.774   5.017  17.762  0.00  0.00    +0.000 A 
ATOM     12  C   UNL     1       1.607   4.394  18.218  0.00  0.00    +0.000 A 
ATOM     13  C   UNL     1       1.540   3.006  18.289  0.00  0.00    +0.000 A 
ATOM     14  C   UNL     1       2.633   2.242  17.897  0.00  0.00    +0.000 A 
ATOM     15  C   UNL     1       3.800   2.868  17.449  0.00  0.00    +0.000 A 
ENDBRANCH   6  10
BRANCH   4  16
ATOM     16  S   UNL     1       7.964   7.172  18.480  0.00  0.00    +0.000 S 
BRANCH  16  17
ATOM     17  C   UNL     1       7.956   8.762  17.604  0.00  0.00    +0.000 C 
BRANCH  17  18
ATOM     18  C   UNL     1       8.634   9.857  18.356  0.00  0.00    +0.000 A 
ATOM     19  N   UNL     1       8.793  11.111  17.984  0.00  0.00    +0.000 NA
ATOM     20  C   UNL     1       9.481  11.720  19.002  0.00  0.00    +0.000 A 
ATOM     21  C   UNL     1       9.734  10.832  20.018  0.00  0.00    +0.000 A 
ATOM     22  N   UNL     1       9.173   9.658  19.605  0.00  0.00    +0.000 N 
ATOM     23  H   UNL     1       9.202   8.772  20.091  0.00  0.00    +0.000 HD
ENDBRANCH  17  18
ENDBRANCH  16  17
ENDBRANCH   4  16
TORSDOF 4
ENDMDL
MODEL 8
REMARK VINA RESULT:      -7.2      2.477      6.585
REMARK  Name = 
REMARK  4 active torsions:
REMARK  status: ('A' for Active; 'I' for Inactive)
REMARK    1  A    between atoms: C_4  and  S_5
REMARK    2  A    between atoms: S_5  and  C_6
REMARK    3  A    between atoms: C_6  and  C_7
REMARK    4  A    between atoms: C_13  and  C_14
REMARK                            x       y       z     vdW  Elec       q    Type
REMARK                         _______ _______ _______ _____ _____    ______ ____
ROOT
ATOM      1  N   UNL     1       8.081   5.099  18.984  0.00  0.00    +0.000 N 
ATOM      2  C   UNL     1       7.057   5.167  18.065  0.00  0.00    +0.000 A 
ATOM      3  N   UNL     1       5.857   5.483  18.512  0.00  0.00    +0.000 NA
ATOM      4  C   UNL     1       4.906   5.554  17.586  0.00  0.00    +0.000 A 
ATOM      5  N   UNL     1       5.082   5.333  16.285  0.00  0.00    +0.000 NA
ATOM      6  C   UNL     1       6.331   5.007  15.946  0.00  0.00    +0.000 A 
ATOM      7  N   UNL     1       7.344   4.894  16.805  0.00  0.00    +0.000 NA
ATOM      8  H   UNL     1       7.728   4.952  19.919  0.00  0.00    +0.000 HD
ATOM      9  H   UNL     1       8.834   4.506  18.665  0.00  0.00    +0.000 HD
ENDROOT
BRANCH   6  10
ATOM     10  C   UNL     1       6.600   4.678  14.528  0.00  0.00    +0.000 A 
ATOM     11  C   UNL     1       7.604   5.336  13.788  0.00  0.00    +0.000 A 
ATOM     12  C   UNL     1       7.820   5.055  12.434  0.00  0.00    +0.000 A 
ATOM     13  C   UNL     1       7.046   4.096  11.789  0.00  0.00    +0.000 A 
ATOM     14  C   UNL     1       6.065   3.410  12.497  0.00  0.00    +0.000 A 
ATOM     15  C   UNL     1       5.847   3.699  13.848  0.00  0.00    +0.000 A 
ENDBRANCH   6  10
BRANCH   4  16
ATOM     16  S   UNL     1       3.297   6.021  18.182  0.00  0.00    +0.000 S 
BRANCH  16  17
ATOM     17  C   UNL     1       3.387   5.517  19.924  0.00  0.00    +0.000 C 
BRANCH  17  18
ATOM     18  C   UNL     1       2.593   4.292  20.228  0.00  0.00    +0.000 A 
ATOM     19  N   UNL     1       2.102   3.920  21.393  0.00  0.00    +0.000 NA
ATOM     20  C   UNL     1       1.462   2.728  21.166  0.00  0.00    +0.000 A 
ATOM     21  C   UNL     1       1.550   2.372  19.843  0.00  0.00    +0.000 A 
ATOM     22  N   UNL     1       2.251   3.384  19.254  0.00  0.00    +0.000 N 
ATOM     23  H   UNL     1       2.537   3.436  18.286  0.00  0.00    +0.000 HD
ENDBRANCH  17  18
ENDBRANCH  16  17
ENDBRANCH   4  16
TORSDOF 4
ENDMDL
MODEL 9
REMARK VINA RESULT:      -7.1      2.609      6.432
REMARK  Name = 
REMARK  4 active torsions:
REMARK  status: ('A' for Active; 'I' for Inactive)
REMARK    1  A    between atoms: C_4  and  S_5
REMARK    2  A    between atoms: S_5  and  C_6
REMARK    3  A    between atoms: C_6  and  C_7
REMARK    4  A    between atoms: C_13  and  C_14
REMARK                            x       y       z     vdW  Elec       q    Type
REMARK                         _______ _______ _______ _____ _____    ______ ____
ROOT
ATOM      1  N   UNL     1       8.045   5.064  19.043  0.00  0.00    +0.000 N 
ATOM      2  C   UNL     1       7.041   5.209  18.110  0.00  0.00    +0.000 A 
ATOM      3  N   UNL     1       5.865   5.624  18.539  0.00  0.00    +0.000 NA
ATOM      4  C   UNL     1       4.936   5.766  17.600  0.00  0.00    +0.000 A 
ATOM      5  N   UNL     1       5.110   5.523  16.302  0.00  0.00    +0.000 NA
ATOM      6  C   UNL     1       6.333   5.094  15.982  0.00  0.00    +0.000 A 
ATOM      7  N   UNL     1       7.322   4.905  16.856  0.00  0.00    +0.000 NA
ATOM      8  H   UNL     1       7.669   4.953  19.974  0.00  0.00    +0.000 HD
ATOM      9  H   UNL     1       8.751   4.410  18.738  0.00  0.00    +0.000 HD
ENDROOT
BRANCH   6  10
ATOM     10  C   UNL     1       6.593   4.735  14.570  0.00  0.00    +0.000 A 
ATOM     11  C   UNL     1       7.608   5.359  13.818  0.00  0.00    +0.000 A 
ATOM     12  C   UNL     1       7.817   5.051  12.468  0.00  0.00    +0.000 A 
ATOM     13  C   UNL     1       7.023   4.096  11.841  0.00  0.00    +0.000 A 
ATOM     14  C   UNL     1       6.030   3.443  12.562  0.00  0.00    +0.000 A 
ATOM     15  C   UNL     1       5.820   3.759  13.908  0.00  0.00    +0.000 A 
ENDBRANCH   6  10
BRANCH   4  16
ATOM     16  S   UNL     1       3.363   6.366  18.171  0.00  0.00    +0.000 S 
BRANCH  16  17
ATOM     17  C   UNL     1       2.353   4.856  18.130  0.00  0.00    +0.000 C 
BRANCH  17  18
ATOM     18  C   UNL     1       2.367   4.100  19.415  0.00  0.00    +0.000 A 
ATOM     19  N   UNL     1       2.663   2.829  19.598  0.00  0.00    +0.000 NA
ATOM     20  C   UNL     1       2.525   2.602  20.943  0.00  0.00    +0.000 A 
ATOM     21  C   UNL     1       2.154   3.752  21.596  0.00  0.00    +0.000 A 
ATOM     22  N   UNL     1       2.079   4.701  20.618  0.00  0.00    +0.000 N 
ATOM     23  H   UNL     1       1.793   5.663  20.733  0.00  0.00    +0.000 HD
ENDBRANCH  17  18
ENDBRANCH  16  17
ENDBRANCH   4  16
TORSDOF 4
ENDMDL
