MODEL 1
REMARK VINA RESULT:      -7.0      0.000      0.000
REMARK  Name = 
REMARK  10 active torsions:
REMARK  status: ('A' for Active; 'I' for Inactive)
REMARK    1  A    between atoms: C_1  and  O_2
REMARK    2  A    between atoms: O_2  and  C_3
REMARK    3  A    between atoms: C_6  and  C_7
REMARK    4  A    between atoms: C_8  and  C_9
REMARK    5  A    between atoms: C_13  and  O_14
REMARK    6  A    between atoms: O_14  and  C_15
REMARK    7  A    between atoms: C_16  and  O_17
REMARK    8  A    between atoms: O_17  and  C_18
REMARK    9  A    between atoms: C_21  and  O_22
REMARK   10  A    between atoms: O_22  and  P_23
REMARK                            x       y       z     vdW  Elec       q    Type
REMARK                         _______ _______ _______ _____ _____    ______ ____
ROOT
ATOM      1  C   UNL     1       1.923   6.883  20.149  0.00  0.00    +0.000 A 
ATOM      2  C   UNL     1       1.801   5.692  20.891  0.00  0.00    +0.000 A 
ATOM      3  C   UNL     1       1.871   4.458  20.257  0.00  0.00    +0.000 A 
ATOM      4  C   UNL     1       2.024   4.397  18.874  0.00  0.00    +0.000 A 
ATOM      5  C   UNL     1       2.108   5.586  18.126  0.00  0.00    +0.000 A 
ATOM      6  C   UNL     1       2.061   6.833  18.754  0.00  0.00    +0.000 A 
ENDROOT
BRANCH   1   8
ATOM      7  C   UNL     1       0.675   8.255  21.607  0.00  0.00    +0.000 C 
ATOM      8  O   UNL     1       1.851   8.082  20.808  0.00  0.00    +0.000 OA
ENDBRANCH   1   8
BRANCH   4   9
ATOM      9  C   UNL     1       2.194   3.092  18.238  0.00  0.00    +0.000 C 
ATOM     10  C   UNL     1       3.341   2.686  17.678  0.00  0.00    +0.000 C 
BRANCH  10  11
ATOM     11  C   UNL     1       4.548   3.528  17.609  0.00  0.00    +0.000 A 
ATOM     12  C   UNL     1       5.083   3.846  16.365  0.00  0.00    +0.000 A 
ATOM     13  C   UNL     1       6.156   4.734  16.284  0.00  0.00    +0.000 A 
ATOM     14 BR   UNL     1       6.820   5.123  14.538  0.00  0.00    +0.000 Br
ATOM     15  C   UNL     1       6.714   5.326  17.435  0.00  0.00    +0.000 A 
ATOM     16  C   UNL     1       6.179   4.980  18.692  0.00  0.00    +0.000 A 
ATOM     17  C   UNL     1       5.109   4.074  18.768  0.00  0.00    +0.000 A 
BRANCH  15  18
ATOM     18  O   UNL     1       7.743   6.199  17.184  0.00  0.00    +0.000 OA
ATOM     19  C   UNL     1       7.558   7.589  17.384  0.00  0.00    +0.000 C 
ENDBRANCH  15  18
BRANCH  16  20
ATOM     20  O   UNL     1       6.758   5.495  19.826  0.00  0.00    +0.000 OA
ATOM     21  C   UNL     1       8.145   5.230  20.007  0.00  0.00    +0.000 C 
ENDBRANCH  16  20
ENDBRANCH  10  11
ENDBRANCH   4   9
BRANCH   6  22
ATOM     22  O   UNL     1       2.209   7.912  17.890  0.00  0.00    +0.000 OA
BRANCH  22  23
ATOM     23  P   UNL     1       1.600   9.448  18.400  0.00  0.00    +0.000 P 
ATOM     24  O   UNL     1       2.370  10.292  17.332  0.00  0.00    +0.000 OA
ATOM     25  O   UNL     1       0.310   9.398  17.533  0.00  0.00    +0.000 OA
ATOM     26  O   UNL     1       0.990  10.984  18.912  0.00  0.00    +0.000 OA
ENDBRANCH  22  23
ENDBRANCH   6  22
TORSDOF 7
ENDMDL
MODEL 2
REMARK VINA RESULT:      -6.8      2.735      6.435
REMARK  Name = 
REMARK  10 active torsions:
REMARK  status: ('A' for Active; 'I' for Inactive)
REMARK    1  A    between atoms: C_1  and  O_2
REMARK    2  A    between atoms: O_2  and  C_3
REMARK    3  A    between atoms: C_6  and  C_7
REMARK    4  A    between atoms: C_8  and  C_9
REMARK    5  A    between atoms: C_13  and  O_14
REMARK    6  A    between atoms: O_14  and  C_15
REMARK    7  A    between atoms: C_16  and  O_17
REMARK    8  A    between atoms: O_17  and  C_18
REMARK    9  A    between atoms: C_21  and  O_22
REMARK   10  A    between atoms: O_22  and  P_23
REMARK                            x       y       z     vdW  Elec       q    Type
REMARK                         _______ _______ _______ _____ _____    ______ ____
ROOT
ATOM      1  C   UNL     1       6.531   5.958  17.739  0.00  0.00    +0.000 A 
ATOM      2  C   UNL     1       6.370   5.589  19.089  0.00  0.00    +0.000 A 
ATOM      3  C   UNL     1       5.183   5.013  19.525  0.00  0.00    +0.000 A 
ATOM      4  C   UNL     1       4.131   4.835  18.629  0.00  0.00    +0.000 A 
ATOM      5  C   UNL     1       4.275   5.239  17.289  0.00  0.00    +0.000 A 
ATOM      6  C   UNL     1       5.471   5.798  16.834  0.00  0.00    +0.000 A 
ENDROOT
BRANCH   1   8
ATOM      7  C   UNL     1       7.808   7.933  17.562  0.00  0.00    +0.000 C 
ATOM      8  O   UNL     1       7.717   6.521  17.345  0.00  0.00    +0.000 OA
ENDBRANCH   1   8
BRANCH   4   9
ATOM      9  C   UNL     1       2.928   4.140  19.083  0.00  0.00    +0.000 C 
ATOM     10  C   UNL     1       1.866   4.767  19.609  0.00  0.00    +0.000 C 
BRANCH  10  11
ATOM     11  C   UNL     1       1.814   6.223  19.824  0.00  0.00    +0.000 A 
ATOM     12  C   UNL     1       2.095   7.077  18.763  0.00  0.00    +0.000 A 
ATOM     13  C   UNL     1       1.937   8.454  18.926  0.00  0.00    +0.000 A 
ATOM     14 BR   UNL     1       2.334   9.548  17.415  0.00  0.00    +0.000 Br
ATOM     15  C   UNL     1       1.494   9.007  20.144  0.00  0.00    +0.000 A 
ATOM     16  C   UNL     1       1.232   8.136  21.220  0.00  0.00    +0.000 A 
ATOM     17  C   UNL     1       1.407   6.752  21.054  0.00  0.00    +0.000 A 
BRANCH  15  18
ATOM     18  O   UNL     1       1.362  10.373  20.132  0.00  0.00    +0.000 OA
ATOM     19  C   UNL     1       0.111  10.963  19.821  0.00  0.00    +0.000 C 
ENDBRANCH  15  18
BRANCH  16  20
ATOM     20  O   UNL     1       0.867   8.666  22.432  0.00  0.00    +0.000 OA
ATOM     21  C   UNL     1      -0.522   8.918  22.623  0.00  0.00    +0.000 C 
ENDBRANCH  16  20
ENDBRANCH  10  11
ENDBRANCH   4   9
BRANCH   6  22
ATOM     22  O   UNL     1       5.480   6.097  15.476  0.00  0.00    +0.000 OA
BRANCH  22  23
ATOM     23  P   UNL     1       6.000   4.864  14.379  0.00  0.00    +0.000 P 
ATOM     24  O   UNL     1       7.493   5.325  14.314  0.00  0.00    +0.000 OA
ATOM     25  O   UNL     1       6.304   3.802  15.474  0.00  0.00    +0.000 OA
ATOM     26  O   UNL     1       6.519   3.632  13.282  0.00  0.00    +0.000 OA
ENDBRANCH  22  23
ENDBRANCH   6  22
TORSDOF 7
ENDMDL
MODEL 3
REMARK VINA RESULT:      -6.8      1.353      2.147
REMARK  Name = 
REMARK  10 active torsions:
REMARK  status: ('A' for Active; 'I' for Inactive)
REMARK    1  A    between atoms: C_1  and  O_2
REMARK    2  A    between atoms: O_2  and  C_3
REMARK    3  A    between atoms: C_6  and  C_7
REMARK    4  A    between atoms: C_8  and  C_9
REMARK    5  A    between atoms: C_13  and  O_14
REMARK    6  A    between atoms: O_14  and  C_15
REMARK    7  A    between atoms: C_16  and  O_17
REMARK    8  A    between atoms: O_17  and  C_18
REMARK    9  A    between atoms: C_21  and  O_22
REMARK   10  A    between atoms: O_22  and  P_23
REMARK                            x       y       z     vdW  Elec       q    Type
REMARK                         _______ _______ _______ _____ _____    ______ ____
ROOT
ATOM      1  C   UNL     1       1.800   7.140  20.188  0.00  0.00    +0.000 A 
ATOM      2  C   UNL     1       1.681   5.960  20.948  0.00  0.00    +0.000 A 
ATOM      3  C   UNL     1       1.803   4.717  20.341  0.00  0.00    +0.000 A 
ATOM      4  C   UNL     1       2.005   4.635  18.964  0.00  0.00    +0.000 A 
ATOM      5  C   UNL     1       2.085   5.812  18.197  0.00  0.00    +0.000 A 
ATOM      6  C   UNL     1       1.987   7.069  18.799  0.00  0.00    +0.000 A 
ENDROOT
BRANCH   1   8
ATOM      7  C   UNL     1       0.710   8.374  21.878  0.00  0.00    +0.000 C 
ATOM      8  O   UNL     1       1.677   8.349  20.822  0.00  0.00    +0.000 OA
ENDBRANCH   1   8
BRANCH   4   9
ATOM      9  C   UNL     1       2.227   3.323  18.359  0.00  0.00    +0.000 C 
ATOM     10  C   UNL     1       3.342   2.997  17.691  0.00  0.00    +0.000 C 
BRANCH  10  11
ATOM     11  C   UNL     1       4.449   3.939  17.461  0.00  0.00    +0.000 A 
ATOM     12  C   UNL     1       5.274   4.293  18.524  0.00  0.00    +0.000 A 
ATOM     13  C   UNL     1       6.392   5.094  18.293  0.00  0.00    +0.000 A 
ATOM     14 BR   UNL     1       7.472   5.520  19.806  0.00  0.00    +0.000 Br
ATOM     15  C   UNL     1       6.714   5.556  17.001  0.00  0.00    +0.000 A 
ATOM     16  C   UNL     1       5.862   5.211  15.934  0.00  0.00    +0.000 A 
ATOM     17  C   UNL     1       4.730   4.416  16.176  0.00  0.00    +0.000 A 
BRANCH  15  18
ATOM     18  O   UNL     1       7.861   6.308  16.936  0.00  0.00    +0.000 OA
ATOM     19  C   UNL     1       7.820   7.692  17.236  0.00  0.00    +0.000 C 
ENDBRANCH  15  18
BRANCH  16  20
ATOM     20  O   UNL     1       6.126   5.711  14.683  0.00  0.00    +0.000 OA
ATOM     21  C   UNL     1       7.019   4.955  13.871  0.00  0.00    +0.000 C 
ENDBRANCH  16  20
ENDBRANCH  10  11
ENDBRANCH   4   9
BRANCH   6  22
ATOM     22  O   UNL     1       2.138   8.135  17.921  0.00  0.00    +0.000 OA
BRANCH  22  23
ATOM     23  P   UNL     1       1.582   9.691  18.432  0.00  0.00    +0.000 P 
ATOM     24  O   UNL     1       2.257  10.494  17.272  0.00  0.00    +0.000 OA
ATOM     25  O   UNL     1       0.220   9.622  17.685  0.00  0.00    +0.000 OA
ATOM     26  O   UNL     1       1.027  11.247  18.945  0.00  0.00    +0.000 OA
ENDBRANCH  22  23
ENDBRANCH   6  22
TORSDOF 7
ENDMDL
MODEL 4
REMARK VINA RESULT:      -6.7      6.912      9.480
REMARK  Name = 
REMARK  10 active torsions:
REMARK  status: ('A' for Active; 'I' for Inactive)
REMARK    1  A    between atoms: C_1  and  O_2
REMARK    2  A    between atoms: O_2  and  C_3
REMARK    3  A    between atoms: C_6  and  C_7
REMARK    4  A    between atoms: C_8  and  C_9
REMARK    5  A    between atoms: C_13  and  O_14
REMARK    6  A    between atoms: O_14  and  C_15
REMARK    7  A    between atoms: C_16  and  O_17
REMARK    8  A    between atoms: O_17  and  C_18
REMARK    9  A    between atoms: C_21  and  O_22
REMARK   10  A    between atoms: O_22  and  P_23
REMARK                            x       y       z     vdW  Elec       q    Type
REMARK                         _______ _______ _______ _____ _____    ______ ____
ROOT
ATOM      1  C   UNL     1      -2.998  12.411  23.515  0.00  0.00    +0.000 A 
ATOM      2  C   UNL     1      -3.145  13.790  23.268  0.00  0.00    +0.000 A 
ATOM      3  C   UNL     1      -2.118  14.511  22.672  0.00  0.00    +0.000 A 
ATOM      4  C   UNL     1      -0.921  13.875  22.351  0.00  0.00    +0.000 A 
ATOM      5  C   UNL     1      -0.758  12.506  22.631  0.00  0.00    +0.000 A 
ATOM      6  C   UNL     1      -1.790  11.765  23.210  0.00  0.00    +0.000 A 
ENDROOT
BRANCH   1   8
ATOM      7  C   UNL     1      -4.867  12.530  24.948  0.00  0.00    +0.000 C 
ATOM      8  O   UNL     1      -4.033  11.731  24.103  0.00  0.00    +0.000 OA
ENDBRANCH   1   8
BRANCH   4   9
ATOM      9  C   UNL     1       0.109  14.627  21.636  0.00  0.00    +0.000 C 
ATOM     10  C   UNL     1       0.496  14.345  20.385  0.00  0.00    +0.000 C 
BRANCH  10  11
ATOM     11  C   UNL     1      -0.048  13.220  19.606  0.00  0.00    +0.000 A 
ATOM     12  C   UNL     1       0.801  12.190  19.215  0.00  0.00    +0.000 A 
ATOM     13  C   UNL     1       0.275  11.067  18.577  0.00  0.00    +0.000 A 
ATOM     14 BR   UNL     1       1.511   9.700  18.085  0.00  0.00    +0.000 Br
ATOM     15  C   UNL     1      -1.105  10.943  18.319  0.00  0.00    +0.000 A 
ATOM     16  C   UNL     1      -1.955  12.000  18.700  0.00  0.00    +0.000 A 
ATOM     17  C   UNL     1      -1.417  13.135  19.329  0.00  0.00    +0.000 A 
BRANCH  15  18
ATOM     18  O   UNL     1      -1.467   9.766  17.713  0.00  0.00    +0.000 OA
ATOM     19  C   UNL     1      -2.098   9.787  16.444  0.00  0.00    +0.000 C 
ENDBRANCH  15  18
BRANCH  16  20
ATOM     20  O   UNL     1      -3.291  11.923  18.393  0.00  0.00    +0.000 OA
ATOM     21  C   UNL     1      -4.202  12.280  19.428  0.00  0.00    +0.000 C 
ENDBRANCH  16  20
ENDBRANCH  10  11
ENDBRANCH   4   9
BRANCH   6  22
ATOM     22  O   UNL     1      -1.499  10.416  23.378  0.00  0.00    +0.000 OA
BRANCH  22  23
ATOM     23  P   UNL     1      -0.150   9.765  22.511  0.00  0.00    +0.000 P 
ATOM     24  O   UNL     1       0.722   9.461  23.772  0.00  0.00    +0.000 OA
ATOM     25  O   UNL     1      -0.695   8.310  22.450  0.00  0.00    +0.000 OA
ATOM     26  O   UNL     1       1.197   9.115  21.643  0.00  0.00    +0.000 OA
ENDBRANCH  22  23
ENDBRANCH   6  22
TORSDOF 7
ENDMDL
MODEL 5
REMARK VINA RESULT:      -6.7      2.329      3.500
REMARK  Name = 
REMARK  10 active torsions:
REMARK  status: ('A' for Active; 'I' for Inactive)
REMARK    1  A    between atoms: C_1  and  O_2
REMARK    2  A    between atoms: O_2  and  C_3
REMARK    3  A    between atoms: C_6  and  C_7
REMARK    4  A    between atoms: C_8  and  C_9
REMARK    5  A    between atoms: C_13  and  O_14
REMARK    6  A    between atoms: O_14  and  C_15
REMARK    7  A    between atoms: C_16  and  O_17
REMARK    8  A    between atoms: O_17  and  C_18
REMARK    9  A    between atoms: C_21  and  O_22
REMARK   10  A    between atoms: O_22  and  P_23
REMARK                            x       y       z     vdW  Elec       q    Type
REMARK                         _______ _______ _______ _____ _____    ______ ____
ROOT
ATOM      1  C   UNL     1       1.581   8.781  19.349  0.00  0.00    +0.000 A 
ATOM      2  C   UNL     1       1.619   7.959  18.206  0.00  0.00    +0.000 A 
ATOM      3  C   UNL     1       1.714   6.579  18.334  0.00  0.00    +0.000 A 
ATOM      4  C   UNL     1       1.809   6.006  19.600  0.00  0.00    +0.000 A 
ATOM      5  C   UNL     1       1.809   6.827  20.742  0.00  0.00    +0.000 A 
ATOM      6  C   UNL     1       1.692   8.214  20.628  0.00  0.00    +0.000 A 
ENDROOT
BRANCH   1   8
ATOM      7  C   UNL     1       0.245  10.584  18.624  0.00  0.00    +0.000 C 
ATOM      8  O   UNL     1       1.485  10.138  19.185  0.00  0.00    +0.000 OA
ENDBRANCH   1   8
BRANCH   4   9
ATOM      9  C   UNL     1       1.809   4.549  19.718  0.00  0.00    +0.000 C 
ATOM     10  C   UNL     1       2.792   3.769  19.248  0.00  0.00    +0.000 C 
BRANCH  10  11
ATOM     11  C   UNL     1       3.963   4.295  18.526  0.00  0.00    +0.000 A 
ATOM     12  C   UNL     1       5.076   4.713  19.249  0.00  0.00    +0.000 A 
ATOM     13  C   UNL     1       6.231   5.105  18.571  0.00  0.00    +0.000 A 
ATOM     14 BR   UNL     1       7.712   5.652  19.642  0.00  0.00    +0.000 Br
ATOM     15  C   UNL     1       6.303   5.085  17.164  0.00  0.00    +0.000 A 
ATOM     16  C   UNL     1       5.164   4.681  16.440  0.00  0.00    +0.000 A 
ATOM     17  C   UNL     1       4.000   4.302  17.128  0.00  0.00    +0.000 A 
BRANCH  15  18
ATOM     18  O   UNL     1       7.517   5.471  16.652  0.00  0.00    +0.000 OA
ATOM     19  C   UNL     1       7.758   6.835  16.348  0.00  0.00    +0.000 C 
ENDBRANCH  15  18
BRANCH  16  20
ATOM     20  O   UNL     1       5.198   4.724  15.068  0.00  0.00    +0.000 OA
ATOM     21  C   UNL     1       6.114   3.843  14.427  0.00  0.00    +0.000 C 
ENDBRANCH  16  20
ENDBRANCH  10  11
ENDBRANCH   4   9
BRANCH   6  22
ATOM     22  O   UNL     1       1.654   8.885  21.845  0.00  0.00    +0.000 OA
BRANCH  22  23
ATOM     23  P   UNL     1       0.144   9.562  22.349  0.00  0.00    +0.000 P 
ATOM     24  O   UNL     1       0.483   9.596  23.875  0.00  0.00    +0.000 OA
ATOM     25  O   UNL     1       0.568  11.046  22.152  0.00  0.00    +0.000 OA
ATOM     26  O   UNL     1      -1.366  10.240  22.852  0.00  0.00    +0.000 OA
ENDBRANCH  22  23
ENDBRANCH   6  22
TORSDOF 7
ENDMDL
MODEL 6
REMARK VINA RESULT:      -6.7      5.488      9.235
REMARK  Name = 
REMARK  10 active torsions:
REMARK  status: ('A' for Active; 'I' for Inactive)
REMARK    1  A    between atoms: C_1  and  O_2
REMARK    2  A    between atoms: O_2  and  C_3
REMARK    3  A    between atoms: C_6  and  C_7
REMARK    4  A    between atoms: C_8  and  C_9
REMARK    5  A    between atoms: C_13  and  O_14
REMARK    6  A    between atoms: O_14  and  C_15
REMARK    7  A    between atoms: C_16  and  O_17
REMARK    8  A    between atoms: O_17  and  C_18
REMARK    9  A    between atoms: C_21  and  O_22
REMARK   10  A    between atoms: O_22  and  P_23
REMARK                            x       y       z     vdW  Elec       q    Type
REMARK                         _______ _______ _______ _____ _____    ______ ____
ROOT
ATOM      1  C   UNL     1       1.669   8.243  19.529  0.00  0.00    +0.000 A 
ATOM      2  C   UNL     1       1.936   8.654  18.208  0.00  0.00    +0.000 A 
ATOM      3  C   UNL     1       1.842   9.994  17.855  0.00  0.00    +0.000 A 
ATOM      4  C   UNL     1       1.445  10.934  18.804  0.00  0.00    +0.000 A 
ATOM      5  C   UNL     1       1.140  10.521  20.114  0.00  0.00    +0.000 A 
ATOM      6  C   UNL     1       1.251   9.180  20.487  0.00  0.00    +0.000 A 
ENDROOT
BRANCH   1   8
ATOM      7  C   UNL     1       2.975   6.285  19.383  0.00  0.00    +0.000 C 
ATOM      8  O   UNL     1       1.773   6.913  19.842  0.00  0.00    +0.000 OA
ENDBRANCH   1   8
BRANCH   4   9
ATOM      9  C   UNL     1       1.446  12.349  18.440  0.00  0.00    +0.000 C 
ATOM     10  C   UNL     1       0.332  13.083  18.320  0.00  0.00    +0.000 C 
BRANCH  10  11
ATOM     11  C   UNL     1      -1.021  12.531  18.504  0.00  0.00    +0.000 A 
ATOM     12  C   UNL     1      -1.725  12.830  19.666  0.00  0.00    +0.000 A 
ATOM     13  C   UNL     1      -3.048  12.407  19.799  0.00  0.00    +0.000 A 
ATOM     14 BR   UNL     1      -3.939  12.871  21.420  0.00  0.00    +0.000 Br
ATOM     15  C   UNL     1      -3.697  11.682  18.780  0.00  0.00    +0.000 A 
ATOM     16  C   UNL     1      -2.970  11.365  17.616  0.00  0.00    +0.000 A 
ATOM     17  C   UNL     1      -1.634  11.782  17.494  0.00  0.00    +0.000 A 
BRANCH  15  18
ATOM     18  O   UNL     1      -5.005  11.366  19.052  0.00  0.00    +0.000 OA
ATOM     19  C   UNL     1      -6.053  12.082  18.422  0.00  0.00    +0.000 C 
ENDBRANCH  15  18
BRANCH  16  20
ATOM     20  O   UNL     1      -3.568  10.600  16.645  0.00  0.00    +0.000 OA
ATOM     21  C   UNL     1      -2.747  10.211  15.548  0.00  0.00    +0.000 C 
ENDBRANCH  16  20
ENDBRANCH  10  11
ENDBRANCH   4   9
BRANCH   6  22
ATOM     22  O   UNL     1       0.968   8.936  21.826  0.00  0.00    +0.000 OA
BRANCH  22  23
ATOM     23  P   UNL     1      -0.300   9.850  22.566  0.00  0.00    +0.000 P 
ATOM     24  O   UNL     1       0.170   9.620  24.039  0.00  0.00    +0.000 OA
ATOM     25  O   UNL     1       0.426  11.222  22.475  0.00  0.00    +0.000 OA
ATOM     26  O   UNL     1      -1.569  10.765  23.304  0.00  0.00    +0.000 OA
ENDBRANCH  22  23
ENDBRANCH   6  22
TORSDOF 7
ENDMDL
MODEL 7
REMARK VINA RESULT:      -6.7      9.269     11.662
REMARK  Name = 
REMARK  10 active torsions:
REMARK  status: ('A' for Active; 'I' for Inactive)
REMARK    1  A    between atoms: C_1  and  O_2
REMARK    2  A    between atoms: O_2  and  C_3
REMARK    3  A    between atoms: C_6  and  C_7
REMARK    4  A    between atoms: C_8  and  C_9
REMARK    5  A    between atoms: C_13  and  O_14
REMARK    6  A    between atoms: O_14  and  C_15
REMARK    7  A    between atoms: C_16  and  O_17
REMARK    8  A    between atoms: O_17  and  C_18
REMARK    9  A    between atoms: C_21  and  O_22
REMARK   10  A    between atoms: O_22  and  P_23
REMARK                            x       y       z     vdW  Elec       q    Type
REMARK                         _______ _______ _______ _____ _____    ______ ____
ROOT
ATOM      1  C   UNL     1      -6.840  10.485  19.423  0.00  0.00    +0.000 A 
ATOM      2  C   UNL     1      -7.588  11.173  20.399  0.00  0.00    +0.000 A 
ATOM      3  C   UNL     1      -7.463  12.549  20.540  0.00  0.00    +0.000 A 
ATOM      4  C   UNL     1      -6.565  13.249  19.738  0.00  0.00    +0.000 A 
ATOM      5  C   UNL     1      -5.789  12.559  18.788  0.00  0.00    +0.000 A 
ATOM      6  C   UNL     1      -5.921  11.178  18.621  0.00  0.00    +0.000 A 
ENDROOT
BRANCH   1   8
ATOM      7  C   UNL     1      -7.524   8.488  20.475  0.00  0.00    +0.000 C 
ATOM      8  O   UNL     1      -6.991   9.127  19.310  0.00  0.00    +0.000 OA
ENDBRANCH   1   8
BRANCH   4   9
ATOM      9  C   UNL     1      -6.518  14.707  19.834  0.00  0.00    +0.000 C 
ATOM     10  C   UNL     1      -5.578  15.373  20.517  0.00  0.00    +0.000 C 
BRANCH  10  11
ATOM     11  C   UNL     1      -4.509  14.705  21.279  0.00  0.00    +0.000 A 
ATOM     12  C   UNL     1      -4.823  14.069  22.476  0.00  0.00    +0.000 A 
ATOM     13  C   UNL     1      -3.842  13.338  23.146  0.00  0.00    +0.000 A 
ATOM     14 BR   UNL     1      -4.363  12.490  24.774  0.00  0.00    +0.000 Br
ATOM     15  C   UNL     1      -2.532  13.221  22.639  0.00  0.00    +0.000 A 
ATOM     16  C   UNL     1      -2.218  13.886  21.437  0.00  0.00    +0.000 A 
ATOM     17  C   UNL     1      -3.206  14.633  20.775  0.00  0.00    +0.000 A 
BRANCH  15  18
ATOM     18  O   UNL     1      -1.695  12.444  23.400  0.00  0.00    +0.000 OA
ATOM     19  C   UNL     1      -1.362  11.134  22.975  0.00  0.00    +0.000 C 
ENDBRANCH  15  18
BRANCH  16  20
ATOM     20  O   UNL     1      -0.928  13.839  20.968  0.00  0.00    +0.000 OA
ATOM     21  C   UNL     1      -0.112  14.974  21.237  0.00  0.00    +0.000 C 
ENDBRANCH  16  20
ENDBRANCH  10  11
ENDBRANCH   4   9
BRANCH   6  22
ATOM     22  O   UNL     1      -5.128  10.648  17.610  0.00  0.00    +0.000 OA
BRANCH  22  23
ATOM     23  P   UNL     1      -3.481  11.169  17.515  0.00  0.00    +0.000 P 
ATOM     24  O   UNL     1      -2.853   9.741  17.622  0.00  0.00    +0.000 OA
ATOM     25  O   UNL     1      -3.406  11.161  15.962  0.00  0.00    +0.000 OA
ATOM     26  O   UNL     1      -1.835  11.691  17.420  0.00  0.00    +0.000 OA
ENDBRANCH  22  23
ENDBRANCH   6  22
TORSDOF 7
ENDMDL
MODEL 8
REMARK VINA RESULT:      -6.6      2.364      5.944
REMARK  Name = 
REMARK  10 active torsions:
REMARK  status: ('A' for Active; 'I' for Inactive)
REMARK    1  A    between atoms: C_1  and  O_2
REMARK    2  A    between atoms: O_2  and  C_3
REMARK    3  A    between atoms: C_6  and  C_7
REMARK    4  A    between atoms: C_8  and  C_9
REMARK    5  A    between atoms: C_13  and  O_14
REMARK    6  A    between atoms: O_14  and  C_15
REMARK    7  A    between atoms: C_16  and  O_17
REMARK    8  A    between atoms: O_17  and  C_18
REMARK    9  A    between atoms: C_21  and  O_22
REMARK   10  A    between atoms: O_22  and  P_23
REMARK                            x       y       z     vdW  Elec       q    Type
REMARK                         _______ _______ _______ _____ _____    ______ ____
ROOT
ATOM      1  C   UNL     1       4.616   3.573  17.033  0.00  0.00    +0.000 A 
ATOM      2  C   UNL     1       3.260   3.278  16.793  0.00  0.00    +0.000 A 
ATOM      3  C   UNL     1       2.382   3.088  17.853  0.00  0.00    +0.000 A 
ATOM      4  C   UNL     1       2.854   3.152  19.162  0.00  0.00    +0.000 A 
ATOM      5  C   UNL     1       4.215   3.409  19.404  0.00  0.00    +0.000 A 
ATOM      6  C   UNL     1       5.104   3.623  18.348  0.00  0.00    +0.000 A 
ENDROOT
BRANCH   1   8
ATOM      7  C   UNL     1       5.101   4.853  15.113  0.00  0.00    +0.000 C 
ATOM      8  O   UNL     1       5.453   3.756  15.963  0.00  0.00    +0.000 OA
ENDBRANCH   1   8
BRANCH   4   9
ATOM      9  C   UNL     1       1.898   3.047  20.263  0.00  0.00    +0.000 C 
ATOM     10  C   UNL     1       1.307   4.106  20.833  0.00  0.00    +0.000 C 
BRANCH  10  11
ATOM     11  C   UNL     1       1.587   5.497  20.436  0.00  0.00    +0.000 A 
ATOM     12  C   UNL     1       2.366   5.738  19.309  0.00  0.00    +0.000 A 
ATOM     13  C   UNL     1       2.543   7.047  18.861  0.00  0.00    +0.000 A 
ATOM     14 BR   UNL     1       3.617   7.284  17.302  0.00  0.00    +0.000 Br
ATOM     15  C   UNL     1       1.946   8.140  19.520  0.00  0.00    +0.000 A 
ATOM     16  C   UNL     1       1.177   7.888  20.673  0.00  0.00    +0.000 A 
ATOM     17  C   UNL     1       1.015   6.569  21.128  0.00  0.00    +0.000 A 
BRANCH  15  18
ATOM     18  O   UNL     1       2.192   9.358  18.937  0.00  0.00    +0.000 OA
ATOM     19  C   UNL     1       1.190   9.985  18.155  0.00  0.00    +0.000 C 
ENDBRANCH  15  18
BRANCH  16  20
ATOM     20  O   UNL     1       0.647   8.949  21.365  0.00  0.00    +0.000 OA
ATOM     21  C   UNL     1       1.400   9.421  22.478  0.00  0.00    +0.000 C 
ENDBRANCH  16  20
ENDBRANCH  10  11
ENDBRANCH   4   9
BRANCH   6  22
ATOM     22  O   UNL     1       6.403   3.917  18.747  0.00  0.00    +0.000 OA
BRANCH  22  23
ATOM     23  P   UNL     1       6.997   5.516  18.459  0.00  0.00    +0.000 P 
ATOM     24  O   UNL     1       8.176   5.438  19.482  0.00  0.00    +0.000 OA
ATOM     25  O   UNL     1       7.915   5.126  17.266  0.00  0.00    +0.000 OA
ATOM     26  O   UNL     1       7.589   7.115  18.170  0.00  0.00    +0.000 OA
ENDBRANCH  22  23
ENDBRANCH   6  22
TORSDOF 7
ENDMDL
MODEL 9
REMARK VINA RESULT:      -6.6      2.871      4.204
REMARK  Name = 
REMARK  10 active torsions:
REMARK  status: ('A' for Active; 'I' for Inactive)
REMARK    1  A    between atoms: C_1  and  O_2
REMARK    2  A    between atoms: O_2  and  C_3
REMARK    3  A    between atoms: C_6  and  C_7
REMARK    4  A    between atoms: C_8  and  C_9
REMARK    5  A    between atoms: C_13  and  O_14
REMARK    6  A    between atoms: O_14  and  C_15
REMARK    7  A    between atoms: C_16  and  O_17
REMARK    8  A    between atoms: O_17  and  C_18
REMARK    9  A    between atoms: C_21  and  O_22
REMARK   10  A    between atoms: O_22  and  P_23
REMARK                            x       y       z     vdW  Elec       q    Type
REMARK                         _______ _______ _______ _____ _____    ______ ____
ROOT
ATOM      1  C   UNL     1       0.179   8.899  21.159  0.00  0.00    +0.000 A 
ATOM      2  C   UNL     1       1.245   7.991  21.004  0.00  0.00    +0.000 A 
ATOM      3  C   UNL     1       1.971   7.953  19.820  0.00  0.00    +0.000 A 
ATOM      4  C   UNL     1       1.619   8.792  18.765  0.00  0.00    +0.000 A 
ATOM      5  C   UNL     1       0.531   9.673  18.903  0.00  0.00    +0.000 A 
ATOM      6  C   UNL     1      -0.194   9.736  20.096  0.00  0.00    +0.000 A 
ENDROOT
BRANCH   1   8
ATOM      7  C   UNL     1       0.170   9.547  23.426  0.00  0.00    +0.000 C 
ATOM      8  O   UNL     1      -0.514   8.910  22.341  0.00  0.00    +0.000 OA
ENDBRANCH   1   8
BRANCH   4   9
ATOM      9  C   UNL     1       2.454   8.806  17.565  0.00  0.00    +0.000 C 
ATOM     10  C   UNL     1       3.245   7.787  17.203  0.00  0.00    +0.000 C 
BRANCH  10  11
ATOM     11  C   UNL     1       3.388   6.556  17.997  0.00  0.00    +0.000 A 
ATOM     12  C   UNL     1       2.315   5.675  18.085  0.00  0.00    +0.000 A 
ATOM     13  C   UNL     1       2.478   4.453  18.739  0.00  0.00    +0.000 A 
ATOM     14 BR   UNL     1       0.958   3.303  18.802  0.00  0.00    +0.000 Br
ATOM     15  C   UNL     1       3.710   4.083  19.315  0.00  0.00    +0.000 A 
ATOM     16  C   UNL     1       4.785   4.990  19.240  0.00  0.00    +0.000 A 
ATOM     17  C   UNL     1       4.610   6.225  18.593  0.00  0.00    +0.000 A 
BRANCH  15  18
ATOM     18  O   UNL     1       3.715   2.838  19.895  0.00  0.00    +0.000 OA
ATOM     19  C   UNL     1       4.120   1.707  19.143  0.00  0.00    +0.000 C 
ENDBRANCH  15  18
BRANCH  16  20
ATOM     20  O   UNL     1       5.969   4.672  19.857  0.00  0.00    +0.000 OA
ATOM     21  C   UNL     1       7.110   5.434  19.475  0.00  0.00    +0.000 C 
ENDBRANCH  16  20
ENDBRANCH  10  11
ENDBRANCH   4   9
BRANCH   6  22
ATOM     22  O   UNL     1      -1.204  10.691  20.099  0.00  0.00    +0.000 OA
BRANCH  22  23
ATOM     23  P   UNL     1      -0.919  12.175  19.257  0.00  0.00    +0.000 P 
ATOM     24  O   UNL     1      -2.061  11.987  18.206  0.00  0.00    +0.000 OA
ATOM     25  O   UNL     1      -1.817  13.049  20.178  0.00  0.00    +0.000 OA
ATOM     26  O   UNL     1      -0.633  13.659  18.416  0.00  0.00    +0.000 OA
ENDBRANCH  22  23
ENDBRANCH   6  22
TORSDOF 7
ENDMDL
