MODEL 1
REMARK VINA RESULT:      -6.9      0.000      0.000
REMARK  Name = 
REMARK  15 active torsions:
REMARK  status: ('A' for Active; 'I' for Inactive)
REMARK    1  A    between atoms: C_1  and  O_2
REMARK    2  A    between atoms: O_2  and  C_3
REMARK    3  A    between atoms: C_3  and  C_4
REMARK    4  A    between atoms: C_4  and  C_5
REMARK    5  A    between atoms: C_5  and  N_6
REMARK    6  A    between atoms: C_7  and  C_9
REMARK    7  A    between atoms: C_9  and  C_10
REMARK    8  A    between atoms: C_9  and  C_11
REMARK    9  A    between atoms: C_14  and  O_15
REMARK   10  A    between atoms: O_15  and  C_16
REMARK   11  A    between atoms: C_22  and  O_24
REMARK   12  A    between atoms: O_24  and  C_25
REMARK   13  A    between atoms: C_25  and  C_26
REMARK   14  A    between atoms: C_25  and  C_27
REMARK   15  A    between atoms: C_25  and  C_28
REMARK                            x       y       z     vdW  Elec       q    Type
REMARK                         _______ _______ _______ _____ _____    ______ ____
ROOT
ATOM      1  C   UNL     1       2.271   5.440  19.718  0.00  0.00    +0.000 C 
ATOM      2  C   UNL     1       1.906   5.510  18.210  0.00  0.00    +0.000 C 
ATOM      3  C   UNL     1       2.334   4.257  17.455  0.00  0.00    +0.000 C 
ATOM      4  N   UNL     1       3.752   3.997  17.663  0.00  0.00    +0.000 N 
ATOM      5  C   UNL     1       4.613   4.072  16.582  0.00  0.00    +0.000 C 
ATOM      6  O   UNL     1       4.221   4.330  15.454  0.00  0.00    +0.000 OA
ATOM      7  C   UNL     1       4.172   3.830  19.046  0.00  0.00    +0.000 C 
ATOM      8  C   UNL     1       3.770   5.055  19.863  0.00  0.00    +0.000 C 
ENDROOT
BRANCH   1   9
ATOM      9  C   UNL     1       1.379   4.397  20.443  0.00  0.00    +0.000 C 
BRANCH   9  11
ATOM     10  C   UNL     1       1.870   2.508  21.776  0.00  0.00    +0.000 C 
ATOM     11  O   UNL     1       2.035   3.912  21.616  0.00  0.00    +0.000 OA
ENDBRANCH   9  11
ENDBRANCH   1   9
BRANCH   1  12
ATOM     12  C   UNL     1       2.029   6.848  20.317  0.00  0.00    +0.000 C 
BRANCH  12  13
ATOM     13  N   UNL     1       1.690   7.828  19.304  0.00  0.00    +0.000 N 
ATOM     14  C   UNL     1       1.272   9.110  19.580  0.00  0.00    +0.000 C 
ATOM     15  O   UNL     1       1.132   9.528  20.728  0.00  0.00    +0.000 OA
ATOM     16  H   UNL     1       1.729   7.508  18.350  0.00  0.00    +0.000 HD
BRANCH  14  17
ATOM     17  C   UNL     1       0.945   9.983  18.362  0.00  0.00    +0.000 C 
ATOM     18  C   UNL     1       1.958  11.113  18.163  0.00  0.00    +0.000 C 
BRANCH  17  19
ATOM     19  C   UNL     1      -0.478  10.519  18.381  0.00  0.00    +0.000 A 
ATOM     20  C   UNL     1      -1.455   9.932  17.567  0.00  0.00    +0.000 A 
ATOM     21  C   UNL     1      -2.754  10.445  17.538  0.00  0.00    +0.000 A 
ATOM     22  C   UNL     1      -3.111  11.523  18.350  0.00  0.00    +0.000 A 
ATOM     23  C   UNL     1      -2.146  12.114  19.162  0.00  0.00    +0.000 A 
ATOM     24  C   UNL     1      -0.844  11.624  19.165  0.00  0.00    +0.000 A 
BRANCH  22  25
ATOM     25  O   UNL     1      -4.403  11.951  18.243  0.00  0.00    +0.000 OA
ATOM     26  C   UNL     1      -5.343  10.945  17.878  0.00  0.00    +0.000 C 
ENDBRANCH  22  25
ENDBRANCH  17  19
ENDBRANCH  14  17
ENDBRANCH  12  13
ENDBRANCH   1  12
BRANCH   5  27
ATOM     27  O   UNL     1       5.916   3.802  16.894  0.00  0.00    +0.000 OA
BRANCH  27  28
ATOM     28  C   UNL     1       6.870   4.901  16.924  0.00  0.00    +0.000 C 
ATOM     29  C   UNL     1       7.985   4.647  17.949  0.00  0.00    +0.000 C 
ATOM     30  C   UNL     1       7.512   4.963  15.529  0.00  0.00    +0.000 C 
ATOM     31  C   UNL     1       6.154   6.240  17.163  0.00  0.00    +0.000 C 
ENDBRANCH  27  28
ENDBRANCH   5  27
TORSDOF 9
ENDMDL
MODEL 2
REMARK VINA RESULT:      -6.9      0.334      1.224
REMARK  Name = 
REMARK  15 active torsions:
REMARK  status: ('A' for Active; 'I' for Inactive)
REMARK    1  A    between atoms: C_1  and  O_2
REMARK    2  A    between atoms: O_2  and  C_3
REMARK    3  A    between atoms: C_3  and  C_4
REMARK    4  A    between atoms: C_4  and  C_5
REMARK    5  A    between atoms: C_5  and  N_6
REMARK    6  A    between atoms: C_7  and  C_9
REMARK    7  A    between atoms: C_9  and  C_10
REMARK    8  A    between atoms: C_9  and  C_11
REMARK    9  A    between atoms: C_14  and  O_15
REMARK   10  A    between atoms: O_15  and  C_16
REMARK   11  A    between atoms: C_22  and  O_24
REMARK   12  A    between atoms: O_24  and  C_25
REMARK   13  A    between atoms: C_25  and  C_26
REMARK   14  A    between atoms: C_25  and  C_27
REMARK   15  A    between atoms: C_25  and  C_28
REMARK                            x       y       z     vdW  Elec       q    Type
REMARK                         _______ _______ _______ _____ _____    ______ ____
ROOT
ATOM      1  C   UNL     1       2.268   5.577  19.760  0.00  0.00    +0.000 C 
ATOM      2  C   UNL     1       1.901   5.648  18.253  0.00  0.00    +0.000 C 
ATOM      3  C   UNL     1       2.286   4.377  17.505  0.00  0.00    +0.000 C 
ATOM      4  N   UNL     1       3.695   4.073  17.710  0.00  0.00    +0.000 N 
ATOM      5  C   UNL     1       4.555   4.113  16.626  0.00  0.00    +0.000 C 
ATOM      6  O   UNL     1       4.167   4.376  15.498  0.00  0.00    +0.000 OA
ATOM      7  C   UNL     1       4.115   3.902  19.093  0.00  0.00    +0.000 C 
ATOM      8  C   UNL     1       3.755   5.145  19.903  0.00  0.00    +0.000 C 
ENDROOT
BRANCH   1   9
ATOM      9  C   UNL     1       1.346   4.569  20.495  0.00  0.00    +0.000 C 
BRANCH   9  11
ATOM     10  C   UNL     1       1.673   2.580  21.730  0.00  0.00    +0.000 C 
ATOM     11  O   UNL     1       2.051   3.942  21.568  0.00  0.00    +0.000 OA
ENDBRANCH   9  11
ENDBRANCH   1   9
BRANCH   1  12
ATOM     12  C   UNL     1       2.074   6.997  20.350  0.00  0.00    +0.000 C 
BRANCH  12  13
ATOM     13  N   UNL     1       1.803   7.987  19.327  0.00  0.00    +0.000 N 
ATOM     14  C   UNL     1       1.175   9.188  19.564  0.00  0.00    +0.000 C 
ATOM     15  O   UNL     1       0.770   9.516  20.678  0.00  0.00    +0.000 OA
ATOM     16  H   UNL     1       2.060   7.733  18.387  0.00  0.00    +0.000 HD
BRANCH  14  17
ATOM     17  C   UNL     1       0.967  10.087  18.338  0.00  0.00    +0.000 C 
ATOM     18  C   UNL     1       1.848  11.338  18.373  0.00  0.00    +0.000 C 
BRANCH  17  19
ATOM     19  C   UNL     1      -0.492  10.450  18.109  0.00  0.00    +0.000 A 
ATOM     20  C   UNL     1      -1.025  11.602  18.703  0.00  0.00    +0.000 A 
ATOM     21  C   UNL     1      -2.375  11.921  18.541  0.00  0.00    +0.000 A 
ATOM     22  C   UNL     1      -3.205  11.124  17.751  0.00  0.00    +0.000 A 
ATOM     23  C   UNL     1      -2.684   9.977  17.157  0.00  0.00    +0.000 A 
ATOM     24  C   UNL     1      -1.347   9.640  17.347  0.00  0.00    +0.000 A 
BRANCH  22  25
ATOM     25  O   UNL     1      -4.508  11.520  17.661  0.00  0.00    +0.000 OA
ATOM     26  C   UNL     1      -5.412  10.817  18.508  0.00  0.00    +0.000 C 
ENDBRANCH  22  25
ENDBRANCH  17  19
ENDBRANCH  14  17
ENDBRANCH  12  13
ENDBRANCH   1  12
BRANCH   5  27
ATOM     27  O   UNL     1       5.849   3.803  16.936  0.00  0.00    +0.000 OA
BRANCH  27  28
ATOM     28  C   UNL     1       6.858   4.849  16.851  0.00  0.00    +0.000 C 
ATOM     29  C   UNL     1       7.454   4.939  15.439  0.00  0.00    +0.000 C 
ATOM     30  C   UNL     1       6.140   6.176  17.150  0.00  0.00    +0.000 C 
ATOM     31  C   UNL     1       7.937   4.655  17.927  0.00  0.00    +0.000 C 
ENDBRANCH  27  28
ENDBRANCH   5  27
TORSDOF 9
ENDMDL
MODEL 3
REMARK VINA RESULT:      -6.6      2.324      4.786
REMARK  Name = 
REMARK  15 active torsions:
REMARK  status: ('A' for Active; 'I' for Inactive)
REMARK    1  A    between atoms: C_1  and  O_2
REMARK    2  A    between atoms: O_2  and  C_3
REMARK    3  A    between atoms: C_3  and  C_4
REMARK    4  A    between atoms: C_4  and  C_5
REMARK    5  A    between atoms: C_5  and  N_6
REMARK    6  A    between atoms: C_7  and  C_9
REMARK    7  A    between atoms: C_9  and  C_10
REMARK    8  A    between atoms: C_9  and  C_11
REMARK    9  A    between atoms: C_14  and  O_15
REMARK   10  A    between atoms: O_15  and  C_16
REMARK   11  A    between atoms: C_22  and  O_24
REMARK   12  A    between atoms: O_24  and  C_25
REMARK   13  A    between atoms: C_25  and  C_26
REMARK   14  A    between atoms: C_25  and  C_27
REMARK   15  A    between atoms: C_25  and  C_28
REMARK                            x       y       z     vdW  Elec       q    Type
REMARK                         _______ _______ _______ _____ _____    ______ ____
ROOT
ATOM      1  C   UNL     1       4.314   6.271  17.303  0.00  0.00    +0.000 C 
ATOM      2  C   UNL     1       5.380   5.873  18.359  0.00  0.00    +0.000 C 
ATOM      3  C   UNL     1       5.641   4.371  18.378  0.00  0.00    +0.000 C 
ATOM      4  N   UNL     1       4.394   3.641  18.557  0.00  0.00    +0.000 N 
ATOM      5  C   UNL     1       4.213   2.897  19.710  0.00  0.00    +0.000 C 
ATOM      6  O   UNL     1       5.072   2.817  20.575  0.00  0.00    +0.000 OA
ATOM      7  C   UNL     1       3.363   3.886  17.560  0.00  0.00    +0.000 C 
ATOM      8  C   UNL     1       3.054   5.379  17.488  0.00  0.00    +0.000 C 
ENDROOT
BRANCH   1   9
ATOM      9  C   UNL     1       4.883   6.101  15.869  0.00  0.00    +0.000 C 
BRANCH   9  11
ATOM     10  C   UNL     1       6.884   5.129  15.071  0.00  0.00    +0.000 C 
ATOM     11  O   UNL     1       6.311   6.138  15.894  0.00  0.00    +0.000 OA
ENDBRANCH   9  11
ENDBRANCH   1   9
BRANCH   1  12
ATOM     12  C   UNL     1       3.948   7.756  17.553  0.00  0.00    +0.000 C 
BRANCH  12  13
ATOM     13  N   UNL     1       2.551   7.928  17.901  0.00  0.00    +0.000 N 
ATOM     14  C   UNL     1       1.892   9.136  17.867  0.00  0.00    +0.000 C 
ATOM     15  O   UNL     1       2.448  10.186  17.552  0.00  0.00    +0.000 OA
ATOM     16  H   UNL     1       2.072   7.104  18.226  0.00  0.00    +0.000 HD
BRANCH  14  17
ATOM     17  C   UNL     1       0.418   9.105  18.291  0.00  0.00    +0.000 C 
ATOM     18  C   UNL     1      -0.524   9.542  17.167  0.00  0.00    +0.000 C 
BRANCH  17  19
ATOM     19  C   UNL     1       0.151   9.888  19.566  0.00  0.00    +0.000 A 
ATOM     20  C   UNL     1       0.702   9.454  20.779  0.00  0.00    +0.000 A 
ATOM     21  C   UNL     1       0.425  10.136  21.966  0.00  0.00    +0.000 A 
ATOM     22  C   UNL     1      -0.369  11.283  21.959  0.00  0.00    +0.000 A 
ATOM     23  C   UNL     1      -0.922  11.722  20.758  0.00  0.00    +0.000 A 
ATOM     24  C   UNL     1      -0.674  11.022  19.581  0.00  0.00    +0.000 A 
BRANCH  22  25
ATOM     25  O   UNL     1      -0.582  11.872  23.172  0.00  0.00    +0.000 OA
ATOM     26  C   UNL     1      -1.657  12.807  23.207  0.00  0.00    +0.000 C 
ENDBRANCH  22  25
ENDBRANCH  17  19
ENDBRANCH  14  17
ENDBRANCH  12  13
ENDBRANCH   1  12
BRANCH   5  27
ATOM     27  O   UNL     1       3.011   2.249  19.767  0.00  0.00    +0.000 OA
BRANCH  27  28
ATOM     28  C   UNL     1       1.906   2.886  20.468  0.00  0.00    +0.000 C 
ATOM     29  C   UNL     1       0.602   2.792  19.661  0.00  0.00    +0.000 C 
ATOM     30  C   UNL     1       1.710   2.106  21.778  0.00  0.00    +0.000 C 
ATOM     31  C   UNL     1       2.256   4.335  20.840  0.00  0.00    +0.000 C 
ENDBRANCH  27  28
ENDBRANCH   5  27
TORSDOF 9
ENDMDL
MODEL 4
REMARK VINA RESULT:      -6.5      2.332      4.775
REMARK  Name = 
REMARK  15 active torsions:
REMARK  status: ('A' for Active; 'I' for Inactive)
REMARK    1  A    between atoms: C_1  and  O_2
REMARK    2  A    between atoms: O_2  and  C_3
REMARK    3  A    between atoms: C_3  and  C_4
REMARK    4  A    between atoms: C_4  and  C_5
REMARK    5  A    between atoms: C_5  and  N_6
REMARK    6  A    between atoms: C_7  and  C_9
REMARK    7  A    between atoms: C_9  and  C_10
REMARK    8  A    between atoms: C_9  and  C_11
REMARK    9  A    between atoms: C_14  and  O_15
REMARK   10  A    between atoms: O_15  and  C_16
REMARK   11  A    between atoms: C_22  and  O_24
REMARK   12  A    between atoms: O_24  and  C_25
REMARK   13  A    between atoms: C_25  and  C_26
REMARK   14  A    between atoms: C_25  and  C_27
REMARK   15  A    between atoms: C_25  and  C_28
REMARK                            x       y       z     vdW  Elec       q    Type
REMARK                         _______ _______ _______ _____ _____    ______ ____
ROOT
ATOM      1  C   UNL     1       4.275   6.502  17.332  0.00  0.00    +0.000 C 
ATOM      2  C   UNL     1       5.341   6.087  18.382  0.00  0.00    +0.000 C 
ATOM      3  C   UNL     1       5.619   4.588  18.361  0.00  0.00    +0.000 C 
ATOM      4  N   UNL     1       4.379   3.840  18.515  0.00  0.00    +0.000 N 
ATOM      5  C   UNL     1       4.201   3.063  19.647  0.00  0.00    +0.000 C 
ATOM      6  O   UNL     1       5.057   2.970  20.513  0.00  0.00    +0.000 OA
ATOM      7  C   UNL     1       3.350   4.100  17.520  0.00  0.00    +0.000 C 
ATOM      8  C   UNL     1       3.024   5.591  17.487  0.00  0.00    +0.000 C 
ENDROOT
BRANCH   1   9
ATOM      9  C   UNL     1       4.852   6.376  15.896  0.00  0.00    +0.000 C 
BRANCH   9  11
ATOM     10  C   UNL     1       6.703   5.227  14.979  0.00  0.00    +0.000 C 
ATOM     11  O   UNL     1       6.266   6.176  15.945  0.00  0.00    +0.000 OA
ENDBRANCH   9  11
ENDBRANCH   1   9
BRANCH   1  12
ATOM     12  C   UNL     1       3.892   7.976  17.619  0.00  0.00    +0.000 C 
BRANCH  12  13
ATOM     13  N   UNL     1       2.494   8.122  17.974  0.00  0.00    +0.000 N 
ATOM     14  C   UNL     1       1.811   9.317  17.937  0.00  0.00    +0.000 C 
ATOM     15  O   UNL     1       2.345  10.376  17.614  0.00  0.00    +0.000 OA
ATOM     16  H   UNL     1       2.033   7.291  18.305  0.00  0.00    +0.000 HD
BRANCH  14  17
ATOM     17  C   UNL     1       0.340   9.259  18.370  0.00  0.00    +0.000 C 
ATOM     18  C   UNL     1      -0.612   9.740  17.272  0.00  0.00    +0.000 C 
BRANCH  17  19
ATOM     19  C   UNL     1       0.078   9.984  19.680  0.00  0.00    +0.000 A 
ATOM     20  C   UNL     1      -0.120  11.371  19.681  0.00  0.00    +0.000 A 
ATOM     21  C   UNL     1      -0.313  12.057  20.883  0.00  0.00    +0.000 A 
ATOM     22  C   UNL     1      -0.356  11.368  22.096  0.00  0.00    +0.000 A 
ATOM     23  C   UNL     1      -0.160   9.989  22.105  0.00  0.00    +0.000 A 
ATOM     24  C   UNL     1       0.067   9.311  20.911  0.00  0.00    +0.000 A 
BRANCH  22  25
ATOM     25  O   UNL     1      -0.546  12.131  23.212  0.00  0.00    +0.000 OA
ATOM     26  C   UNL     1      -1.747  12.898  23.220  0.00  0.00    +0.000 C 
ENDBRANCH  22  25
ENDBRANCH  17  19
ENDBRANCH  14  17
ENDBRANCH  12  13
ENDBRANCH   1  12
BRANCH   5  27
ATOM     27  O   UNL     1       3.005   2.402  19.681  0.00  0.00    +0.000 OA
BRANCH  27  28
ATOM     28  C   UNL     1       1.926   2.947  20.490  0.00  0.00    +0.000 C 
ATOM     29  C   UNL     1       2.129   4.446  20.758  0.00  0.00    +0.000 C 
ATOM     30  C   UNL     1       0.636   2.781  19.671  0.00  0.00    +0.000 C 
ATOM     31  C   UNL     1       1.757   2.143  21.789  0.00  0.00    +0.000 C 
ENDBRANCH  27  28
ENDBRANCH   5  27
TORSDOF 9
ENDMDL
MODEL 5
REMARK VINA RESULT:      -6.5      1.723      4.375
REMARK  Name = 
REMARK  15 active torsions:
REMARK  status: ('A' for Active; 'I' for Inactive)
REMARK    1  A    between atoms: C_1  and  O_2
REMARK    2  A    between atoms: O_2  and  C_3
REMARK    3  A    between atoms: C_3  and  C_4
REMARK    4  A    between atoms: C_4  and  C_5
REMARK    5  A    between atoms: C_5  and  N_6
REMARK    6  A    between atoms: C_7  and  C_9
REMARK    7  A    between atoms: C_9  and  C_10
REMARK    8  A    between atoms: C_9  and  C_11
REMARK    9  A    between atoms: C_14  and  O_15
REMARK   10  A    between atoms: O_15  and  C_16
REMARK   11  A    between atoms: C_22  and  O_24
REMARK   12  A    between atoms: O_24  and  C_25
REMARK   13  A    between atoms: C_25  and  C_26
REMARK   14  A    between atoms: C_25  and  C_27
REMARK   15  A    between atoms: C_25  and  C_28
REMARK                            x       y       z     vdW  Elec       q    Type
REMARK                         _______ _______ _______ _____ _____    ______ ____
ROOT
ATOM      1  C   UNL     1       4.507   6.008  16.932  0.00  0.00    +0.000 C 
ATOM      2  C   UNL     1       5.541   5.716  18.052  0.00  0.00    +0.000 C 
ATOM      3  C   UNL     1       5.772   4.222  18.249  0.00  0.00    +0.000 C 
ATOM      4  N   UNL     1       4.507   3.539  18.481  0.00  0.00    +0.000 N 
ATOM      5  C   UNL     1       4.286   2.936  19.707  0.00  0.00    +0.000 C 
ATOM      6  O   UNL     1       5.124   2.942  20.596  0.00  0.00    +0.000 OA
ATOM      7  C   UNL     1       3.503   3.685  17.438  0.00  0.00    +0.000 C 
ATOM      8  C   UNL     1       3.225   5.165  17.187  0.00  0.00    +0.000 C 
ENDROOT
BRANCH   1   9
ATOM      9  C   UNL     1       5.103   5.664  15.541  0.00  0.00    +0.000 C 
BRANCH   9  11
ATOM     10  C   UNL     1       7.213   4.955  14.745  0.00  0.00    +0.000 C 
ATOM     11  O   UNL     1       6.510   5.912  15.528  0.00  0.00    +0.000 OA
ENDBRANCH   9  11
ENDBRANCH   1   9
BRANCH   1  12
ATOM     12  C   UNL     1       4.165   7.518  17.000  0.00  0.00    +0.000 C 
BRANCH  12  13
ATOM     13  N   UNL     1       3.315   7.840  18.130  0.00  0.00    +0.000 N 
ATOM     14  C   UNL     1       2.470   8.925  18.173  0.00  0.00    +0.000 C 
ATOM     15  O   UNL     1       2.379   9.733  17.250  0.00  0.00    +0.000 OA
ATOM     16  H   UNL     1       3.404   7.241  18.934  0.00  0.00    +0.000 HD
BRANCH  14  17
ATOM     17  C   UNL     1       1.669   9.097  19.471  0.00  0.00    +0.000 C 
ATOM     18  C   UNL     1       1.472   7.775  20.216  0.00  0.00    +0.000 C 
BRANCH  17  19
ATOM     19  C   UNL     1       0.343   9.811  19.260  0.00  0.00    +0.000 A 
ATOM     20  C   UNL     1      -0.323   9.695  18.033  0.00  0.00    +0.000 A 
ATOM     21  C   UNL     1      -1.517  10.384  17.809  0.00  0.00    +0.000 A 
ATOM     22  C   UNL     1      -2.088  11.165  18.815  0.00  0.00    +0.000 A 
ATOM     23  C   UNL     1      -1.432  11.287  20.038  0.00  0.00    +0.000 A 
ATOM     24  C   UNL     1      -0.225  10.627  20.249  0.00  0.00    +0.000 A 
BRANCH  22  25
ATOM     25  O   UNL     1      -3.252  11.800  18.493  0.00  0.00    +0.000 OA
ATOM     26  C   UNL     1      -3.870  12.506  19.566  0.00  0.00    +0.000 C 
ENDBRANCH  22  25
ENDBRANCH  17  19
ENDBRANCH  14  17
ENDBRANCH  12  13
ENDBRANCH   1  12
BRANCH   5  27
ATOM     27  O   UNL     1       3.070   2.321  19.809  0.00  0.00    +0.000 OA
BRANCH  27  28
ATOM     28  C   UNL     1       2.002   2.996  20.531  0.00  0.00    +0.000 C 
ATOM     29  C   UNL     1       2.343   4.471  20.784  0.00  0.00    +0.000 C 
ATOM     30  C   UNL     1       0.760   2.944  19.626  0.00  0.00    +0.000 C 
ATOM     31  C   UNL     1       1.660   2.246  21.828  0.00  0.00    +0.000 C 
ENDBRANCH  27  28
ENDBRANCH   5  27
TORSDOF 9
ENDMDL
MODEL 6
REMARK VINA RESULT:      -6.4      2.399      8.189
REMARK  Name = 
REMARK  15 active torsions:
REMARK  status: ('A' for Active; 'I' for Inactive)
REMARK    1  A    between atoms: C_1  and  O_2
REMARK    2  A    between atoms: O_2  and  C_3
REMARK    3  A    between atoms: C_3  and  C_4
REMARK    4  A    between atoms: C_4  and  C_5
REMARK    5  A    between atoms: C_5  and  N_6
REMARK    6  A    between atoms: C_7  and  C_9
REMARK    7  A    between atoms: C_9  and  C_10
REMARK    8  A    between atoms: C_9  and  C_11
REMARK    9  A    between atoms: C_14  and  O_15
REMARK   10  A    between atoms: O_15  and  C_16
REMARK   11  A    between atoms: C_22  and  O_24
REMARK   12  A    between atoms: O_24  and  C_25
REMARK   13  A    between atoms: C_25  and  C_26
REMARK   14  A    between atoms: C_25  and  C_27
REMARK   15  A    between atoms: C_25  and  C_28
REMARK                            x       y       z     vdW  Elec       q    Type
REMARK                         _______ _______ _______ _____ _____    ______ ____
ROOT
ATOM      1  C   UNL     1       2.841   5.393  19.552  0.00  0.00    +0.000 C 
ATOM      2  C   UNL     1       2.173   5.538  20.946  0.00  0.00    +0.000 C 
ATOM      3  C   UNL     1       0.944   6.439  20.906  0.00  0.00    +0.000 C 
ATOM      4  N   UNL     1       1.280   7.731  20.325  0.00  0.00    +0.000 N 
ATOM      5  C   UNL     1       1.197   8.864  21.115  0.00  0.00    +0.000 C 
ATOM      6  O   UNL     1       0.833   8.819  22.280  0.00  0.00    +0.000 OA
ATOM      7  C   UNL     1       1.833   7.699  18.980  0.00  0.00    +0.000 C 
ATOM      8  C   UNL     1       3.072   6.807  18.948  0.00  0.00    +0.000 C 
ENDROOT
BRANCH   1   9
ATOM      9  C   UNL     1       1.945   4.549  18.607  0.00  0.00    +0.000 C 
BRANCH   9  11
ATOM     10  C   UNL     1       1.039   2.384  18.888  0.00  0.00    +0.000 C 
ATOM     11  O   UNL     1       2.227   3.157  18.768  0.00  0.00    +0.000 OA
ENDBRANCH   9  11
ENDBRANCH   1   9
BRANCH   1  12
ATOM     12  C   UNL     1       4.202   4.683  19.764  0.00  0.00    +0.000 C 
BRANCH  12  13
ATOM     13  N   UNL     1       5.165   5.021  18.734  0.00  0.00    +0.000 N 
ATOM     14  C   UNL     1       6.485   5.323  18.983  0.00  0.00    +0.000 C 
ATOM     15  O   UNL     1       6.956   5.350  20.119  0.00  0.00    +0.000 OA
ATOM     16  H   UNL     1       4.808   5.073  17.795  0.00  0.00    +0.000 HD
BRANCH  14  17
ATOM     17  C   UNL     1       7.334   5.671  17.754  0.00  0.00    +0.000 C 
ATOM     18  C   UNL     1       7.728   7.150  17.714  0.00  0.00    +0.000 C 
BRANCH  17  19
ATOM     19  C   UNL     1       6.690   5.240  16.446  0.00  0.00    +0.000 A 
ATOM     20  C   UNL     1       7.157   4.098  15.783  0.00  0.00    +0.000 A 
ATOM     21  C   UNL     1       6.608   3.718  14.556  0.00  0.00    +0.000 A 
ATOM     22  C   UNL     1       5.557   4.443  13.992  0.00  0.00    +0.000 A 
ATOM     23  C   UNL     1       5.086   5.580  14.645  0.00  0.00    +0.000 A 
ATOM     24  C   UNL     1       5.657   5.978  15.850  0.00  0.00    +0.000 A 
BRANCH  22  25
ATOM     25  O   UNL     1       5.094   3.991  12.790  0.00  0.00    +0.000 OA
ATOM     26  C   UNL     1       5.981   3.124  12.090  0.00  0.00    +0.000 C 
ENDBRANCH  22  25
ENDBRANCH  17  19
ENDBRANCH  14  17
ENDBRANCH  12  13
ENDBRANCH   1  12
BRANCH   5  27
ATOM     27  O   UNL     1       1.528  10.018  20.463  0.00  0.00    +0.000 OA
BRANCH  27  28
ATOM     28  C   UNL     1       0.487  11.004  20.213  0.00  0.00    +0.000 C 
ATOM     29  C   UNL     1       0.238  11.881  21.449  0.00  0.00    +0.000 C 
ATOM     30  C   UNL     1       1.003  11.911  19.083  0.00  0.00    +0.000 C 
ATOM     31  C   UNL     1      -0.798  10.327  19.712  0.00  0.00    +0.000 C 
ENDBRANCH  27  28
ENDBRANCH   5  27
TORSDOF 9
ENDMDL
MODEL 7
REMARK VINA RESULT:      -6.3      3.034     10.125
REMARK  Name = 
REMARK  15 active torsions:
REMARK  status: ('A' for Active; 'I' for Inactive)
REMARK    1  A    between atoms: C_1  and  O_2
REMARK    2  A    between atoms: O_2  and  C_3
REMARK    3  A    between atoms: C_3  and  C_4
REMARK    4  A    between atoms: C_4  and  C_5
REMARK    5  A    between atoms: C_5  and  N_6
REMARK    6  A    between atoms: C_7  and  C_9
REMARK    7  A    between atoms: C_9  and  C_10
REMARK    8  A    between atoms: C_9  and  C_11
REMARK    9  A    between atoms: C_14  and  O_15
REMARK   10  A    between atoms: O_15  and  C_16
REMARK   11  A    between atoms: C_22  and  O_24
REMARK   12  A    between atoms: O_24  and  C_25
REMARK   13  A    between atoms: C_25  and  C_26
REMARK   14  A    between atoms: C_25  and  C_27
REMARK   15  A    between atoms: C_25  and  C_28
REMARK                            x       y       z     vdW  Elec       q    Type
REMARK                         _______ _______ _______ _____ _____    ______ ____
ROOT
ATOM      1  C   UNL     1      -0.245  11.192  20.188  0.00  0.00    +0.000 C 
ATOM      2  C   UNL     1      -1.676  10.906  19.658  0.00  0.00    +0.000 C 
ATOM      3  C   UNL     1      -2.443  12.185  19.345  0.00  0.00    +0.000 C 
ATOM      4  N   UNL     1      -2.456  13.066  20.505  0.00  0.00    +0.000 N 
ATOM      5  C   UNL     1      -3.663  13.345  21.121  0.00  0.00    +0.000 C 
ATOM      6  O   UNL     1      -4.722  12.893  20.713  0.00  0.00    +0.000 OA
ATOM      7  C   UNL     1      -1.153  13.460  21.020  0.00  0.00    +0.000 C 
ATOM      8  C   UNL     1      -0.328  12.219  21.353  0.00  0.00    +0.000 C 
ENDROOT
BRANCH   1   9
ATOM      9  C   UNL     1       0.653  11.747  19.050  0.00  0.00    +0.000 C 
BRANCH   9  11
ATOM     10  C   UNL     1       2.335  13.408  19.063  0.00  0.00    +0.000 C 
ATOM     11  O   UNL     1       1.924  12.144  19.569  0.00  0.00    +0.000 OA
ENDBRANCH   9  11
ENDBRANCH   1   9
BRANCH   1  12
ATOM     12  C   UNL     1       0.332   9.852  20.709  0.00  0.00    +0.000 C 
BRANCH  12  13
ATOM     13  N   UNL     1       1.254   9.246  19.768  0.00  0.00    +0.000 N 
ATOM     14  C   UNL     1       1.778   7.981  19.907  0.00  0.00    +0.000 C 
ATOM     15  O   UNL     1       1.515   7.257  20.866  0.00  0.00    +0.000 OA
ATOM     16  H   UNL     1       1.546   9.828  19.000  0.00  0.00    +0.000 HD
BRANCH  14  17
ATOM     17  C   UNL     1       2.751   7.536  18.809  0.00  0.00    +0.000 C 
ATOM     18  C   UNL     1       2.575   8.331  17.513  0.00  0.00    +0.000 C 
BRANCH  17  19
ATOM     19  C   UNL     1       2.704   6.039  18.545  0.00  0.00    +0.000 A 
ATOM     20  C   UNL     1       3.808   5.239  18.870  0.00  0.00    +0.000 A 
ATOM     21  C   UNL     1       3.797   3.871  18.588  0.00  0.00    +0.000 A 
ATOM     22  C   UNL     1       2.674   3.271  18.018  0.00  0.00    +0.000 A 
ATOM     23  C   UNL     1       1.572   4.058  17.691  0.00  0.00    +0.000 A 
ATOM     24  C   UNL     1       1.596   5.427  17.941  0.00  0.00    +0.000 A 
BRANCH  22  25
ATOM     25  O   UNL     1       2.767   1.930  17.779  0.00  0.00    +0.000 OA
ATOM     26  C   UNL     1       3.735   1.244  18.566  0.00  0.00    +0.000 C 
ENDBRANCH  22  25
ENDBRANCH  17  19
ENDBRANCH  14  17
ENDBRANCH  12  13
ENDBRANCH   1  12
BRANCH   5  27
ATOM     27  O   UNL     1      -3.555  14.186  22.193  0.00  0.00    +0.000 OA
BRANCH  27  28
ATOM     28  C   UNL     1      -3.801  13.657  23.525  0.00  0.00    +0.000 C 
ATOM     29  C   UNL     1      -3.155  14.536  24.606  0.00  0.00    +0.000 C 
ATOM     30  C   UNL     1      -5.324  13.688  23.736  0.00  0.00    +0.000 C 
ATOM     31  C   UNL     1      -3.352  12.191  23.623  0.00  0.00    +0.000 C 
ENDBRANCH  27  28
ENDBRANCH   5  27
TORSDOF 9
ENDMDL
MODEL 8
REMARK VINA RESULT:      -6.2      2.831     10.249
REMARK  Name = 
REMARK  15 active torsions:
REMARK  status: ('A' for Active; 'I' for Inactive)
REMARK    1  A    between atoms: C_1  and  O_2
REMARK    2  A    between atoms: O_2  and  C_3
REMARK    3  A    between atoms: C_3  and  C_4
REMARK    4  A    between atoms: C_4  and  C_5
REMARK    5  A    between atoms: C_5  and  N_6
REMARK    6  A    between atoms: C_7  and  C_9
REMARK    7  A    between atoms: C_9  and  C_10
REMARK    8  A    between atoms: C_9  and  C_11
REMARK    9  A    between atoms: C_14  and  O_15
REMARK   10  A    between atoms: O_15  and  C_16
REMARK   11  A    between atoms: C_22  and  O_24
REMARK   12  A    between atoms: O_24  and  C_25
REMARK   13  A    between atoms: C_25  and  C_26
REMARK   14  A    between atoms: C_25  and  C_27
REMARK   15  A    between atoms: C_25  and  C_28
REMARK                            x       y       z     vdW  Elec       q    Type
REMARK                         _______ _______ _______ _____ _____    ______ ____
ROOT
ATOM      1  C   UNL     1      -0.397  11.148  20.832  0.00  0.00    +0.000 C 
ATOM      2  C   UNL     1      -1.214  11.033  19.517  0.00  0.00    +0.000 C 
ATOM      3  C   UNL     1      -2.018  12.295  19.225  0.00  0.00    +0.000 C 
ATOM      4  N   UNL     1      -2.860  12.635  20.364  0.00  0.00    +0.000 N 
ATOM      5  C   UNL     1      -4.236  12.589  20.218  0.00  0.00    +0.000 C 
ATOM      6  O   UNL     1      -4.768  12.290  19.159  0.00  0.00    +0.000 OA
ATOM      7  C   UNL     1      -2.169  12.848  21.626  0.00  0.00    +0.000 C 
ATOM      8  C   UNL     1      -1.338  11.616  21.978  0.00  0.00    +0.000 C 
ENDROOT
BRANCH   1   9
ATOM      9  C   UNL     1       0.773  12.153  20.658  0.00  0.00    +0.000 C 
BRANCH   9  11
ATOM     10  C   UNL     1       1.707  13.153  18.731  0.00  0.00    +0.000 C 
ATOM     11  O   UNL     1       1.433  11.934  19.409  0.00  0.00    +0.000 OA
ENDBRANCH   9  11
ENDBRANCH   1   9
BRANCH   1  12
ATOM     12  C   UNL     1       0.162   9.738  21.154  0.00  0.00    +0.000 C 
BRANCH  12  13
ATOM     13  N   UNL     1       1.051   9.249  20.119  0.00  0.00    +0.000 N 
ATOM     14  C   UNL     1       1.598   7.986  20.106  0.00  0.00    +0.000 C 
ATOM     15  O   UNL     1       1.387   7.164  20.996  0.00  0.00    +0.000 OA
ATOM     16  H   UNL     1       1.302   9.911  19.403  0.00  0.00    +0.000 HD
BRANCH  14  17
ATOM     17  C   UNL     1       2.530   7.673  18.929  0.00  0.00    +0.000 C 
ATOM     18  C   UNL     1       2.157   8.449  17.664  0.00  0.00    +0.000 C 
BRANCH  17  19
ATOM     19  C   UNL     1       2.646   6.184  18.644  0.00  0.00    +0.000 A 
ATOM     20  C   UNL     1       1.654   5.538  17.896  0.00  0.00    +0.000 A 
ATOM     21  C   UNL     1       1.723   4.161  17.668  0.00  0.00    +0.000 A 
ATOM     22  C   UNL     1       2.802   3.415  18.144  0.00  0.00    +0.000 A 
ATOM     23  C   UNL     1       3.793   4.048  18.889  0.00  0.00    +0.000 A 
ATOM     24  C   UNL     1       3.706   5.414  19.146  0.00  0.00    +0.000 A 
BRANCH  22  25
ATOM     25  O   UNL     1       2.773   2.078  17.871  0.00  0.00    +0.000 OA
ATOM     26  C   UNL     1       3.773   1.307  18.529  0.00  0.00    +0.000 C 
ENDBRANCH  22  25
ENDBRANCH  17  19
ENDBRANCH  14  17
ENDBRANCH  12  13
ENDBRANCH   1  12
BRANCH   5  27
ATOM     27  O   UNL     1      -4.923  12.934  21.347  0.00  0.00    +0.000 OA
BRANCH  27  28
ATOM     28  C   UNL     1      -5.626  14.208  21.376  0.00  0.00    +0.000 C 
ATOM     29  C   UNL     1      -7.098  14.027  21.773  0.00  0.00    +0.000 C 
ATOM     30  C   UNL     1      -4.943  15.060  22.459  0.00  0.00    +0.000 C 
ATOM     31  C   UNL     1      -5.470  14.949  20.039  0.00  0.00    +0.000 C 
ENDBRANCH  27  28
ENDBRANCH   5  27
TORSDOF 9
ENDMDL
MODEL 9
REMARK VINA RESULT:      -6.2      2.937      9.870
REMARK  Name = 
REMARK  15 active torsions:
REMARK  status: ('A' for Active; 'I' for Inactive)
REMARK    1  A    between atoms: C_1  and  O_2
REMARK    2  A    between atoms: O_2  and  C_3
REMARK    3  A    between atoms: C_3  and  C_4
REMARK    4  A    between atoms: C_4  and  C_5
REMARK    5  A    between atoms: C_5  and  N_6
REMARK    6  A    between atoms: C_7  and  C_9
REMARK    7  A    between atoms: C_9  and  C_10
REMARK    8  A    between atoms: C_9  and  C_11
REMARK    9  A    between atoms: C_14  and  O_15
REMARK   10  A    between atoms: O_15  and  C_16
REMARK   11  A    between atoms: C_22  and  O_24
REMARK   12  A    between atoms: O_24  and  C_25
REMARK   13  A    between atoms: C_25  and  C_26
REMARK   14  A    between atoms: C_25  and  C_27
REMARK   15  A    between atoms: C_25  and  C_28
REMARK                            x       y       z     vdW  Elec       q    Type
REMARK                         _______ _______ _______ _____ _____    ______ ____
ROOT
ATOM      1  C   UNL     1      -0.342  11.592  20.460  0.00  0.00    +0.000 C 
ATOM      2  C   UNL     1      -0.684  11.097  19.028  0.00  0.00    +0.000 C 
ATOM      3  C   UNL     1      -1.673  12.015  18.321  0.00  0.00    +0.000 C 
ATOM      4  N   UNL     1      -2.867  12.199  19.135  0.00  0.00    +0.000 N 
ATOM      5  C   UNL     1      -4.078  11.721  18.667  0.00  0.00    +0.000 C 
ATOM      6  O   UNL     1      -4.184  11.165  17.583  0.00  0.00    +0.000 OA
ATOM      7  C   UNL     1      -2.652  12.744  20.467  0.00  0.00    +0.000 C 
ATOM      8  C   UNL     1      -1.662  11.869  21.233  0.00  0.00    +0.000 C 
ENDROOT
BRANCH   1   9
ATOM      9  C   UNL     1       0.519  12.882  20.395  0.00  0.00    +0.000 C 
BRANCH   9  11
ATOM     10  C   UNL     1       2.154  13.681  18.886  0.00  0.00    +0.000 C 
ATOM     11  O   UNL     1       1.764  12.617  19.746  0.00  0.00    +0.000 OA
ENDBRANCH   9  11
ENDBRANCH   1   9
BRANCH   1  12
ATOM     12  C   UNL     1       0.452  10.463  21.162  0.00  0.00    +0.000 C 
BRANCH  12  13
ATOM     13  N   UNL     1       1.268   9.704  20.235  0.00  0.00    +0.000 N 
ATOM     14  C   UNL     1       1.437   8.339  20.295  0.00  0.00    +0.000 C 
ATOM     15  O   UNL     1       0.915   7.645  21.166  0.00  0.00    +0.000 OA
ATOM     16  H   UNL     1       1.765  10.240  19.543  0.00  0.00    +0.000 HD
BRANCH  14  17
ATOM     17  C   UNL     1       2.357   7.732  19.229  0.00  0.00    +0.000 C 
ATOM     18  C   UNL     1       2.053   8.258  17.824  0.00  0.00    +0.000 C 
BRANCH  17  19
ATOM     19  C   UNL     1       2.373   6.212  19.254  0.00  0.00    +0.000 A 
ATOM     20  C   UNL     1       2.389   5.495  18.050  0.00  0.00    +0.000 A 
ATOM     21  C   UNL     1       2.354   4.099  18.058  0.00  0.00    +0.000 A 
ATOM     22  C   UNL     1       2.345   3.394  19.262  0.00  0.00    +0.000 A 
ATOM     23  C   UNL     1       2.328   4.097  20.464  0.00  0.00    +0.000 A 
ATOM     24  C   UNL     1       2.328   5.489  20.456  0.00  0.00    +0.000 A 
BRANCH  22  25
ATOM     25  O   UNL     1       2.306   2.033  19.160  0.00  0.00    +0.000 OA
ATOM     26  C   UNL     1       3.394   1.451  18.448  0.00  0.00    +0.000 C 
ENDBRANCH  22  25
ENDBRANCH  17  19
ENDBRANCH  14  17
ENDBRANCH  12  13
ENDBRANCH   1  12
BRANCH   5  27
ATOM     27  O   UNL     1      -5.128  11.956  19.509  0.00  0.00    +0.000 OA
BRANCH  27  28
ATOM     28  C   UNL     1      -6.482  11.814  18.996  0.00  0.00    +0.000 C 
ATOM     29  C   UNL     1      -6.874  10.337  18.849  0.00  0.00    +0.000 C 
ATOM     30  C   UNL     1      -7.416  12.453  20.038  0.00  0.00    +0.000 C 
ATOM     31  C   UNL     1      -6.653  12.594  17.683  0.00  0.00    +0.000 C 
ENDBRANCH  27  28
ENDBRANCH   5  27
TORSDOF 9
ENDMDL
