MODEL 1
REMARK VINA RESULT:      -8.5      0.000      0.000
REMARK  Name = 
REMARK  8 active torsions:
REMARK  status: ('A' for Active; 'I' for Inactive)
REMARK    1  A    between atoms: C_2  and  C_3
REMARK    2  A    between atoms: C_3  and  S_4
REMARK    3  A    between atoms: S_4  and  C_5
REMARK    4  A    between atoms: N_7  and  C_8
REMARK    5  A    between atoms: C_8  and  C_9
REMARK    6  A    between atoms: C_9  and  N_10
REMARK    7  A    between atoms: C_11  and  C_13
REMARK    8  A    between atoms: N_26  and  C_27
REMARK                            x       y       z     vdW  Elec       q    Type
REMARK                         _______ _______ _______ _____ _____    ______ ____
ROOT
ATOM      1  C   UNL     1       4.913   5.620  18.705  0.00  0.00    +0.000 A 
ATOM      2  C   UNL     1       4.429   6.814  18.222  0.00  0.00    +0.000 A 
ATOM      3  N   UNL     1       3.120   6.625  17.853  0.00  0.00    +0.000 N 
ATOM      4  C   UNL     1       2.748   5.309  18.102  0.00  0.00    +0.000 A 
ATOM      5  C   UNL     1       1.518   4.652  17.936  0.00  0.00    +0.000 A 
ATOM      6  C   UNL     1       1.432   3.300  18.293  0.00  0.00    +0.000 A 
ATOM      7  C   UNL     1       2.538   2.627  18.797  0.00  0.00    +0.000 A 
ATOM      8  C   UNL     1       3.757   3.290  18.969  0.00  0.00    +0.000 A 
ATOM      9  C   UNL     1       3.872   4.656  18.625  0.00  0.00    +0.000 A 
ENDROOT
BRANCH   1  10
ATOM     10  S   UNL     1       6.498   5.377  19.410  0.00  0.00    +0.000 S 
BRANCH  10  11
ATOM     11  C   UNL     1       7.561   6.015  18.085  0.00  0.00    +0.000 C 
BRANCH  11  13
ATOM     12  O   UNL     1       8.058   3.994  16.918  0.00  0.00    +0.000 OA
ATOM     13  C   UNL     1       7.581   5.126  16.842  0.00  0.00    +0.000 C 
ATOM     14  N   UNL     1       6.984   5.655  15.711  0.00  0.00    +0.000 N 
ATOM     15  H   UNL     1       6.827   6.661  15.712  0.00  0.00    +0.000 HD
BRANCH  14  16
ATOM     16  C   UNL     1       6.822   5.010  14.462  0.00  0.00    +0.000 A 
ATOM     17  C   UNL     1       7.710   5.152  13.395  0.00  0.00    +0.000 A 
ATOM     18  C   UNL     1       7.443   4.542  12.162  0.00  0.00    +0.000 A 
ATOM     19  C   UNL     1       6.292   3.774  11.988  0.00  0.00    +0.000 A 
ATOM     20  C   UNL     1       5.425   3.582  13.060  0.00  0.00    +0.000 A 
ATOM     21  C   UNL     1       5.701   4.188  14.287  0.00  0.00    +0.000 A 
ATOM     22  F   UNL     1       4.849   3.999  15.306  0.00  0.00    +0.000 F 
ENDBRANCH  14  16
ENDBRANCH  11  13
ENDBRANCH  10  11
ENDBRANCH   1  10
BRANCH   3  23
ATOM     23  C   UNL     1       2.203   7.654  17.377  0.00  0.00    +0.000 C 
BRANCH  23  24
ATOM     24  C   UNL     1       1.977   8.833  18.330  0.00  0.00    +0.000 C 
BRANCH  24  25
ATOM     25  N   UNL     1       0.664   9.448  18.184  0.00  0.00    +0.000 N 
ATOM     26  C   UNL     1       0.005  10.003  19.262  0.00  0.00    +0.000 C 
ATOM     27  O   UNL     1       0.477  10.047  20.391  0.00  0.00    +0.000 OA
ATOM     28  H   UNL     1       0.280   9.546  17.254  0.00  0.00    +0.000 HD
BRANCH  26  29
ATOM     29  C   UNL     1      -1.318  10.621  18.982  0.00  0.00    +0.000 A 
ATOM     30  C   UNL     1      -1.770  11.749  19.681  0.00  0.00    +0.000 A 
ATOM     31  C   UNL     1      -3.027  12.285  19.391  0.00  0.00    +0.000 A 
ATOM     32  C   UNL     1      -3.817  11.700  18.406  0.00  0.00    +0.000 A 
ATOM     33  F   UNL     1      -5.025  12.212  18.140  0.00  0.00    +0.000 F 
ATOM     34  C   UNL     1      -3.370  10.595  17.689  0.00  0.00    +0.000 A 
ATOM     35  C   UNL     1      -2.114  10.056  17.974  0.00  0.00    +0.000 A 
ENDBRANCH  26  29
ENDBRANCH  24  25
ENDBRANCH  23  24
ENDBRANCH   3  23
TORSDOF 8
ENDMDL
MODEL 2
REMARK VINA RESULT:      -8.3      1.922      2.203
REMARK  Name = 
REMARK  8 active torsions:
REMARK  status: ('A' for Active; 'I' for Inactive)
REMARK    1  A    between atoms: C_2  and  C_3
REMARK    2  A    between atoms: C_3  and  S_4
REMARK    3  A    between atoms: S_4  and  C_5
REMARK    4  A    between atoms: N_7  and  C_8
REMARK    5  A    between atoms: C_8  and  C_9
REMARK    6  A    between atoms: C_9  and  N_10
REMARK    7  A    between atoms: C_11  and  C_13
REMARK    8  A    between atoms: N_26  and  C_27
REMARK                            x       y       z     vdW  Elec       q    Type
REMARK                         _______ _______ _______ _____ _____    ______ ____
ROOT
ATOM      1  C   UNL     1       5.005   5.289  18.750  0.00  0.00    +0.000 A 
ATOM      2  C   UNL     1       4.264   6.429  18.546  0.00  0.00    +0.000 A 
ATOM      3  N   UNL     1       2.987   6.053  18.211  0.00  0.00    +0.000 N 
ATOM      4  C   UNL     1       2.894   4.666  18.204  0.00  0.00    +0.000 A 
ATOM      5  C   UNL     1       1.800   3.817  17.967  0.00  0.00    +0.000 A 
ATOM      6  C   UNL     1       2.002   2.434  18.044  0.00  0.00    +0.000 A 
ATOM      7  C   UNL     1       3.256   1.915  18.345  0.00  0.00    +0.000 A 
ATOM      8  C   UNL     1       4.338   2.766  18.589  0.00  0.00    +0.000 A 
ATOM      9  C   UNL     1       4.163   4.167  18.525  0.00  0.00    +0.000 A 
ENDROOT
BRANCH   1  10
ATOM     10  S   UNL     1       6.664   5.242  19.311  0.00  0.00    +0.000 S 
BRANCH  10  11
ATOM     11  C   UNL     1       7.455   6.369  18.130  0.00  0.00    +0.000 C 
BRANCH  11  13
ATOM     12  O   UNL     1       6.236   7.049  16.195  0.00  0.00    +0.000 OA
ATOM     13  C   UNL     1       6.961   6.189  16.696  0.00  0.00    +0.000 C 
ATOM     14  N   UNL     1       7.435   5.072  16.029  0.00  0.00    +0.000 N 
ATOM     15  H   UNL     1       7.840   4.339  16.607  0.00  0.00    +0.000 HD
BRANCH  14  16
ATOM     16  C   UNL     1       7.173   4.719  14.683  0.00  0.00    +0.000 A 
ATOM     17  C   UNL     1       7.909   5.197  13.598  0.00  0.00    +0.000 A 
ATOM     18  C   UNL     1       7.542   4.862  12.288  0.00  0.00    +0.000 A 
ATOM     19  C   UNL     1       6.442   4.037  12.051  0.00  0.00    +0.000 A 
ATOM     20  C   UNL     1       5.732   3.512  13.127  0.00  0.00    +0.000 A 
ATOM     21  C   UNL     1       6.108   3.844  14.429  0.00  0.00    +0.000 A 
ATOM     22  F   UNL     1       5.406   3.336  15.453  0.00  0.00    +0.000 F 
ENDBRANCH  14  16
ENDBRANCH  11  13
ENDBRANCH  10  11
ENDBRANCH   1  10
BRANCH   3  23
ATOM     23  C   UNL     1       1.854   6.947  18.002  0.00  0.00    +0.000 C 
BRANCH  23  24
ATOM     24  C   UNL     1       2.170   8.445  18.063  0.00  0.00    +0.000 C 
BRANCH  24  25
ATOM     25  N   UNL     1       1.544   9.120  19.193  0.00  0.00    +0.000 N 
ATOM     26  C   UNL     1       0.381   9.847  19.042  0.00  0.00    +0.000 C 
ATOM     27  O   UNL     1      -0.216   9.952  17.978  0.00  0.00    +0.000 OA
ATOM     28  H   UNL     1       1.927   8.969  20.116  0.00  0.00    +0.000 HD
BRANCH  26  29
ATOM     29  C   UNL     1      -0.173  10.471  20.272  0.00  0.00    +0.000 A 
ATOM     30  C   UNL     1      -0.672  11.781  20.277  0.00  0.00    +0.000 A 
ATOM     31  C   UNL     1      -1.169  12.329  21.462  0.00  0.00    +0.000 A 
ATOM     32  C   UNL     1      -1.174  11.567  22.626  0.00  0.00    +0.000 A 
ATOM     33  F   UNL     1      -1.643  12.101  23.761  0.00  0.00    +0.000 F 
ATOM     34  C   UNL     1      -0.704  10.258  22.629  0.00  0.00    +0.000 A 
ATOM     35  C   UNL     1      -0.206   9.705  21.448  0.00  0.00    +0.000 A 
ENDBRANCH  26  29
ENDBRANCH  24  25
ENDBRANCH  23  24
ENDBRANCH   3  23
TORSDOF 8
ENDMDL
MODEL 3
REMARK VINA RESULT:      -8.2      1.343      1.360
REMARK  Name = 
REMARK  8 active torsions:
REMARK  status: ('A' for Active; 'I' for Inactive)
REMARK    1  A    between atoms: C_2  and  C_3
REMARK    2  A    between atoms: C_3  and  S_4
REMARK    3  A    between atoms: S_4  and  C_5
REMARK    4  A    between atoms: N_7  and  C_8
REMARK    5  A    between atoms: C_8  and  C_9
REMARK    6  A    between atoms: C_9  and  N_10
REMARK    7  A    between atoms: C_11  and  C_13
REMARK    8  A    between atoms: N_26  and  C_27
REMARK                            x       y       z     vdW  Elec       q    Type
REMARK                         _______ _______ _______ _____ _____    ______ ____
ROOT
ATOM      1  C   UNL     1       4.739   5.242  19.089  0.00  0.00    +0.000 A 
ATOM      2  C   UNL     1       4.014   6.242  19.694  0.00  0.00    +0.000 A 
ATOM      3  N   UNL     1       2.693   5.867  19.700  0.00  0.00    +0.000 N 
ATOM      4  C   UNL     1       2.558   4.618  19.106  0.00  0.00    +0.000 A 
ATOM      5  C   UNL     1       1.429   3.804  18.916  0.00  0.00    +0.000 A 
ATOM      6  C   UNL     1       1.600   2.564  18.288  0.00  0.00    +0.000 A 
ATOM      7  C   UNL     1       2.856   2.152  17.860  0.00  0.00    +0.000 A 
ATOM      8  C   UNL     1       3.977   2.963  18.061  0.00  0.00    +0.000 A 
ATOM      9  C   UNL     1       3.837   4.216  18.699  0.00  0.00    +0.000 A 
ENDROOT
BRANCH   1  10
ATOM     10  S   UNL     1       6.484   5.198  18.944  0.00  0.00    +0.000 S 
BRANCH  10  11
ATOM     11  C   UNL     1       6.762   6.551  17.767  0.00  0.00    +0.000 C 
BRANCH  11  13
ATOM     12  O   UNL     1       5.420   6.731  15.803  0.00  0.00    +0.000 OA
ATOM     13  C   UNL     1       6.392   6.190  16.329  0.00  0.00    +0.000 C 
ATOM     14  N   UNL     1       7.243   5.305  15.690  0.00  0.00    +0.000 N 
ATOM     15  H   UNL     1       7.870   4.770  16.288  0.00  0.00    +0.000 HD
BRANCH  14  16
ATOM     16  C   UNL     1       7.150   4.865  14.348  0.00  0.00    +0.000 A 
ATOM     17  C   UNL     1       7.884   5.418  13.297  0.00  0.00    +0.000 A 
ATOM     18  C   UNL     1       7.681   4.981  11.982  0.00  0.00    +0.000 A 
ATOM     19  C   UNL     1       6.752   3.978  11.706  0.00  0.00    +0.000 A 
ATOM     20  C   UNL     1       6.051   3.382  12.751  0.00  0.00    +0.000 A 
ATOM     21  C   UNL     1       6.263   3.819  14.060  0.00  0.00    +0.000 A 
ATOM     22  F   UNL     1       5.573   3.240  15.053  0.00  0.00    +0.000 F 
ENDBRANCH  14  16
ENDBRANCH  11  13
ENDBRANCH  10  11
ENDBRANCH   1  10
BRANCH   3  23
ATOM     23  C   UNL     1       1.595   6.593  20.329  0.00  0.00    +0.000 C 
BRANCH  23  24
ATOM     24  C   UNL     1       1.724   8.119  20.331  0.00  0.00    +0.000 C 
BRANCH  24  25
ATOM     25  N   UNL     1       0.489   8.803  19.968  0.00  0.00    +0.000 N 
ATOM     26  C   UNL     1       0.499   9.944  19.192  0.00  0.00    +0.000 C 
ATOM     27  O   UNL     1       1.521  10.440  18.735  0.00  0.00    +0.000 OA
ATOM     28  H   UNL     1      -0.390   8.372  20.218  0.00  0.00    +0.000 HD
BRANCH  26  29
ATOM     29  C   UNL     1      -0.826  10.537  18.872  0.00  0.00    +0.000 A 
ATOM     30  C   UNL     1      -1.366  11.590  19.623  0.00  0.00    +0.000 A 
ATOM     31  C   UNL     1      -2.622  12.104  19.291  0.00  0.00    +0.000 A 
ATOM     32  C   UNL     1      -3.322  11.573  18.212  0.00  0.00    +0.000 A 
ATOM     33  F   UNL     1      -4.530  12.064  17.905  0.00  0.00    +0.000 F 
ATOM     34  C   UNL     1      -2.787  10.545  17.444  0.00  0.00    +0.000 A 
ATOM     35  C   UNL     1      -1.532  10.027  17.771  0.00  0.00    +0.000 A 
ENDBRANCH  26  29
ENDBRANCH  24  25
ENDBRANCH  23  24
ENDBRANCH   3  23
TORSDOF 8
ENDMDL
MODEL 4
REMARK VINA RESULT:      -8.2      1.087      1.428
REMARK  Name = 
REMARK  8 active torsions:
REMARK  status: ('A' for Active; 'I' for Inactive)
REMARK    1  A    between atoms: C_2  and  C_3
REMARK    2  A    between atoms: C_3  and  S_4
REMARK    3  A    between atoms: S_4  and  C_5
REMARK    4  A    between atoms: N_7  and  C_8
REMARK    5  A    between atoms: C_8  and  C_9
REMARK    6  A    between atoms: C_9  and  N_10
REMARK    7  A    between atoms: C_11  and  C_13
REMARK    8  A    between atoms: N_26  and  C_27
REMARK                            x       y       z     vdW  Elec       q    Type
REMARK                         _______ _______ _______ _____ _____    ______ ____
ROOT
ATOM      1  C   UNL     1       4.945   5.342  18.753  0.00  0.00    +0.000 A 
ATOM      2  C   UNL     1       4.233   6.504  18.567  0.00  0.00    +0.000 A 
ATOM      3  N   UNL     1       2.948   6.165  18.219  0.00  0.00    +0.000 N 
ATOM      4  C   UNL     1       2.821   4.782  18.186  0.00  0.00    +0.000 A 
ATOM      5  C   UNL     1       1.708   3.964  17.930  0.00  0.00    +0.000 A 
ATOM      6  C   UNL     1       1.876   2.575  17.982  0.00  0.00    +0.000 A 
ATOM      7  C   UNL     1       3.115   2.020  18.278  0.00  0.00    +0.000 A 
ATOM      8  C   UNL     1       4.216   2.840  18.543  0.00  0.00    +0.000 A 
ATOM      9  C   UNL     1       4.076   4.246  18.504  0.00  0.00    +0.000 A 
ENDROOT
BRANCH   1  10
ATOM     10  S   UNL     1       6.599   5.244  19.320  0.00  0.00    +0.000 S 
BRANCH  10  11
ATOM     11  C   UNL     1       7.423   6.374  18.163  0.00  0.00    +0.000 C 
BRANCH  11  13
ATOM     12  O   UNL     1       6.261   7.079  16.203  0.00  0.00    +0.000 OA
ATOM     13  C   UNL     1       6.960   6.206  16.717  0.00  0.00    +0.000 C 
ATOM     14  N   UNL     1       7.431   5.084  16.058  0.00  0.00    +0.000 N 
ATOM     15  H   UNL     1       7.810   4.342  16.644  0.00  0.00    +0.000 HD
BRANCH  14  16
ATOM     16  C   UNL     1       7.195   4.738  14.706  0.00  0.00    +0.000 A 
ATOM     17  C   UNL     1       7.903   5.279  13.632  0.00  0.00    +0.000 A 
ATOM     18  C   UNL     1       7.561   4.946  12.315  0.00  0.00    +0.000 A 
ATOM     19  C   UNL     1       6.515   4.059  12.060  0.00  0.00    +0.000 A 
ATOM     20  C   UNL     1       5.835   3.472  13.123  0.00  0.00    +0.000 A 
ATOM     21  C   UNL     1       6.186   3.804  14.433  0.00  0.00    +0.000 A 
ATOM     22  F   UNL     1       5.514   3.236  15.445  0.00  0.00    +0.000 F 
ENDBRANCH  14  16
ENDBRANCH  11  13
ENDBRANCH  10  11
ENDBRANCH   1  10
BRANCH   3  23
ATOM     23  C   UNL     1       1.839   7.091  18.021  0.00  0.00    +0.000 C 
BRANCH  23  24
ATOM     24  C   UNL     1       2.204   8.578  18.040  0.00  0.00    +0.000 C 
BRANCH  24  25
ATOM     25  N   UNL     1       1.058   9.451  18.267  0.00  0.00    +0.000 N 
ATOM     26  C   UNL     1       0.596   9.715  19.540  0.00  0.00    +0.000 C 
ATOM     27  O   UNL     1       1.120   9.272  20.554  0.00  0.00    +0.000 OA
ATOM     28  H   UNL     1       0.661   9.938  17.476  0.00  0.00    +0.000 HD
BRANCH  26  29
ATOM     29  C   UNL     1      -0.565  10.638  19.643  0.00  0.00    +0.000 A 
ATOM     30  C   UNL     1      -1.496  10.773  18.605  0.00  0.00    +0.000 A 
ATOM     31  C   UNL     1      -2.564  11.664  18.743  0.00  0.00    +0.000 A 
ATOM     32  C   UNL     1      -2.698  12.403  19.914  0.00  0.00    +0.000 A 
ATOM     33  F   UNL     1      -3.718  13.263  20.036  0.00  0.00    +0.000 F 
ATOM     34  C   UNL     1      -1.794  12.261  20.961  0.00  0.00    +0.000 A 
ATOM     35  C   UNL     1      -0.726  11.371  20.829  0.00  0.00    +0.000 A 
ENDBRANCH  26  29
ENDBRANCH  24  25
ENDBRANCH  23  24
ENDBRANCH   3  23
TORSDOF 8
ENDMDL
MODEL 5
REMARK VINA RESULT:      -8.1      1.044      1.354
REMARK  Name = 
REMARK  8 active torsions:
REMARK  status: ('A' for Active; 'I' for Inactive)
REMARK    1  A    between atoms: C_2  and  C_3
REMARK    2  A    between atoms: C_3  and  S_4
REMARK    3  A    between atoms: S_4  and  C_5
REMARK    4  A    between atoms: N_7  and  C_8
REMARK    5  A    between atoms: C_8  and  C_9
REMARK    6  A    between atoms: C_9  and  N_10
REMARK    7  A    between atoms: C_11  and  C_13
REMARK    8  A    between atoms: N_26  and  C_27
REMARK                            x       y       z     vdW  Elec       q    Type
REMARK                         _______ _______ _______ _____ _____    ______ ____
ROOT
ATOM      1  C   UNL     1       5.090   5.812  18.653  0.00  0.00    +0.000 A 
ATOM      2  C   UNL     1       4.645   6.985  18.089  0.00  0.00    +0.000 A 
ATOM      3  N   UNL     1       3.301   6.854  17.839  0.00  0.00    +0.000 N 
ATOM      4  C   UNL     1       2.869   5.598  18.248  0.00  0.00    +0.000 A 
ATOM      5  C   UNL     1       1.590   5.016  18.242  0.00  0.00    +0.000 A 
ATOM      6  C   UNL     1       1.448   3.715  18.740  0.00  0.00    +0.000 A 
ATOM      7  C   UNL     1       2.548   3.017  19.226  0.00  0.00    +0.000 A 
ATOM      8  C   UNL     1       3.815   3.606  19.239  0.00  0.00    +0.000 A 
ATOM      9  C   UNL     1       3.988   4.920  18.749  0.00  0.00    +0.000 A 
ENDROOT
BRANCH   1  10
ATOM     10  S   UNL     1       6.709   5.527  19.259  0.00  0.00    +0.000 S 
BRANCH  10  11
ATOM     11  C   UNL     1       7.703   6.044  17.831  0.00  0.00    +0.000 C 
BRANCH  11  13
ATOM     12  O   UNL     1       7.970   3.928  16.763  0.00  0.00    +0.000 OA
ATOM     13  C   UNL     1       7.594   5.094  16.640  0.00  0.00    +0.000 C 
ATOM     14  N   UNL     1       7.003   5.615  15.503  0.00  0.00    +0.000 N 
ATOM     15  H   UNL     1       6.937   6.630  15.453  0.00  0.00    +0.000 HD
BRANCH  14  16
ATOM     16  C   UNL     1       6.735   4.923  14.298  0.00  0.00    +0.000 A 
ATOM     17  C   UNL     1       5.630   4.092  14.110  0.00  0.00    +0.000 A 
ATOM     18  C   UNL     1       5.472   3.379  12.914  0.00  0.00    +0.000 A 
ATOM     19  C   UNL     1       6.412   3.499  11.891  0.00  0.00    +0.000 A 
ATOM     20  C   UNL     1       7.491   4.364  12.046  0.00  0.00    +0.000 A 
ATOM     21  C   UNL     1       7.638   5.076  13.237  0.00  0.00    +0.000 A 
ATOM     22  F   UNL     1       8.689   5.899  13.372  0.00  0.00    +0.000 F 
ENDBRANCH  14  16
ENDBRANCH  11  13
ENDBRANCH  10  11
ENDBRANCH   1  10
BRANCH   3  23
ATOM     23  C   UNL     1       2.415   7.895  17.331  0.00  0.00    +0.000 C 
BRANCH  23  24
ATOM     24  C   UNL     1       1.851   8.857  18.381  0.00  0.00    +0.000 C 
BRANCH  24  25
ATOM     25  N   UNL     1       0.449   9.193  18.161  0.00  0.00    +0.000 N 
ATOM     26  C   UNL     1      -0.044  10.449  18.449  0.00  0.00    +0.000 C 
ATOM     27  O   UNL     1       0.650  11.365  18.873  0.00  0.00    +0.000 OA
ATOM     28  H   UNL     1      -0.141   8.513  17.702  0.00  0.00    +0.000 HD
BRANCH  26  29
ATOM     29  C   UNL     1      -1.484  10.676  18.160  0.00  0.00    +0.000 A 
ATOM     30  C   UNL     1      -2.252  11.586  18.901  0.00  0.00    +0.000 A 
ATOM     31  C   UNL     1      -3.606  11.754  18.600  0.00  0.00    +0.000 A 
ATOM     32  C   UNL     1      -4.179  11.024  17.564  0.00  0.00    +0.000 A 
ATOM     33  F   UNL     1      -5.480  11.183  17.288  0.00  0.00    +0.000 F 
ATOM     34  C   UNL     1      -3.423  10.136  16.807  0.00  0.00    +0.000 A 
ATOM     35  C   UNL     1      -2.069   9.964  17.102  0.00  0.00    +0.000 A 
ENDBRANCH  26  29
ENDBRANCH  24  25
ENDBRANCH  23  24
ENDBRANCH   3  23
TORSDOF 8
ENDMDL
MODEL 6
REMARK VINA RESULT:      -7.9      1.360      1.428
REMARK  Name = 
REMARK  8 active torsions:
REMARK  status: ('A' for Active; 'I' for Inactive)
REMARK    1  A    between atoms: C_2  and  C_3
REMARK    2  A    between atoms: C_3  and  S_4
REMARK    3  A    between atoms: S_4  and  C_5
REMARK    4  A    between atoms: N_7  and  C_8
REMARK    5  A    between atoms: C_8  and  C_9
REMARK    6  A    between atoms: C_9  and  N_10
REMARK    7  A    between atoms: C_11  and  C_13
REMARK    8  A    between atoms: N_26  and  C_27
REMARK                            x       y       z     vdW  Elec       q    Type
REMARK                         _______ _______ _______ _____ _____    ______ ____
ROOT
ATOM      1  C   UNL     1       4.570   5.017  19.269  0.00  0.00    +0.000 A 
ATOM      2  C   UNL     1       4.171   6.326  19.138  0.00  0.00    +0.000 A 
ATOM      3  N   UNL     1       2.856   6.411  19.527  0.00  0.00    +0.000 N 
ATOM      4  C   UNL     1       2.401   5.158  19.918  0.00  0.00    +0.000 A 
ATOM      5  C   UNL     1       1.159   4.746  20.429  0.00  0.00    +0.000 A 
ATOM      6  C   UNL     1       0.989   3.396  20.757  0.00  0.00    +0.000 A 
ATOM      7  C   UNL     1       2.024   2.485  20.578  0.00  0.00    +0.000 A 
ATOM      8  C   UNL     1       3.261   2.904  20.079  0.00  0.00    +0.000 A 
ATOM      9  C   UNL     1       3.465   4.262  19.746  0.00  0.00    +0.000 A 
ENDROOT
BRANCH   1  10
ATOM     10  S   UNL     1       6.196   4.420  19.008  0.00  0.00    +0.000 S 
BRANCH  10  11
ATOM     11  C   UNL     1       7.030   5.934  18.454  0.00  0.00    +0.000 C 
BRANCH  11  13
ATOM     12  O   UNL     1       7.191   7.202  16.440  0.00  0.00    +0.000 OA
ATOM     13  C   UNL     1       7.074   6.081  16.935  0.00  0.00    +0.000 C 
ATOM     14  N   UNL     1       7.044   4.900  16.212  0.00  0.00    +0.000 N 
ATOM     15  H   UNL     1       6.730   4.072  16.714  0.00  0.00    +0.000 HD
BRANCH  14  16
ATOM     16  C   UNL     1       7.133   4.769  14.806  0.00  0.00    +0.000 A 
ATOM     17  C   UNL     1       7.986   5.533  14.008  0.00  0.00    +0.000 A 
ATOM     18  C   UNL     1       7.964   5.400  12.614  0.00  0.00    +0.000 A 
ATOM     19  C   UNL     1       7.096   4.494  12.004  0.00  0.00    +0.000 A 
ATOM     20  C   UNL     1       6.277   3.690  12.792  0.00  0.00    +0.000 A 
ATOM     21  C   UNL     1       6.310   3.823  14.181  0.00  0.00    +0.000 A 
ATOM     22  F   UNL     1       5.507   3.046  14.923  0.00  0.00    +0.000 F 
ENDBRANCH  14  16
ENDBRANCH  11  13
ENDBRANCH  10  11
ENDBRANCH   1  10
BRANCH   3  23
ATOM     23  C   UNL     1       2.068   7.634  19.633  0.00  0.00    +0.000 C 
BRANCH  23  24
ATOM     24  C   UNL     1       2.046   8.519  18.383  0.00  0.00    +0.000 C 
BRANCH  24  25
ATOM     25  N   UNL     1       0.707   8.965  18.015  0.00  0.00    +0.000 N 
ATOM     26  C   UNL     1       0.141  10.088  18.583  0.00  0.00    +0.000 C 
ATOM     27  O   UNL     1       0.719  10.797  19.397  0.00  0.00    +0.000 OA
ATOM     28  H   UNL     1       0.232   8.487  17.263  0.00  0.00    +0.000 HD
BRANCH  26  29
ATOM     29  C   UNL     1      -1.220  10.453  18.110  0.00  0.00    +0.000 A 
ATOM     30  C   UNL     1      -2.004  11.405  18.777  0.00  0.00    +0.000 A 
ATOM     31  C   UNL     1      -3.283  11.704  18.302  0.00  0.00    +0.000 A 
ATOM     32  C   UNL     1      -3.765  11.062  17.165  0.00  0.00    +0.000 A 
ATOM     33  F   UNL     1      -4.996  11.346  16.721  0.00  0.00    +0.000 F 
ATOM     34  C   UNL     1      -2.988  10.133  16.481  0.00  0.00    +0.000 A 
ATOM     35  C   UNL     1      -1.709   9.831  16.951  0.00  0.00    +0.000 A 
ENDBRANCH  26  29
ENDBRANCH  24  25
ENDBRANCH  23  24
ENDBRANCH   3  23
TORSDOF 8
ENDMDL
MODEL 7
REMARK VINA RESULT:      -7.9      4.403      6.640
REMARK  Name = 
REMARK  8 active torsions:
REMARK  status: ('A' for Active; 'I' for Inactive)
REMARK    1  A    between atoms: C_2  and  C_3
REMARK    2  A    between atoms: C_3  and  S_4
REMARK    3  A    between atoms: S_4  and  C_5
REMARK    4  A    between atoms: N_7  and  C_8
REMARK    5  A    between atoms: C_8  and  C_9
REMARK    6  A    between atoms: C_9  and  N_10
REMARK    7  A    between atoms: C_11  and  C_13
REMARK    8  A    between atoms: N_26  and  C_27
REMARK                            x       y       z     vdW  Elec       q    Type
REMARK                         _______ _______ _______ _____ _____    ______ ____
ROOT
ATOM      1  C   UNL     1       7.024   6.020  18.287  0.00  0.00    +0.000 A 
ATOM      2  C   UNL     1       6.273   5.376  19.242  0.00  0.00    +0.000 A 
ATOM      3  N   UNL     1       5.540   4.396  18.618  0.00  0.00    +0.000 N 
ATOM      4  C   UNL     1       5.820   4.397  17.257  0.00  0.00    +0.000 A 
ATOM      5  C   UNL     1       5.361   3.567  16.221  0.00  0.00    +0.000 A 
ATOM      6  C   UNL     1       5.835   3.797  14.923  0.00  0.00    +0.000 A 
ATOM      7  C   UNL     1       6.737   4.823  14.668  0.00  0.00    +0.000 A 
ATOM      8  C   UNL     1       7.197   5.639  15.706  0.00  0.00    +0.000 A 
ATOM      9  C   UNL     1       6.742   5.427  17.027  0.00  0.00    +0.000 A 
ENDROOT
BRANCH   1  10
ATOM     10  S   UNL     1       8.211   7.270  18.600  0.00  0.00    +0.000 S 
BRANCH  10  11
ATOM     11  C   UNL     1       7.506   8.653  17.659  0.00  0.00    +0.000 C 
BRANCH  11  13
ATOM     12  O   UNL     1       7.799  11.003  17.368  0.00  0.00    +0.000 OA
ATOM     13  C   UNL     1       8.236   9.975  17.887  0.00  0.00    +0.000 C 
ATOM     14  N   UNL     1       9.326   9.925  18.739  0.00  0.00    +0.000 N 
ATOM     15  H   UNL     1       9.711   9.002  18.925  0.00  0.00    +0.000 HD
BRANCH  14  16
ATOM     16  C   UNL     1      10.124  11.019  19.153  0.00  0.00    +0.000 A 
ATOM     17  C   UNL     1      11.227  11.489  18.439  0.00  0.00    +0.000 A 
ATOM     18  C   UNL     1      12.015  12.527  18.951  0.00  0.00    +0.000 A 
ATOM     19  C   UNL     1      11.701  13.114  20.177  0.00  0.00    +0.000 A 
ATOM     20  C   UNL     1      10.574  12.689  20.875  0.00  0.00    +0.000 A 
ATOM     21  C   UNL     1       9.790  11.658  20.354  0.00  0.00    +0.000 A 
ATOM     22  F   UNL     1       8.712  11.255  21.045  0.00  0.00    +0.000 F 
ENDBRANCH  14  16
ENDBRANCH  11  13
ENDBRANCH  10  11
ENDBRANCH   1  10
BRANCH   3  23
ATOM     23  C   UNL     1       4.681   3.416  19.273  0.00  0.00    +0.000 C 
BRANCH  23  24
ATOM     24  C   UNL     1       3.174   3.641  19.110  0.00  0.00    +0.000 C 
BRANCH  24  25
ATOM     25  N   UNL     1       2.822   5.035  18.873  0.00  0.00    +0.000 N 
ATOM     26  C   UNL     1       2.282   5.822  19.870  0.00  0.00    +0.000 C 
ATOM     27  O   UNL     1       2.092   5.426  21.013  0.00  0.00    +0.000 OA
ATOM     28  H   UNL     1       3.067   5.448  17.983  0.00  0.00    +0.000 HD
BRANCH  26  29
ATOM     29  C   UNL     1       1.985   7.233  19.511  0.00  0.00    +0.000 A 
ATOM     30  C   UNL     1       1.406   8.123  20.426  0.00  0.00    +0.000 A 
ATOM     31  C   UNL     1       1.133   9.436  20.037  0.00  0.00    +0.000 A 
ATOM     32  C   UNL     1       1.446   9.854  18.748  0.00  0.00    +0.000 A 
ATOM     33  F   UNL     1       1.172  11.112  18.378  0.00  0.00    +0.000 F 
ATOM     34  C   UNL     1       2.043   8.988  17.837  0.00  0.00    +0.000 A 
ATOM     35  C   UNL     1       2.319   7.674  18.221  0.00  0.00    +0.000 A 
ENDBRANCH  26  29
ENDBRANCH  24  25
ENDBRANCH  23  24
ENDBRANCH   3  23
TORSDOF 8
ENDMDL
MODEL 8
REMARK VINA RESULT:      -7.8      1.700      2.177
REMARK  Name = 
REMARK  8 active torsions:
REMARK  status: ('A' for Active; 'I' for Inactive)
REMARK    1  A    between atoms: C_2  and  C_3
REMARK    2  A    between atoms: C_3  and  S_4
REMARK    3  A    between atoms: S_4  and  C_5
REMARK    4  A    between atoms: N_7  and  C_8
REMARK    5  A    between atoms: C_8  and  C_9
REMARK    6  A    between atoms: C_9  and  N_10
REMARK    7  A    between atoms: C_11  and  C_13
REMARK    8  A    between atoms: N_26  and  C_27
REMARK                            x       y       z     vdW  Elec       q    Type
REMARK                         _______ _______ _______ _____ _____    ______ ____
ROOT
ATOM      1  C   UNL     1       3.221   6.456  18.326  0.00  0.00    +0.000 A 
ATOM      2  C   UNL     1       2.729   7.340  19.258  0.00  0.00    +0.000 A 
ATOM      3  N   UNL     1       1.885   6.652  20.094  0.00  0.00    +0.000 N 
ATOM      4  C   UNL     1       1.832   5.317  19.712  0.00  0.00    +0.000 A 
ATOM      5  C   UNL     1       1.152   4.224  20.273  0.00  0.00    +0.000 A 
ATOM      6  C   UNL     1       1.300   2.968  19.671  0.00  0.00    +0.000 A 
ATOM      7  C   UNL     1       2.099   2.809  18.545  0.00  0.00    +0.000 A 
ATOM      8  C   UNL     1       2.781   3.900  17.997  0.00  0.00    +0.000 A 
ATOM      9  C   UNL     1       2.656   5.179  18.587  0.00  0.00    +0.000 A 
ENDROOT
BRANCH   1  10
ATOM     10  S   UNL     1       4.429   6.826  17.113  0.00  0.00    +0.000 S 
BRANCH  10  11
ATOM     11  C   UNL     1       5.726   5.634  17.549  0.00  0.00    +0.000 C 
BRANCH  11  13
ATOM     12  O   UNL     1       7.380   4.288  16.479  0.00  0.00    +0.000 OA
ATOM     13  C   UNL     1       6.346   4.941  16.337  0.00  0.00    +0.000 C 
ATOM     14  N   UNL     1       5.639   5.051  15.152  0.00  0.00    +0.000 N 
ATOM     15  H   UNL     1       4.933   5.783  15.114  0.00  0.00    +0.000 HD
BRANCH  14  16
ATOM     16  C   UNL     1       5.971   4.452  13.913  0.00  0.00    +0.000 A 
ATOM     17  C   UNL     1       5.182   3.492  13.279  0.00  0.00    +0.000 A 
ATOM     18  C   UNL     1       5.614   2.888  12.091  0.00  0.00    +0.000 A 
ATOM     19  C   UNL     1       6.835   3.247  11.520  0.00  0.00    +0.000 A 
ATOM     20  C   UNL     1       7.607   4.240  12.114  0.00  0.00    +0.000 A 
ATOM     21  C   UNL     1       7.166   4.842  13.295  0.00  0.00    +0.000 A 
ATOM     22  F   UNL     1       7.928   5.791  13.859  0.00  0.00    +0.000 F 
ENDBRANCH  14  16
ENDBRANCH  11  13
ENDBRANCH  10  11
ENDBRANCH   1  10
BRANCH   3  23
ATOM     23  C   UNL     1       1.222   7.187  21.278  0.00  0.00    +0.000 C 
BRANCH  23  24
ATOM     24  C   UNL     1       1.074   8.711  21.323  0.00  0.00    +0.000 C 
BRANCH  24  25
ATOM     25  N   UNL     1      -0.038   9.207  20.522  0.00  0.00    +0.000 N 
ATOM     26  C   UNL     1       0.160  10.104  19.491  0.00  0.00    +0.000 C 
ATOM     27  O   UNL     1       1.264  10.518  19.160  0.00  0.00    +0.000 OA
ATOM     28  H   UNL     1      -0.955   8.809  20.673  0.00  0.00    +0.000 HD
BRANCH  26  29
ATOM     29  C   UNL     1      -1.050  10.517  18.733  0.00  0.00    +0.000 A 
ATOM     30  C   UNL     1      -1.356   9.976  17.477  0.00  0.00    +0.000 A 
ATOM     31  C   UNL     1      -2.497  10.408  16.796  0.00  0.00    +0.000 A 
ATOM     32  C   UNL     1      -3.325  11.364  17.375  0.00  0.00    +0.000 A 
ATOM     33  F   UNL     1      -4.412  11.781  16.713  0.00  0.00    +0.000 F 
ATOM     34  C   UNL     1      -3.046  11.892  18.631  0.00  0.00    +0.000 A 
ATOM     35  C   UNL     1      -1.907  11.463  19.316  0.00  0.00    +0.000 A 
ENDBRANCH  26  29
ENDBRANCH  24  25
ENDBRANCH  23  24
ENDBRANCH   3  23
TORSDOF 8
ENDMDL
MODEL 9
REMARK VINA RESULT:      -7.8      3.684      9.491
REMARK  Name = 
REMARK  8 active torsions:
REMARK  status: ('A' for Active; 'I' for Inactive)
REMARK    1  A    between atoms: C_2  and  C_3
REMARK    2  A    between atoms: C_3  and  S_4
REMARK    3  A    between atoms: S_4  and  C_5
REMARK    4  A    between atoms: N_7  and  C_8
REMARK    5  A    between atoms: C_8  and  C_9
REMARK    6  A    between atoms: C_9  and  N_10
REMARK    7  A    between atoms: C_11  and  C_13
REMARK    8  A    between atoms: N_26  and  C_27
REMARK                            x       y       z     vdW  Elec       q    Type
REMARK                         _______ _______ _______ _____ _____    ______ ____
ROOT
ATOM      1  C   UNL     1       2.842   6.836  18.635  0.00  0.00    +0.000 A 
ATOM      2  C   UNL     1       3.891   7.277  17.864  0.00  0.00    +0.000 A 
ATOM      3  N   UNL     1       4.374   6.208  17.150  0.00  0.00    +0.000 N 
ATOM      4  C   UNL     1       3.633   5.071  17.450  0.00  0.00    +0.000 A 
ATOM      5  C   UNL     1       3.712   3.761  16.950  0.00  0.00    +0.000 A 
ATOM      6  C   UNL     1       2.808   2.808  17.435  0.00  0.00    +0.000 A 
ATOM      7  C   UNL     1       1.857   3.151  18.389  0.00  0.00    +0.000 A 
ATOM      8  C   UNL     1       1.777   4.460  18.874  0.00  0.00    +0.000 A 
ATOM      9  C   UNL     1       2.672   5.445  18.398  0.00  0.00    +0.000 A 
ENDROOT
BRANCH   1  10
ATOM     10  S   UNL     1       1.820   7.848  19.635  0.00  0.00    +0.000 S 
BRANCH  10  11
ATOM     11  C   UNL     1       1.533   9.250  18.519  0.00  0.00    +0.000 C 
BRANCH  11  13
ATOM     12  O   UNL     1       1.299  11.592  18.912  0.00  0.00    +0.000 OA
ATOM     13  C   UNL     1       0.915  10.462  19.214  0.00  0.00    +0.000 C 
ATOM     14  N   UNL     1      -0.107  10.190  20.107  0.00  0.00    +0.000 N 
ATOM     15  H   UNL     1      -0.182   9.227  20.428  0.00  0.00    +0.000 HD
BRANCH  14  16
ATOM     16  C   UNL     1      -0.874  11.138  20.826  0.00  0.00    +0.000 A 
ATOM     17  C   UNL     1      -1.753  12.041  20.226  0.00  0.00    +0.000 A 
ATOM     18  C   UNL     1      -2.420  13.001  20.997  0.00  0.00    +0.000 A 
ATOM     19  C   UNL     1      -2.224  13.062  22.377  0.00  0.00    +0.000 A 
ATOM     20  C   UNL     1      -1.390  12.134  22.994  0.00  0.00    +0.000 A 
ATOM     21  C   UNL     1      -0.733  11.175  22.220  0.00  0.00    +0.000 A 
ATOM     22  F   UNL     1       0.074  10.295  22.831  0.00  0.00    +0.000 F 
ENDBRANCH  14  16
ENDBRANCH  11  13
ENDBRANCH  10  11
ENDBRANCH   1  10
BRANCH   3  23
ATOM     23  C   UNL     1       5.425   6.252  16.139  0.00  0.00    +0.000 C 
BRANCH  23  24
ATOM     24  C   UNL     1       6.858   6.327  16.675  0.00  0.00    +0.000 C 
BRANCH  24  25
ATOM     25  N   UNL     1       7.291   7.686  16.976  0.00  0.00    +0.000 N 
ATOM     26  C   UNL     1       8.052   7.969  18.092  0.00  0.00    +0.000 C 
ATOM     27  O   UNL     1       8.438   7.114  18.880  0.00  0.00    +0.000 OA
ATOM     28  H   UNL     1       7.102   8.411  16.298  0.00  0.00    +0.000 HD
BRANCH  26  29
ATOM     29  C   UNL     1       8.451   9.389  18.278  0.00  0.00    +0.000 A 
ATOM     30  C   UNL     1       7.976  10.406  17.438  0.00  0.00    +0.000 A 
ATOM     31  C   UNL     1       8.391  11.724  17.645  0.00  0.00    +0.000 A 
ATOM     32  C   UNL     1       9.264  12.018  18.687  0.00  0.00    +0.000 A 
ATOM     33  F   UNL     1       9.666  13.282  18.873  0.00  0.00    +0.000 F 
ATOM     34  C   UNL     1       9.724  11.021  19.542  0.00  0.00    +0.000 A 
ATOM     35  C   UNL     1       9.312   9.702  19.340  0.00  0.00    +0.000 A 
ENDBRANCH  26  29
ENDBRANCH  24  25
ENDBRANCH  23  24
ENDBRANCH   3  23
TORSDOF 8
ENDMDL
