MODEL 1
REMARK VINA RESULT:      -5.9      0.000      0.000
REMARK  Name = 
REMARK  4 active torsions:
REMARK  status: ('A' for Active; 'I' for Inactive)
REMARK    1  A    between atoms: N_3  and  C_4
REMARK    2  A    between atoms: N_3  and  C_10
REMARK    3  A    between atoms: N_16  and  C_17
REMARK    4  A    between atoms: N_16  and  C_23
REMARK                            x       y       z     vdW  Elec       q    Type
REMARK                         _______ _______ _______ _____ _____    ______ ____
ROOT
ATOM      1  O   UNL     1       1.854  12.617  19.358  0.00  0.00    +0.000 OA
ATOM      2  C   UNL     1       0.641  12.369  19.378  0.00  0.00    +0.000 C 
ATOM      3  N   UNL     1      -0.322  13.340  19.779  0.00  0.00    +0.000 N 
ATOM      4  N   UNL     1       0.138  11.098  18.997  0.00  0.00    +0.000 N 
ENDROOT
BRANCH   4   5
ATOM      5  C   UNL     1       0.967   9.909  19.033  0.00  0.00    +0.000 A 
ATOM      6  C   UNL     1       1.095   9.155  20.209  0.00  0.00    +0.000 A 
ATOM      7  C   UNL     1       1.759   7.919  20.208  0.00  0.00    +0.000 A 
ATOM      8  C   UNL     1       2.323   7.429  19.035  0.00  0.00    +0.000 A 
ATOM      9 CL   UNL     1       3.048   5.870  19.012  0.00  0.00    +0.000 Cl
ATOM     10  C   UNL     1       2.283   8.190  17.875  0.00  0.00    +0.000 A 
ATOM     11  C   UNL     1       1.625   9.425  17.882  0.00  0.00    +0.000 A 
ENDBRANCH   4   5
BRANCH   3  12
ATOM     12  C   UNL     1      -1.468  12.982  20.559  0.00  0.00    +0.000 A 
ATOM     13  C   UNL     1      -1.330  12.290  21.769  0.00  0.00    +0.000 A 
ATOM     14  C   UNL     1      -2.449  12.076  22.579  0.00  0.00    +0.000 A 
ATOM     15  C   UNL     1      -3.710  12.517  22.171  0.00  0.00    +0.000 A 
ATOM     16  C   UNL     1      -3.861  13.166  20.949  0.00  0.00    +0.000 A 
ATOM     17  C   UNL     1      -2.744  13.404  20.148  0.00  0.00    +0.000 A 
ENDBRANCH   3  12
BRANCH   3  18
ATOM     18  C   UNL     1       0.026  14.752  19.810  0.00  0.00    +0.000 A 
ATOM     19  C   UNL     1      -0.085  15.540  18.652  0.00  0.00    +0.000 A 
ATOM     20  C   UNL     1       0.234  16.901  18.665  0.00  0.00    +0.000 A 
ATOM     21  C   UNL     1       0.666  17.510  19.837  0.00  0.00    +0.000 A 
ATOM     22  C   UNL     1       0.786  16.756  20.997  0.00  0.00    +0.000 A 
ATOM     23  C   UNL     1       0.468  15.396  20.984  0.00  0.00    +0.000 A 
ENDBRANCH   3  18
BRANCH   4  24
ATOM     24  C   UNL     1      -1.150  10.942  18.397  0.00  0.00    +0.000 A 
ATOM     25  C   UNL     1      -1.548  11.737  17.322  0.00  0.00    +0.000 A 
ATOM     26  C   UNL     1      -2.795  11.497  16.768  0.00  0.00    +0.000 A 
ATOM     27  N   UNL     1      -3.657  10.558  17.222  0.00  0.00    +0.000 NA
ATOM     28  C   UNL     1      -3.255   9.823  18.277  0.00  0.00    +0.000 A 
ATOM     29  C   UNL     1      -2.026   9.966  18.886  0.00  0.00    +0.000 A 
ENDBRANCH   4  24
TORSDOF 4
ENDMDL
MODEL 2
REMARK VINA RESULT:      -5.8      3.226      6.810
REMARK  Name = 
REMARK  4 active torsions:
REMARK  status: ('A' for Active; 'I' for Inactive)
REMARK    1  A    between atoms: N_3  and  C_4
REMARK    2  A    between atoms: N_3  and  C_10
REMARK    3  A    between atoms: N_16  and  C_17
REMARK    4  A    between atoms: N_16  and  C_23
REMARK                            x       y       z     vdW  Elec       q    Type
REMARK                         _______ _______ _______ _____ _____    ______ ____
ROOT
ATOM      1  O   UNL     1      -3.301  12.679  19.664  0.00  0.00    +0.000 OA
ATOM      2  C   UNL     1      -2.090  12.422  19.673  0.00  0.00    +0.000 C 
ATOM      3  N   UNL     1      -1.530  11.393  18.861  0.00  0.00    +0.000 N 
ATOM      4  N   UNL     1      -1.185  13.144  20.494  0.00  0.00    +0.000 N 
ENDROOT
BRANCH   4   5
ATOM      5  C   UNL     1      -1.630  13.850  21.679  0.00  0.00    +0.000 A 
ATOM      6  C   UNL     1      -1.703  15.251  21.699  0.00  0.00    +0.000 A 
ATOM      7  C   UNL     1      -2.285  15.930  22.779  0.00  0.00    +0.000 A 
ATOM      8  C   UNL     1      -2.785  15.219  23.866  0.00  0.00    +0.000 A 
ATOM      9 CL   UNL     1      -3.588  16.045  25.142  0.00  0.00    +0.000 Cl
ATOM     10  C   UNL     1      -2.654  13.839  23.911  0.00  0.00    +0.000 A 
ATOM     11  C   UNL     1      -2.067  13.165  22.833  0.00  0.00    +0.000 A 
ENDBRANCH   4   5
BRANCH   3  12
ATOM     12  C   UNL     1      -0.480  10.547  19.341  0.00  0.00    +0.000 A 
ATOM     13  C   UNL     1      -0.553   9.952  20.607  0.00  0.00    +0.000 A 
ATOM     14  C   UNL     1       0.414   9.021  20.996  0.00  0.00    +0.000 A 
ATOM     15  C   UNL     1       1.474   8.708  20.143  0.00  0.00    +0.000 A 
ATOM     16  C   UNL     1       1.577   9.327  18.900  0.00  0.00    +0.000 A 
ATOM     17  C   UNL     1       0.601  10.239  18.498  0.00  0.00    +0.000 A 
ENDBRANCH   3  12
BRANCH   3  18
ATOM     18  C   UNL     1      -2.271  10.869  17.724  0.00  0.00    +0.000 A 
ATOM     19  C   UNL     1      -2.240  11.532  16.486  0.00  0.00    +0.000 A 
ATOM     20  C   UNL     1      -2.935  11.039  15.378  0.00  0.00    +0.000 A 
ATOM     21  C   UNL     1      -3.674   9.865  15.479  0.00  0.00    +0.000 A 
ATOM     22  C   UNL     1      -3.723   9.188  16.689  0.00  0.00    +0.000 A 
ATOM     23  C   UNL     1      -3.028   9.682  17.797  0.00  0.00    +0.000 A 
ENDBRANCH   3  18
BRANCH   4  24
ATOM     24  C   UNL     1       0.176  13.359  20.114  0.00  0.00    +0.000 A 
ATOM     25  C   UNL     1       0.501  13.906  18.872  0.00  0.00    +0.000 A 
ATOM     26  C   UNL     1       1.841  14.123  18.593  0.00  0.00    +0.000 A 
ATOM     27  N   UNL     1       2.850  13.815  19.440  0.00  0.00    +0.000 NA
ATOM     28  C   UNL     1       2.506  13.264  20.621  0.00  0.00    +0.000 A 
ATOM     29  C   UNL     1       1.203  13.028  21.005  0.00  0.00    +0.000 A 
ENDBRANCH   4  24
TORSDOF 4
ENDMDL
MODEL 3
REMARK VINA RESULT:      -5.8      0.328      1.302
REMARK  Name = 
REMARK  4 active torsions:
REMARK  status: ('A' for Active; 'I' for Inactive)
REMARK    1  A    between atoms: N_3  and  C_4
REMARK    2  A    between atoms: N_3  and  C_10
REMARK    3  A    between atoms: N_16  and  C_17
REMARK    4  A    between atoms: N_16  and  C_23
REMARK                            x       y       z     vdW  Elec       q    Type
REMARK                         _______ _______ _______ _____ _____    ______ ____
ROOT
ATOM      1  O   UNL     1       1.970  12.268  19.337  0.00  0.00    +0.000 OA
ATOM      2  C   UNL     1       0.741  12.116  19.361  0.00  0.00    +0.000 C 
ATOM      3  N   UNL     1      -0.139  13.153  19.787  0.00  0.00    +0.000 N 
ATOM      4  N   UNL     1       0.136  10.897  18.959  0.00  0.00    +0.000 N 
ENDROOT
BRANCH   4   5
ATOM      5  C   UNL     1       0.867   9.646  18.967  0.00  0.00    +0.000 A 
ATOM      6  C   UNL     1       1.480   9.161  17.802  0.00  0.00    +0.000 A 
ATOM      7  C   UNL     1       2.323   8.041  17.839  0.00  0.00    +0.000 A 
ATOM      8  C   UNL     1       2.551   7.376  19.040  0.00  0.00    +0.000 A 
ATOM      9 CL   UNL     1       3.662   6.066  19.104  0.00  0.00    +0.000 Cl
ATOM     10  C   UNL     1       1.896   7.783  20.193  0.00  0.00    +0.000 A 
ATOM     11  C   UNL     1       1.050   8.898  20.150  0.00  0.00    +0.000 A 
ENDBRANCH   4   5
BRANCH   3  12
ATOM     12  C   UNL     1      -1.305  12.873  20.569  0.00  0.00    +0.000 A 
ATOM     13  C   UNL     1      -1.217  12.146  21.763  0.00  0.00    +0.000 A 
ATOM     14  C   UNL     1      -2.344  12.006  22.577  0.00  0.00    +0.000 A 
ATOM     15  C   UNL     1      -3.568  12.556  22.189  0.00  0.00    +0.000 A 
ATOM     16  C   UNL     1      -3.673  13.242  20.982  0.00  0.00    +0.000 A 
ATOM     17  C   UNL     1      -2.545  13.405  20.177  0.00  0.00    +0.000 A 
ENDBRANCH   3  12
BRANCH   3  18
ATOM     18  C   UNL     1       0.321  14.532  19.843  0.00  0.00    +0.000 A 
ATOM     19  C   UNL     1       0.860  15.057  21.029  0.00  0.00    +0.000 A 
ATOM     20  C   UNL     1       1.317  16.376  21.100  0.00  0.00    +0.000 A 
ATOM     21  C   UNL     1       1.253  17.202  19.984  0.00  0.00    +0.000 A 
ATOM     22  C   UNL     1       0.725  16.711  18.798  0.00  0.00    +0.000 A 
ATOM     23  C   UNL     1       0.268  15.392  18.728  0.00  0.00    +0.000 A 
ENDBRANCH   3  18
BRANCH   4  24
ATOM     24  C   UNL     1      -1.163  10.856  18.366  0.00  0.00    +0.000 A 
ATOM     25  C   UNL     1      -1.498  11.690  17.300  0.00  0.00    +0.000 A 
ATOM     26  C   UNL     1      -2.764  11.562  16.752  0.00  0.00    +0.000 A 
ATOM     27  N   UNL     1      -3.700  10.696  17.203  0.00  0.00    +0.000 NA
ATOM     28  C   UNL     1      -3.357   9.922  18.251  0.00  0.00    +0.000 A 
ATOM     29  C   UNL     1      -2.117   9.955  18.854  0.00  0.00    +0.000 A 
ENDBRANCH   4  24
TORSDOF 4
ENDMDL
MODEL 4
REMARK VINA RESULT:      -5.7      3.199      6.785
REMARK  Name = 
REMARK  4 active torsions:
REMARK  status: ('A' for Active; 'I' for Inactive)
REMARK    1  A    between atoms: N_3  and  C_4
REMARK    2  A    between atoms: N_3  and  C_10
REMARK    3  A    between atoms: N_16  and  C_17
REMARK    4  A    between atoms: N_16  and  C_23
REMARK                            x       y       z     vdW  Elec       q    Type
REMARK                         _______ _______ _______ _____ _____    ______ ____
ROOT
ATOM      1  O   UNL     1      -3.342  12.690  19.614  0.00  0.00    +0.000 OA
ATOM      2  C   UNL     1      -2.131  12.434  19.645  0.00  0.00    +0.000 C 
ATOM      3  N   UNL     1      -1.558  11.399  18.850  0.00  0.00    +0.000 N 
ATOM      4  N   UNL     1      -1.240  13.163  20.474  0.00  0.00    +0.000 N 
ENDROOT
BRANCH   4   5
ATOM      5  C   UNL     1      -1.704  13.877  21.646  0.00  0.00    +0.000 A 
ATOM      6  C   UNL     1      -2.049  13.191  22.821  0.00  0.00    +0.000 A 
ATOM      7  C   UNL     1      -2.340  13.883  24.005  0.00  0.00    +0.000 A 
ATOM      8  C   UNL     1      -2.310  15.274  24.029  0.00  0.00    +0.000 A 
ATOM      9 CL   UNL     1      -2.568  16.118  25.504  0.00  0.00    +0.000 Cl
ATOM     10  C   UNL     1      -2.052  15.982  22.864  0.00  0.00    +0.000 A 
ATOM     11  C   UNL     1      -1.768  15.287  21.682  0.00  0.00    +0.000 A 
ENDBRANCH   4   5
BRANCH   3  12
ATOM     12  C   UNL     1      -0.515  10.557  19.353  0.00  0.00    +0.000 A 
ATOM     13  C   UNL     1      -0.602   9.984  20.628  0.00  0.00    +0.000 A 
ATOM     14  C   UNL     1       0.359   9.056  21.041  0.00  0.00    +0.000 A 
ATOM     15  C   UNL     1       1.426   8.725  20.202  0.00  0.00    +0.000 A 
ATOM     16  C   UNL     1       1.542   9.325  18.951  0.00  0.00    +0.000 A 
ATOM     17  C   UNL     1       0.573  10.232  18.525  0.00  0.00    +0.000 A 
ENDBRANCH   3  12
BRANCH   3  18
ATOM     18  C   UNL     1      -2.280  10.865  17.705  0.00  0.00    +0.000 A 
ATOM     19  C   UNL     1      -2.246  11.530  16.468  0.00  0.00    +0.000 A 
ATOM     20  C   UNL     1      -2.924  11.028  15.353  0.00  0.00    +0.000 A 
ATOM     21  C   UNL     1      -3.647   9.844  15.446  0.00  0.00    +0.000 A 
ATOM     22  C   UNL     1      -3.698   9.166  16.656  0.00  0.00    +0.000 A 
ATOM     23  C   UNL     1      -3.021   9.669  17.770  0.00  0.00    +0.000 A 
ENDBRANCH   3  18
BRANCH   4  24
ATOM     24  C   UNL     1       0.126  13.376  20.114  0.00  0.00    +0.000 A 
ATOM     25  C   UNL     1       1.164  13.042  20.984  0.00  0.00    +0.000 A 
ATOM     26  C   UNL     1       2.463  13.240  20.547  0.00  0.00    +0.000 A 
ATOM     27  N   UNL     1       2.785  13.760  19.340  0.00  0.00    +0.000 NA
ATOM     28  C   UNL     1       1.761  14.098  18.532  0.00  0.00    +0.000 A 
ATOM     29  C   UNL     1       0.434  13.920  18.862  0.00  0.00    +0.000 A 
ENDBRANCH   4  24
TORSDOF 4
ENDMDL
MODEL 5
REMARK VINA RESULT:      -5.7      2.564      6.314
REMARK  Name = 
REMARK  4 active torsions:
REMARK  status: ('A' for Active; 'I' for Inactive)
REMARK    1  A    between atoms: N_3  and  C_4
REMARK    2  A    between atoms: N_3  and  C_10
REMARK    3  A    between atoms: N_16  and  C_17
REMARK    4  A    between atoms: N_16  and  C_23
REMARK                            x       y       z     vdW  Elec       q    Type
REMARK                         _______ _______ _______ _____ _____    ______ ____
ROOT
ATOM      1  O   UNL     1       1.935  12.208  19.738  0.00  0.00    +0.000 OA
ATOM      2  C   UNL     1       0.708  12.051  19.772  0.00  0.00    +0.000 C 
ATOM      3  N   UNL     1       0.091  10.832  19.365  0.00  0.00    +0.000 N 
ATOM      4  N   UNL     1      -0.159  13.079  20.225  0.00  0.00    +0.000 N 
ENDROOT
BRANCH   4   5
ATOM      5  C   UNL     1       0.239  14.472  20.210  0.00  0.00    +0.000 A 
ATOM      6  C   UNL     1       0.611  15.129  21.392  0.00  0.00    +0.000 A 
ATOM      7  C   UNL     1       1.152  16.423  21.363  0.00  0.00    +0.000 A 
ATOM      8  C   UNL     1       1.312  17.087  20.151  0.00  0.00    +0.000 A 
ATOM      9 CL   UNL     1       2.067  18.631  20.105  0.00  0.00    +0.000 Cl
ATOM     10  C   UNL     1       0.878  16.495  18.973  0.00  0.00    +0.000 A 
ATOM     11  C   UNL     1       0.333  15.206  19.008  0.00  0.00    +0.000 A 
ENDBRANCH   4   5
BRANCH   3  12
ATOM     12  C   UNL     1      -1.145  10.822  18.642  0.00  0.00    +0.000 A 
ATOM     13  C   UNL     1      -1.355  11.684  17.558  0.00  0.00    +0.000 A 
ATOM     14  C   UNL     1      -2.511  11.558  16.783  0.00  0.00    +0.000 A 
ATOM     15  C   UNL     1      -3.476  10.601  17.106  0.00  0.00    +0.000 A 
ATOM     16  C   UNL     1      -3.294   9.771  18.208  0.00  0.00    +0.000 A 
ATOM     17  C   UNL     1      -2.131   9.876  18.970  0.00  0.00    +0.000 A 
ENDBRANCH   3  12
BRANCH   3  18
ATOM     18  C   UNL     1       0.874   9.610  19.261  0.00  0.00    +0.000 A 
ATOM     19  C   UNL     1       1.487   9.258  18.047  0.00  0.00    +0.000 A 
ATOM     20  C   UNL     1       2.252   8.094  17.930  0.00  0.00    +0.000 A 
ATOM     21  C   UNL     1       2.429   7.256  19.025  0.00  0.00    +0.000 A 
ATOM     22  C   UNL     1       1.834   7.579  20.237  0.00  0.00    +0.000 A 
ATOM     23  C   UNL     1       1.069   8.742  20.354  0.00  0.00    +0.000 A 
ENDBRANCH   3  18
BRANCH   4  24
ATOM     24  C   UNL     1      -1.399  12.792  20.876  0.00  0.00    +0.000 A 
ATOM     25  C   UNL     1      -1.436  12.098  22.085  0.00  0.00    +0.000 A 
ATOM     26  C   UNL     1      -2.673  11.894  22.676  0.00  0.00    +0.000 A 
ATOM     27  N   UNL     1      -3.845  12.307  22.140  0.00  0.00    +0.000 NA
ATOM     28  C   UNL     1      -3.779  12.952  20.958  0.00  0.00    +0.000 A 
ATOM     29  C   UNL     1      -2.599  13.225  20.300  0.00  0.00    +0.000 A 
ENDBRANCH   4  24
TORSDOF 4
ENDMDL
MODEL 6
REMARK VINA RESULT:      -5.6      8.451     10.758
REMARK  Name = 
REMARK  4 active torsions:
REMARK  status: ('A' for Active; 'I' for Inactive)
REMARK    1  A    between atoms: N_3  and  C_4
REMARK    2  A    between atoms: N_3  and  C_10
REMARK    3  A    between atoms: N_16  and  C_17
REMARK    4  A    between atoms: N_16  and  C_23
REMARK                            x       y       z     vdW  Elec       q    Type
REMARK                         _______ _______ _______ _____ _____    ______ ____
ROOT
ATOM      1  O   UNL     1       8.741  11.512  22.095  0.00  0.00    +0.000 OA
ATOM      2  C   UNL     1       8.486  12.720  22.004  0.00  0.00    +0.000 C 
ATOM      3  N   UNL     1       9.158  13.566  21.075  0.00  0.00    +0.000 N 
ATOM      4  N   UNL     1       7.501  13.333  22.821  0.00  0.00    +0.000 N 
ENDROOT
BRANCH   4   5
ATOM      5  C   UNL     1       7.096  12.756  24.087  0.00  0.00    +0.000 A 
ATOM      6  C   UNL     1       6.034  11.842  24.156  0.00  0.00    +0.000 A 
ATOM      7  C   UNL     1       5.744  11.157  25.346  0.00  0.00    +0.000 A 
ATOM      8  C   UNL     1       6.499  11.393  26.491  0.00  0.00    +0.000 A 
ATOM      9 CL   UNL     1       6.207  10.481  27.919  0.00  0.00    +0.000 Cl
ATOM     10  C   UNL     1       7.502  12.351  26.475  0.00  0.00    +0.000 A 
ATOM     11  C   UNL     1       7.784  13.036  25.287  0.00  0.00    +0.000 A 
ENDBRANCH   4   5
BRANCH   3  12
ATOM     12  C   UNL     1       9.529  14.906  21.413  0.00  0.00    +0.000 A 
ATOM     13  C   UNL     1      10.232  15.185  22.592  0.00  0.00    +0.000 A 
ATOM     14  C   UNL     1      10.704  16.479  22.831  0.00  0.00    +0.000 A 
ATOM     15  C   UNL     1      10.447  17.504  21.917  0.00  0.00    +0.000 A 
ATOM     16  C   UNL     1       9.712  17.243  20.764  0.00  0.00    +0.000 A 
ATOM     17  C   UNL     1       9.259  15.948  20.509  0.00  0.00    +0.000 A 
ENDBRANCH   3  12
BRANCH   3  18
ATOM     18  C   UNL     1       9.880  12.994  19.948  0.00  0.00    +0.000 A 
ATOM     19  C   UNL     1      11.241  12.668  20.065  0.00  0.00    +0.000 A 
ATOM     20  C   UNL     1      11.950  12.108  18.998  0.00  0.00    +0.000 A 
ATOM     21  C   UNL     1      11.313  11.854  17.789  0.00  0.00    +0.000 A 
ATOM     22  C   UNL     1       9.968  12.166  17.644  0.00  0.00    +0.000 A 
ATOM     23  C   UNL     1       9.261  12.726  18.711  0.00  0.00    +0.000 A 
ENDBRANCH   3  18
BRANCH   4  24
ATOM     24  C   UNL     1       6.734  14.453  22.372  0.00  0.00    +0.000 A 
ATOM     25  C   UNL     1       5.992  14.394  21.193  0.00  0.00    +0.000 A 
ATOM     26  C   UNL     1       5.241  15.505  20.846  0.00  0.00    +0.000 A 
ATOM     27  N   UNL     1       5.204  16.649  21.567  0.00  0.00    +0.000 NA
ATOM     28  C   UNL     1       5.952  16.685  22.687  0.00  0.00    +0.000 A 
ATOM     29  C   UNL     1       6.716  15.627  23.133  0.00  0.00    +0.000 A 
ENDBRANCH   4  24
TORSDOF 4
ENDMDL
MODEL 7
REMARK VINA RESULT:      -5.6      2.772      5.135
REMARK  Name = 
REMARK  4 active torsions:
REMARK  status: ('A' for Active; 'I' for Inactive)
REMARK    1  A    between atoms: N_3  and  C_4
REMARK    2  A    between atoms: N_3  and  C_10
REMARK    3  A    between atoms: N_16  and  C_17
REMARK    4  A    between atoms: N_16  and  C_23
REMARK                            x       y       z     vdW  Elec       q    Type
REMARK                         _______ _______ _______ _____ _____    ______ ____
ROOT
ATOM      1  O   UNL     1      -3.921  12.257  19.783  0.00  0.00    +0.000 OA
ATOM      2  C   UNL     1      -2.696  12.089  19.832  0.00  0.00    +0.000 C 
ATOM      3  N   UNL     1      -1.877  12.779  20.773  0.00  0.00    +0.000 N 
ATOM      4  N   UNL     1      -2.034  11.194  18.954  0.00  0.00    +0.000 N 
ENDROOT
BRANCH   4   5
ATOM      5  C   UNL     1      -2.614  10.806  17.684  0.00  0.00    +0.000 A 
ATOM      6  C   UNL     1      -3.704  11.505  17.145  0.00  0.00    +0.000 A 
ATOM      7  C   UNL     1      -4.164  11.241  15.846  0.00  0.00    +0.000 A 
ATOM      8  C   UNL     1      -3.552  10.258  15.073  0.00  0.00    +0.000 A 
ATOM      9 CL   UNL     1      -4.050  10.004  13.448  0.00  0.00    +0.000 Cl
ATOM     10  C   UNL     1      -2.525   9.495  15.609  0.00  0.00    +0.000 A 
ATOM     11  C   UNL     1      -2.073   9.758  16.907  0.00  0.00    +0.000 A 
ENDBRANCH   4   5
BRANCH   3  12
ATOM     12  C   UNL     1      -0.577  13.266  20.421  0.00  0.00    +0.000 A 
ATOM     13  C   UNL     1       0.544  12.960  21.202  0.00  0.00    +0.000 A 
ATOM     14  C   UNL     1       1.819  13.328  20.764  0.00  0.00    +0.000 A 
ATOM     15  C   UNL     1       1.978  14.032  19.568  0.00  0.00    +0.000 A 
ATOM     16  C   UNL     1       0.863  14.378  18.808  0.00  0.00    +0.000 A 
ATOM     17  C   UNL     1      -0.409  13.991  19.230  0.00  0.00    +0.000 A 
ENDBRANCH   3  12
BRANCH   3  18
ATOM     18  C   UNL     1      -2.469  13.402  21.947  0.00  0.00    +0.000 A 
ATOM     19  C   UNL     1      -2.678  14.790  21.989  0.00  0.00    +0.000 A 
ATOM     20  C   UNL     1      -3.256  15.406  23.103  0.00  0.00    +0.000 A 
ATOM     21  C   UNL     1      -3.645  14.648  24.201  0.00  0.00    +0.000 A 
ATOM     22  C   UNL     1      -3.450  13.274  24.188  0.00  0.00    +0.000 A 
ATOM     23  C   UNL     1      -2.873  12.659  23.075  0.00  0.00    +0.000 A 
ENDBRANCH   3  18
BRANCH   4  24
ATOM     24  C   UNL     1      -0.848  10.493  19.337  0.00  0.00    +0.000 A 
ATOM     25  C   UNL     1      -0.791   9.767  20.527  0.00  0.00    +0.000 A 
ATOM     26  C   UNL     1       0.379   9.081  20.810  0.00  0.00    +0.000 A 
ATOM     27  N   UNL     1       1.474   9.093  20.015  0.00  0.00    +0.000 NA
ATOM     28  C   UNL     1       1.398   9.824  18.886  0.00  0.00    +0.000 A 
ATOM     29  C   UNL     1       0.274  10.524  18.501  0.00  0.00    +0.000 A 
ENDBRANCH   4  24
TORSDOF 4
ENDMDL
MODEL 8
REMARK VINA RESULT:      -5.6      7.571     10.208
REMARK  Name = 
REMARK  4 active torsions:
REMARK  status: ('A' for Active; 'I' for Inactive)
REMARK    1  A    between atoms: N_3  and  C_4
REMARK    2  A    between atoms: N_3  and  C_10
REMARK    3  A    between atoms: N_16  and  C_17
REMARK    4  A    between atoms: N_16  and  C_23
REMARK                            x       y       z     vdW  Elec       q    Type
REMARK                         _______ _______ _______ _____ _____    ______ ____
ROOT
ATOM      1  O   UNL     1       6.820  14.148  17.541  0.00  0.00    +0.000 OA
ATOM      2  C   UNL     1       7.113  14.648  18.636  0.00  0.00    +0.000 C 
ATOM      3  N   UNL     1       8.374  14.418  19.258  0.00  0.00    +0.000 N 
ATOM      4  N   UNL     1       6.206  15.487  19.334  0.00  0.00    +0.000 N 
ENDROOT
BRANCH   4   5
ATOM      5  C   UNL     1       4.778  15.429  19.094  0.00  0.00    +0.000 A 
ATOM      6  C   UNL     1       3.969  14.503  19.769  0.00  0.00    +0.000 A 
ATOM      7  C   UNL     1       2.571  14.551  19.666  0.00  0.00    +0.000 A 
ATOM      8  C   UNL     1       1.961  15.514  18.868  0.00  0.00    +0.000 A 
ATOM      9 CL   UNL     1       0.246  15.636  18.821  0.00  0.00    +0.000 Cl
ATOM     10  C   UNL     1       2.737  16.391  18.125  0.00  0.00    +0.000 A 
ATOM     11  C   UNL     1       4.132  16.336  18.226  0.00  0.00    +0.000 A 
ENDBRANCH   4   5
BRANCH   3  12
ATOM     12  C   UNL     1       8.490  14.240  20.674  0.00  0.00    +0.000 A 
ATOM     13  C   UNL     1       9.415  14.979  21.421  0.00  0.00    +0.000 A 
ATOM     14  C   UNL     1       9.414  14.889  22.816  0.00  0.00    +0.000 A 
ATOM     15  C   UNL     1       8.518  14.039  23.467  0.00  0.00    +0.000 A 
ATOM     16  C   UNL     1       7.625  13.268  22.728  0.00  0.00    +0.000 A 
ATOM     17  C   UNL     1       7.606  13.372  21.337  0.00  0.00    +0.000 A 
ENDBRANCH   3  12
BRANCH   3  18
ATOM     18  C   UNL     1       9.497  13.916  18.481  0.00  0.00    +0.000 A 
ATOM     19  C   UNL     1      10.357  14.805  17.815  0.00  0.00    +0.000 A 
ATOM     20  C   UNL     1      11.448  14.344  17.072  0.00  0.00    +0.000 A 
ATOM     21  C   UNL     1      11.711  12.982  16.984  0.00  0.00    +0.000 A 
ATOM     22  C   UNL     1      10.878  12.080  17.631  0.00  0.00    +0.000 A 
ATOM     23  C   UNL     1       9.787  12.541  18.373  0.00  0.00    +0.000 A 
ENDBRANCH   3  18
BRANCH   4  24
ATOM     24  C   UNL     1       6.653  16.546  20.182  0.00  0.00    +0.000 A 
ATOM     25  C   UNL     1       7.526  17.528  19.714  0.00  0.00    +0.000 A 
ATOM     26  C   UNL     1       7.882  18.545  20.584  0.00  0.00    +0.000 A 
ATOM     27  N   UNL     1       7.453  18.630  21.864  0.00  0.00    +0.000 NA
ATOM     28  C   UNL     1       6.631  17.654  22.296  0.00  0.00    +0.000 A 
ATOM     29  C   UNL     1       6.200  16.610  21.505  0.00  0.00    +0.000 A 
ENDBRANCH   4  24
TORSDOF 4
ENDMDL
MODEL 9
REMARK VINA RESULT:      -5.6      7.607     10.286
REMARK  Name = 
REMARK  4 active torsions:
REMARK  status: ('A' for Active; 'I' for Inactive)
REMARK    1  A    between atoms: N_3  and  C_4
REMARK    2  A    between atoms: N_3  and  C_10
REMARK    3  A    between atoms: N_16  and  C_17
REMARK    4  A    between atoms: N_16  and  C_23
REMARK                            x       y       z     vdW  Elec       q    Type
REMARK                         _______ _______ _______ _____ _____    ______ ____
ROOT
ATOM      1  O   UNL     1       6.836  14.242  17.520  0.00  0.00    +0.000 OA
ATOM      2  C   UNL     1       7.131  14.725  18.621  0.00  0.00    +0.000 C 
ATOM      3  N   UNL     1       8.400  14.500  19.229  0.00  0.00    +0.000 N 
ATOM      4  N   UNL     1       6.219  15.540  19.341  0.00  0.00    +0.000 N 
ENDROOT
BRANCH   4   5
ATOM      5  C   UNL     1       4.790  15.469  19.111  0.00  0.00    +0.000 A 
ATOM      6  C   UNL     1       4.003  14.503  19.755  0.00  0.00    +0.000 A 
ATOM      7  C   UNL     1       2.603  14.532  19.666  0.00  0.00    +0.000 A 
ATOM      8  C   UNL     1       1.970  15.516  18.914  0.00  0.00    +0.000 A 
ATOM      9 CL   UNL     1       0.254  15.612  18.887  0.00  0.00    +0.000 Cl
ATOM     10  C   UNL     1       2.725  16.436  18.200  0.00  0.00    +0.000 A 
ATOM     11  C   UNL     1       4.122  16.400  18.287  0.00  0.00    +0.000 A 
ENDBRANCH   4   5
BRANCH   3  12
ATOM     12  C   UNL     1       8.530  14.298  20.640  0.00  0.00    +0.000 A 
ATOM     13  C   UNL     1       9.451  15.036  21.394  0.00  0.00    +0.000 A 
ATOM     14  C   UNL     1       9.462  14.921  22.787  0.00  0.00    +0.000 A 
ATOM     15  C   UNL     1       8.582  14.047  23.429  0.00  0.00    +0.000 A 
ATOM     16  C   UNL     1       7.694  13.278  22.683  0.00  0.00    +0.000 A 
ATOM     17  C   UNL     1       7.662  13.407  21.295  0.00  0.00    +0.000 A 
ENDBRANCH   3  12
BRANCH   3  18
ATOM     18  C   UNL     1       9.523  14.027  18.434  0.00  0.00    +0.000 A 
ATOM     19  C   UNL     1       9.812  12.654  18.354  0.00  0.00    +0.000 A 
ATOM     20  C   UNL     1      10.880  12.178  17.588  0.00  0.00    +0.000 A 
ATOM     21  C   UNL     1      11.682  13.063  16.877  0.00  0.00    +0.000 A 
ATOM     22  C   UNL     1      11.421  14.425  16.937  0.00  0.00    +0.000 A 
ATOM     23  C   UNL     1      10.354  14.900  17.704  0.00  0.00    +0.000 A 
ENDBRANCH   3  18
BRANCH   4  24
ATOM     24  C   UNL     1       6.660  16.590  20.205  0.00  0.00    +0.000 A 
ATOM     25  C   UNL     1       6.251  16.649  21.537  0.00  0.00    +0.000 A 
ATOM     26  C   UNL     1       6.755  17.674  22.322  0.00  0.00    +0.000 A 
ATOM     27  N   UNL     1       7.597  18.630  21.869  0.00  0.00    +0.000 NA
ATOM     28  C   UNL     1       7.954  18.562  20.572  0.00  0.00    +0.000 A 
ATOM     29  C   UNL     1       7.528  17.571  19.712  0.00  0.00    +0.000 A 
ENDBRANCH   4  24
TORSDOF 4
ENDMDL
