MODEL 1
REMARK VINA RESULT:      -7.8      0.000      0.000
REMARK  Name = 
REMARK  8 active torsions:
REMARK  status: ('A' for Active; 'I' for Inactive)
REMARK    1  A    between atoms: C_2  and  C_18
REMARK    2  A    between atoms: N_3  and  C_4
REMARK    3  A    between atoms: C_7  and  O_8
REMARK    4  A    between atoms: O_8  and  C_9
REMARK    5  A    between atoms: C_9  and  C_10
REMARK    6  A    between atoms: N_22  and  C_23
REMARK    7  A    between atoms: C_23  and  C_24
REMARK    8  A    between atoms: C_24  and  C_25
REMARK                            x       y       z     vdW  Elec       q    Type
REMARK                         _______ _______ _______ _____ _____    ______ ____
ROOT
ATOM      1  O   UNL     1       2.292   5.657  17.798  0.00  0.00    +0.000 OA
ATOM      2  C   UNL     1       3.293   6.364  17.753  0.00  0.00    +0.000 C 
ATOM      3  N   UNL     1       3.308   7.702  18.131  0.00  0.00    +0.000 N 
ATOM      4  H   UNL     1       4.158   8.226  17.992  0.00  0.00    +0.000 HD
ENDROOT
BRANCH   3   5
ATOM      5  C   UNL     1       2.197   8.427  18.625  0.00  0.00    +0.000 A 
ATOM      6  C   UNL     1       1.752   8.300  19.940  0.00  0.00    +0.000 A 
ATOM      7  C   UNL     1       0.652   9.015  20.398  0.00  0.00    +0.000 A 
ATOM      8  C   UNL     1      -0.001   9.912  19.564  0.00  0.00    +0.000 A 
ATOM      9  C   UNL     1       0.409  10.030  18.234  0.00  0.00    +0.000 A 
ATOM     10  C   UNL     1       1.518   9.303  17.770  0.00  0.00    +0.000 A 
BRANCH   8  11
ATOM     11  O   UNL     1      -1.032  10.710  19.970  0.00  0.00    +0.000 OA
BRANCH  11  12
ATOM     12  C   UNL     1      -1.272  11.830  19.109  0.00  0.00    +0.000 C 
BRANCH  12  13
ATOM     13  C   UNL     1      -2.667  11.723  18.565  0.00  0.00    +0.000 A 
ATOM     14  C   UNL     1      -2.894  11.238  17.271  0.00  0.00    +0.000 A 
ATOM     15  C   UNL     1      -4.189  11.195  16.758  0.00  0.00    +0.000 A 
ATOM     16  C   UNL     1      -5.262  11.636  17.532  0.00  0.00    +0.000 A 
ATOM     17  C   UNL     1      -5.046  12.107  18.825  0.00  0.00    +0.000 A 
ATOM     18  C   UNL     1      -3.753  12.152  19.340  0.00  0.00    +0.000 A 
ENDBRANCH  12  13
ENDBRANCH  11  12
ENDBRANCH   8  11
ENDBRANCH   3   5
BRANCH   2  19
ATOM     19  C   UNL     1       4.544   5.838  17.251  0.00  0.00    +0.000 A 
ATOM     20  C   UNL     1       5.119   5.949  15.994  0.00  0.00    +0.000 A 
ATOM     21  C   UNL     1       6.278   5.164  16.036  0.00  0.00    +0.000 A 
ATOM     22  N   UNL     1       6.464   4.604  17.226  0.00  0.00    +0.000 NA
ATOM     23  N   UNL     1       5.410   5.023  17.965  0.00  0.00    +0.000 N 
BRANCH  23  24
ATOM     24  C   UNL     1       5.319   4.529  19.337  0.00  0.00    +0.000 C 
BRANCH  24  25
ATOM     25  C   UNL     1       4.794   3.093  19.418  0.00  0.00    +0.000 C 
BRANCH  25  26
ATOM     26  C   UNL     1       3.288   3.002  19.537  0.00  0.00    +0.000 A 
ATOM     27  C   UNL     1       2.615   3.677  20.564  0.00  0.00    +0.000 A 
ATOM     28  C   UNL     1       1.230   3.605  20.611  0.00  0.00    +0.000 A 
ATOM     29  N   UNL     1       0.484   2.906  19.729  0.00  0.00    +0.000 NA
ATOM     30  C   UNL     1       1.152   2.253  18.756  0.00  0.00    +0.000 A 
ATOM     31  C   UNL     1       2.535   2.265  18.626  0.00  0.00    +0.000 A 
ENDBRANCH  25  26
ENDBRANCH  24  25
ENDBRANCH  23  24
ENDBRANCH   2  19
TORSDOF 8
ENDMDL
MODEL 2
REMARK VINA RESULT:      -7.8      1.644      3.819
REMARK  Name = 
REMARK  8 active torsions:
REMARK  status: ('A' for Active; 'I' for Inactive)
REMARK    1  A    between atoms: C_2  and  C_18
REMARK    2  A    between atoms: N_3  and  C_4
REMARK    3  A    between atoms: C_7  and  O_8
REMARK    4  A    between atoms: O_8  and  C_9
REMARK    5  A    between atoms: C_9  and  C_10
REMARK    6  A    between atoms: N_22  and  C_23
REMARK    7  A    between atoms: C_23  and  C_24
REMARK    8  A    between atoms: C_24  and  C_25
REMARK                            x       y       z     vdW  Elec       q    Type
REMARK                         _______ _______ _______ _____ _____    ______ ____
ROOT
ATOM      1  O   UNL     1       1.097   4.686  19.158  0.00  0.00    +0.000 OA
ATOM      2  C   UNL     1       2.296   4.824  19.377  0.00  0.00    +0.000 C 
ATOM      3  N   UNL     1       2.930   6.061  19.443  0.00  0.00    +0.000 N 
ATOM      4  H   UNL     1       3.931   6.077  19.556  0.00  0.00    +0.000 HD
ENDROOT
BRANCH   3   5
ATOM      5  C   UNL     1       2.296   7.316  19.284  0.00  0.00    +0.000 A 
ATOM      6  C   UNL     1       2.299   8.001  18.070  0.00  0.00    +0.000 A 
ATOM      7  C   UNL     1       1.678   9.238  17.941  0.00  0.00    +0.000 A 
ATOM      8  C   UNL     1       0.998   9.798  19.015  0.00  0.00    +0.000 A 
ATOM      9  C   UNL     1       1.012   9.144  20.248  0.00  0.00    +0.000 A 
ATOM     10  C   UNL     1       1.644   7.896  20.378  0.00  0.00    +0.000 A 
BRANCH   8  11
ATOM     11  O   UNL     1       0.295  10.966  18.937  0.00  0.00    +0.000 OA
BRANCH  11  12
ATOM     12  C   UNL     1      -1.037  10.876  19.459  0.00  0.00    +0.000 C 
BRANCH  12  13
ATOM     13  C   UNL     1      -2.001  10.852  18.309  0.00  0.00    +0.000 A 
ATOM     14  C   UNL     1      -3.169  11.624  18.338  0.00  0.00    +0.000 A 
ATOM     15  C   UNL     1      -4.081  11.551  17.288  0.00  0.00    +0.000 A 
ATOM     16  C   UNL     1      -3.834  10.708  16.206  0.00  0.00    +0.000 A 
ATOM     17  C   UNL     1      -2.668   9.947  16.162  0.00  0.00    +0.000 A 
ATOM     18  C   UNL     1      -1.754  10.017  17.210  0.00  0.00    +0.000 A 
ENDBRANCH  12  13
ENDBRANCH  11  12
ENDBRANCH   8  11
ENDBRANCH   3   5
BRANCH   2  19
ATOM     19  C   UNL     1       3.152   3.669  19.545  0.00  0.00    +0.000 A 
ATOM     20  C   UNL     1       3.560   3.021  20.701  0.00  0.00    +0.000 A 
ATOM     21  C   UNL     1       4.460   2.032  20.286  0.00  0.00    +0.000 A 
ATOM     22  N   UNL     1       4.612   2.014  18.966  0.00  0.00    +0.000 NA
ATOM     23  N   UNL     1       3.808   3.007  18.519  0.00  0.00    +0.000 N 
BRANCH  23  24
ATOM     24  C   UNL     1       3.795   3.257  17.079  0.00  0.00    +0.000 C 
BRANCH  24  25
ATOM     25  C   UNL     1       5.198   3.453  16.497  0.00  0.00    +0.000 C 
BRANCH  25  26
ATOM     26  C   UNL     1       5.869   4.733  16.949  0.00  0.00    +0.000 A 
ATOM     27  C   UNL     1       5.321   5.978  16.615  0.00  0.00    +0.000 A 
ATOM     28  C   UNL     1       5.942   7.126  17.087  0.00  0.00    +0.000 A 
ATOM     29  N   UNL     1       7.061   7.118  17.841  0.00  0.00    +0.000 NA
ATOM     30  C   UNL     1       7.581   5.910  18.139  0.00  0.00    +0.000 A 
ATOM     31  C   UNL     1       7.033   4.706  17.715  0.00  0.00    +0.000 A 
ENDBRANCH  25  26
ENDBRANCH  24  25
ENDBRANCH  23  24
ENDBRANCH   2  19
TORSDOF 8
ENDMDL
MODEL 3
REMARK VINA RESULT:      -7.8      1.977      2.529
REMARK  Name = 
REMARK  8 active torsions:
REMARK  status: ('A' for Active; 'I' for Inactive)
REMARK    1  A    between atoms: C_2  and  C_18
REMARK    2  A    between atoms: N_3  and  C_4
REMARK    3  A    between atoms: C_7  and  O_8
REMARK    4  A    between atoms: O_8  and  C_9
REMARK    5  A    between atoms: C_9  and  C_10
REMARK    6  A    between atoms: N_22  and  C_23
REMARK    7  A    between atoms: C_23  and  C_24
REMARK    8  A    between atoms: C_24  and  C_25
REMARK                            x       y       z     vdW  Elec       q    Type
REMARK                         _______ _______ _______ _____ _____    ______ ____
ROOT
ATOM      1  O   UNL     1       5.461   7.044  17.969  0.00  0.00    +0.000 OA
ATOM      2  C   UNL     1       4.685   6.364  17.304  0.00  0.00    +0.000 C 
ATOM      3  N   UNL     1       3.302   6.416  17.445  0.00  0.00    +0.000 N 
ATOM      4  H   UNL     1       2.746   5.770  16.908  0.00  0.00    +0.000 HD
ENDROOT
BRANCH   3   5
ATOM      5  C   UNL     1       2.600   7.251  18.345  0.00  0.00    +0.000 A 
ATOM      6  C   UNL     1       2.409   6.907  19.683  0.00  0.00    +0.000 A 
ATOM      7  C   UNL     1       1.706   7.739  20.546  0.00  0.00    +0.000 A 
ATOM      8  C   UNL     1       1.218   8.961  20.102  0.00  0.00    +0.000 A 
ATOM      9  C   UNL     1       1.371   9.309  18.759  0.00  0.00    +0.000 A 
ATOM     10  C   UNL     1       2.076   8.465  17.886  0.00  0.00    +0.000 A 
BRANCH   8  11
ATOM     11  O   UNL     1       0.595   9.866  20.913  0.00  0.00    +0.000 OA
BRANCH  11  12
ATOM     12  C   UNL     1       0.095  11.017  20.221  0.00  0.00    +0.000 C 
BRANCH  12  13
ATOM     13  C   UNL     1      -1.073  11.566  20.988  0.00  0.00    +0.000 A 
ATOM     14  C   UNL     1      -2.063  12.316  20.341  0.00  0.00    +0.000 A 
ATOM     15  C   UNL     1      -3.113  12.865  21.074  0.00  0.00    +0.000 A 
ATOM     16  C   UNL     1      -3.179  12.671  22.453  0.00  0.00    +0.000 A 
ATOM     17  C   UNL     1      -2.205  11.914  23.102  0.00  0.00    +0.000 A 
ATOM     18  C   UNL     1      -1.154  11.364  22.373  0.00  0.00    +0.000 A 
ENDBRANCH  12  13
ENDBRANCH  11  12
ENDBRANCH   8  11
ENDBRANCH   3   5
BRANCH   2  19
ATOM     19  C   UNL     1       5.184   5.413  16.334  0.00  0.00    +0.000 A 
ATOM     20  C   UNL     1       5.643   5.614  15.041  0.00  0.00    +0.000 A 
ATOM     21  C   UNL     1       5.905   4.338  14.528  0.00  0.00    +0.000 A 
ATOM     22  N   UNL     1       5.663   3.380  15.416  0.00  0.00    +0.000 NA
ATOM     23  N   UNL     1       5.232   4.040  16.516  0.00  0.00    +0.000 N 
BRANCH  23  24
ATOM     24  C   UNL     1       4.846   3.231  17.670  0.00  0.00    +0.000 C 
BRANCH  24  25
ATOM     25  C   UNL     1       3.385   2.774  17.614  0.00  0.00    +0.000 C 
BRANCH  25  26
ATOM     26  C   UNL     1       2.646   2.937  18.925  0.00  0.00    +0.000 A 
ATOM     27  C   UNL     1       3.260   2.585  20.133  0.00  0.00    +0.000 A 
ATOM     28  C   UNL     1       2.565   2.793  21.316  0.00  0.00    +0.000 A 
ATOM     29  N   UNL     1       1.316   3.303  21.375  0.00  0.00    +0.000 NA
ATOM     30  C   UNL     1       0.738   3.621  20.199  0.00  0.00    +0.000 A 
ATOM     31  C   UNL     1       1.352   3.452  18.965  0.00  0.00    +0.000 A 
ENDBRANCH  25  26
ENDBRANCH  24  25
ENDBRANCH  23  24
ENDBRANCH   2  19
TORSDOF 8
ENDMDL
MODEL 4
REMARK VINA RESULT:      -7.7      1.640      3.820
REMARK  Name = 
REMARK  8 active torsions:
REMARK  status: ('A' for Active; 'I' for Inactive)
REMARK    1  A    between atoms: C_2  and  C_18
REMARK    2  A    between atoms: N_3  and  C_4
REMARK    3  A    between atoms: C_7  and  O_8
REMARK    4  A    between atoms: O_8  and  C_9
REMARK    5  A    between atoms: C_9  and  C_10
REMARK    6  A    between atoms: N_22  and  C_23
REMARK    7  A    between atoms: C_23  and  C_24
REMARK    8  A    between atoms: C_24  and  C_25
REMARK                            x       y       z     vdW  Elec       q    Type
REMARK                         _______ _______ _______ _____ _____    ______ ____
ROOT
ATOM      1  O   UNL     1       1.435   5.186  17.855  0.00  0.00    +0.000 OA
ATOM      2  C   UNL     1       2.382   5.229  18.634  0.00  0.00    +0.000 C 
ATOM      3  N   UNL     1       2.788   6.388  19.288  0.00  0.00    +0.000 N 
ATOM      4  H   UNL     1       3.621   6.346  19.854  0.00  0.00    +0.000 HD
ENDROOT
BRANCH   3   5
ATOM      5  C   UNL     1       2.175   7.657  19.166  0.00  0.00    +0.000 A 
ATOM      6  C   UNL     1       2.272   8.420  18.003  0.00  0.00    +0.000 A 
ATOM      7  C   UNL     1       1.669   9.669  17.911  0.00  0.00    +0.000 A 
ATOM      8  C   UNL     1       0.913  10.164  18.965  0.00  0.00    +0.000 A 
ATOM      9  C   UNL     1       0.831   9.430  20.150  0.00  0.00    +0.000 A 
ATOM     10  C   UNL     1       1.445   8.170  20.244  0.00  0.00    +0.000 A 
BRANCH   8  11
ATOM     11  O   UNL     1       0.224  11.342  18.912  0.00  0.00    +0.000 OA
BRANCH  11  12
ATOM     12  C   UNL     1      -1.088  11.271  19.486  0.00  0.00    +0.000 C 
BRANCH  12  13
ATOM     13  C   UNL     1      -2.079  11.026  18.386  0.00  0.00    +0.000 A 
ATOM     14  C   UNL     1      -1.781  10.142  17.340  0.00  0.00    +0.000 A 
ATOM     15  C   UNL     1      -2.687   9.965  16.297  0.00  0.00    +0.000 A 
ATOM     16  C   UNL     1      -3.892  10.668  16.290  0.00  0.00    +0.000 A 
ATOM     17  C   UNL     1      -4.201  11.537  17.334  0.00  0.00    +0.000 A 
ATOM     18  C   UNL     1      -3.298  11.718  18.378  0.00  0.00    +0.000 A 
ENDBRANCH  12  13
ENDBRANCH  11  12
ENDBRANCH   8  11
ENDBRANCH   3   5
BRANCH   2  19
ATOM     19  C   UNL     1       3.177   4.048  18.892  0.00  0.00    +0.000 A 
ATOM     20  C   UNL     1       3.242   3.245  20.020  0.00  0.00    +0.000 A 
ATOM     21  C   UNL     1       4.248   2.306  19.762  0.00  0.00    +0.000 A 
ATOM     22  N   UNL     1       4.783   2.462  18.555  0.00  0.00    +0.000 NA
ATOM     23  N   UNL     1       4.123   3.519  18.027  0.00  0.00    +0.000 N 
BRANCH  23  24
ATOM     24  C   UNL     1       4.528   3.960  16.694  0.00  0.00    +0.000 C 
BRANCH  24  25
ATOM     25  C   UNL     1       6.047   3.936  16.497  0.00  0.00    +0.000 C 
BRANCH  25  26
ATOM     26  C   UNL     1       6.769   5.061  17.206  0.00  0.00    +0.000 A 
ATOM     27  C   UNL     1       6.737   6.362  16.689  0.00  0.00    +0.000 A 
ATOM     28  C   UNL     1       7.374   7.374  17.394  0.00  0.00    +0.000 A 
ATOM     29  N   UNL     1       8.043   7.178  18.550  0.00  0.00    +0.000 NA
ATOM     30  C   UNL     1       8.073   5.915  19.023  0.00  0.00    +0.000 A 
ATOM     31  C   UNL     1       7.467   4.838  18.392  0.00  0.00    +0.000 A 
ENDBRANCH  25  26
ENDBRANCH  24  25
ENDBRANCH  23  24
ENDBRANCH   2  19
TORSDOF 8
ENDMDL
MODEL 5
REMARK VINA RESULT:      -7.7      2.061      2.785
REMARK  Name = 
REMARK  8 active torsions:
REMARK  status: ('A' for Active; 'I' for Inactive)
REMARK    1  A    between atoms: C_2  and  C_18
REMARK    2  A    between atoms: N_3  and  C_4
REMARK    3  A    between atoms: C_7  and  O_8
REMARK    4  A    between atoms: O_8  and  C_9
REMARK    5  A    between atoms: C_9  and  C_10
REMARK    6  A    between atoms: N_22  and  C_23
REMARK    7  A    between atoms: C_23  and  C_24
REMARK    8  A    between atoms: C_24  and  C_25
REMARK                            x       y       z     vdW  Elec       q    Type
REMARK                         _______ _______ _______ _____ _____    ______ ____
ROOT
ATOM      1  O   UNL     1       5.074   5.907  19.031  0.00  0.00    +0.000 OA
ATOM      2  C   UNL     1       4.550   5.964  17.924  0.00  0.00    +0.000 C 
ATOM      3  N   UNL     1       3.339   6.603  17.677  0.00  0.00    +0.000 N 
ATOM      4  H   UNL     1       2.947   6.538  16.751  0.00  0.00    +0.000 HD
ENDROOT
BRANCH   3   5
ATOM      5  C   UNL     1       2.557   7.279  18.644  0.00  0.00    +0.000 A 
ATOM      6  C   UNL     1       2.065   8.566  18.434  0.00  0.00    +0.000 A 
ATOM      7  C   UNL     1       1.308   9.213  19.403  0.00  0.00    +0.000 A 
ATOM      8  C   UNL     1       0.983   8.567  20.589  0.00  0.00    +0.000 A 
ATOM      9  C   UNL     1       1.493   7.290  20.832  0.00  0.00    +0.000 A 
ATOM     10  C   UNL     1       2.263   6.639  19.854  0.00  0.00    +0.000 A 
BRANCH   8  11
ATOM     11  O   UNL     1       0.173   9.107  21.547  0.00  0.00    +0.000 OA
BRANCH  11  12
ATOM     12  C   UNL     1       0.456  10.481  21.837  0.00  0.00    +0.000 C 
BRANCH  12  13
ATOM     13  C   UNL     1      -0.841  11.235  21.893  0.00  0.00    +0.000 A 
ATOM     14  C   UNL     1      -1.354  11.860  20.750  0.00  0.00    +0.000 A 
ATOM     15  C   UNL     1      -2.531  12.602  20.829  0.00  0.00    +0.000 A 
ATOM     16  C   UNL     1      -3.199  12.725  22.046  0.00  0.00    +0.000 A 
ATOM     17  C   UNL     1      -2.703  12.094  23.185  0.00  0.00    +0.000 A 
ATOM     18  C   UNL     1      -1.527  11.352  23.110  0.00  0.00    +0.000 A 
ENDBRANCH  12  13
ENDBRANCH  11  12
ENDBRANCH   8  11
ENDBRANCH   3   5
BRANCH   2  19
ATOM     19  C   UNL     1       5.162   5.315  16.784  0.00  0.00    +0.000 A 
ATOM     20  C   UNL     1       5.849   5.860  15.710  0.00  0.00    +0.000 A 
ATOM     21  C   UNL     1       6.132   4.787  14.856  0.00  0.00    +0.000 A 
ATOM     22  N   UNL     1       5.691   3.630  15.340  0.00  0.00    +0.000 NA
ATOM     23  N   UNL     1       5.108   3.956  16.517  0.00  0.00    +0.000 N 
BRANCH  23  24
ATOM     24  C   UNL     1       4.485   2.873  17.275  0.00  0.00    +0.000 C 
BRANCH  24  25
ATOM     25  C   UNL     1       2.962   3.005  17.357  0.00  0.00    +0.000 C 
BRANCH  25  26
ATOM     26  C   UNL     1       2.427   3.007  18.773  0.00  0.00    +0.000 A 
ATOM     27  C   UNL     1       3.290   2.804  19.857  0.00  0.00    +0.000 A 
ATOM     28  C   UNL     1       2.768   2.859  21.142  0.00  0.00    +0.000 A 
ATOM     29  N   UNL     1       1.465   3.082  21.414  0.00  0.00    +0.000 NA
ATOM     30  C   UNL     1       0.649   3.260  20.356  0.00  0.00    +0.000 A 
ATOM     31  C   UNL     1       1.076   3.224  19.035  0.00  0.00    +0.000 A 
ENDBRANCH  25  26
ENDBRANCH  24  25
ENDBRANCH  23  24
ENDBRANCH   2  19
TORSDOF 8
ENDMDL
MODEL 6
REMARK VINA RESULT:      -7.7      1.829      3.881
REMARK  Name = 
REMARK  8 active torsions:
REMARK  status: ('A' for Active; 'I' for Inactive)
REMARK    1  A    between atoms: C_2  and  C_18
REMARK    2  A    between atoms: N_3  and  C_4
REMARK    3  A    between atoms: C_7  and  O_8
REMARK    4  A    between atoms: O_8  and  C_9
REMARK    5  A    between atoms: C_9  and  C_10
REMARK    6  A    between atoms: N_22  and  C_23
REMARK    7  A    between atoms: C_23  and  C_24
REMARK    8  A    between atoms: C_24  and  C_25
REMARK                            x       y       z     vdW  Elec       q    Type
REMARK                         _______ _______ _______ _____ _____    ______ ____
ROOT
ATOM      1  O   UNL     1       0.727   4.735  19.832  0.00  0.00    +0.000 OA
ATOM      2  C   UNL     1       1.943   4.812  19.975  0.00  0.00    +0.000 C 
ATOM      3  N   UNL     1       2.639   6.017  20.007  0.00  0.00    +0.000 N 
ATOM      4  H   UNL     1       3.645   5.983  20.055  0.00  0.00    +0.000 HD
ENDROOT
BRANCH   3   5
ATOM      5  C   UNL     1       2.059   7.302  19.897  0.00  0.00    +0.000 A 
ATOM      6  C   UNL     1       1.433   7.930  20.972  0.00  0.00    +0.000 A 
ATOM      7  C   UNL     1       0.861   9.190  20.836  0.00  0.00    +0.000 A 
ATOM      8  C   UNL     1       0.944   9.872  19.630  0.00  0.00    +0.000 A 
ATOM      9  C   UNL     1       1.538   9.247  18.531  0.00  0.00    +0.000 A 
ATOM     10  C   UNL     1       2.111   7.972  18.668  0.00  0.00    +0.000 A 
BRANCH   8  11
ATOM     11  O   UNL     1       0.482  11.144  19.447  0.00  0.00    +0.000 OA
BRANCH  11  12
ATOM     12  C   UNL     1      -0.904  11.310  19.774  0.00  0.00    +0.000 C 
BRANCH  12  13
ATOM     13  C   UNL     1      -1.724  10.954  18.568  0.00  0.00    +0.000 A 
ATOM     14  C   UNL     1      -1.705  11.765  17.426  0.00  0.00    +0.000 A 
ATOM     15  C   UNL     1      -2.513  11.454  16.335  0.00  0.00    +0.000 A 
ATOM     16  C   UNL     1      -3.343  10.334  16.377  0.00  0.00    +0.000 A 
ATOM     17  C   UNL     1      -3.358   9.515  17.503  0.00  0.00    +0.000 A 
ATOM     18  C   UNL     1      -2.552   9.823  18.596  0.00  0.00    +0.000 A 
ENDBRANCH  12  13
ENDBRANCH  11  12
ENDBRANCH   8  11
ENDBRANCH   3   5
BRANCH   2  19
ATOM     19  C   UNL     1       2.750   3.616  20.081  0.00  0.00    +0.000 A 
ATOM     20  C   UNL     1       3.270   2.986  21.202  0.00  0.00    +0.000 A 
ATOM     21  C   UNL     1       4.053   1.932  20.716  0.00  0.00    +0.000 A 
ATOM     22  N   UNL     1       4.031   1.858  19.390  0.00  0.00    +0.000 NA
ATOM     23  N   UNL     1       3.231   2.881  19.008  0.00  0.00    +0.000 N 
BRANCH  23  24
ATOM     24  C   UNL     1       3.043   3.080  17.572  0.00  0.00    +0.000 C 
BRANCH  24  25
ATOM     25  C   UNL     1       3.546   4.445  17.092  0.00  0.00    +0.000 C 
BRANCH  25  26
ATOM     26  C   UNL     1       5.019   4.462  16.744  0.00  0.00    +0.000 A 
ATOM     27  C   UNL     1       5.434   4.359  15.411  0.00  0.00    +0.000 A 
ATOM     28  C   UNL     1       6.791   4.424  15.130  0.00  0.00    +0.000 A 
ATOM     29  N   UNL     1       7.747   4.567  16.073  0.00  0.00    +0.000 NA
ATOM     30  C   UNL     1       7.327   4.651  17.352  0.00  0.00    +0.000 A 
ATOM     31  C   UNL     1       5.992   4.596  17.732  0.00  0.00    +0.000 A 
ENDBRANCH  25  26
ENDBRANCH  24  25
ENDBRANCH  23  24
ENDBRANCH   2  19
TORSDOF 8
ENDMDL
MODEL 7
REMARK VINA RESULT:      -7.7      1.700      3.913
REMARK  Name = 
REMARK  8 active torsions:
REMARK  status: ('A' for Active; 'I' for Inactive)
REMARK    1  A    between atoms: C_2  and  C_18
REMARK    2  A    between atoms: N_3  and  C_4
REMARK    3  A    between atoms: C_7  and  O_8
REMARK    4  A    between atoms: O_8  and  C_9
REMARK    5  A    between atoms: C_9  and  C_10
REMARK    6  A    between atoms: N_22  and  C_23
REMARK    7  A    between atoms: C_23  and  C_24
REMARK    8  A    between atoms: C_24  and  C_25
REMARK                            x       y       z     vdW  Elec       q    Type
REMARK                         _______ _______ _______ _____ _____    ______ ____
ROOT
ATOM      1  O   UNL     1       1.296   4.760  18.854  0.00  0.00    +0.000 OA
ATOM      2  C   UNL     1       2.075   4.861  19.796  0.00  0.00    +0.000 C 
ATOM      3  N   UNL     1       2.458   6.078  20.351  0.00  0.00    +0.000 N 
ATOM      4  H   UNL     1       3.158   6.070  21.076  0.00  0.00    +0.000 HD
ENDROOT
BRANCH   3   5
ATOM      5  C   UNL     1       2.007   7.350  19.927  0.00  0.00    +0.000 A 
ATOM      6  C   UNL     1       1.284   8.199  20.764  0.00  0.00    +0.000 A 
ATOM      7  C   UNL     1       0.843   9.440  20.322  0.00  0.00    +0.000 A 
ATOM      8  C   UNL     1       1.156   9.883  19.044  0.00  0.00    +0.000 A 
ATOM      9  C   UNL     1       1.851   9.034  18.179  0.00  0.00    +0.000 A 
ATOM     10  C   UNL     1       2.292   7.778  18.625  0.00  0.00    +0.000 A 
BRANCH   8  11
ATOM     11  O   UNL     1       0.831  11.122  18.572  0.00  0.00    +0.000 OA
BRANCH  11  12
ATOM     12  C   UNL     1      -0.286  11.722  19.240  0.00  0.00    +0.000 C 
BRANCH  12  13
ATOM     13  C   UNL     1      -1.547  11.284  18.552  0.00  0.00    +0.000 A 
ATOM     14  C   UNL     1      -1.506  10.339  17.519  0.00  0.00    +0.000 A 
ATOM     15  C   UNL     1      -2.675   9.982  16.853  0.00  0.00    +0.000 A 
ATOM     16  C   UNL     1      -3.890  10.565  17.212  0.00  0.00    +0.000 A 
ATOM     17  C   UNL     1      -3.941  11.496  18.247  0.00  0.00    +0.000 A 
ATOM     18  C   UNL     1      -2.774  11.856  18.915  0.00  0.00    +0.000 A 
ENDBRANCH  12  13
ENDBRANCH  11  12
ENDBRANCH   8  11
ENDBRANCH   3   5
BRANCH   2  19
ATOM     19  C   UNL     1       2.686   3.684  20.376  0.00  0.00    +0.000 A 
ATOM     20  C   UNL     1       2.204   2.810  21.338  0.00  0.00    +0.000 A 
ATOM     21  C   UNL     1       3.249   1.914  21.596  0.00  0.00    +0.000 A 
ATOM     22  N   UNL     1       4.319   2.162  20.848  0.00  0.00    +0.000 NA
ATOM     23  N   UNL     1       3.969   3.236  20.102  0.00  0.00    +0.000 N 
BRANCH  23  24
ATOM     24  C   UNL     1       4.978   3.773  19.192  0.00  0.00    +0.000 C 
BRANCH  24  25
ATOM     25  C   UNL     1       4.568   3.666  17.720  0.00  0.00    +0.000 C 
BRANCH  25  26
ATOM     26  C   UNL     1       5.541   4.328  16.768  0.00  0.00    +0.000 A 
ATOM     27  C   UNL     1       6.252   5.469  17.162  0.00  0.00    +0.000 A 
ATOM     28  C   UNL     1       7.168   6.019  16.276  0.00  0.00    +0.000 A 
ATOM     29  N   UNL     1       7.406   5.529  15.041  0.00  0.00    +0.000 NA
ATOM     30  C   UNL     1       6.700   4.439  14.677  0.00  0.00    +0.000 A 
ATOM     31  C   UNL     1       5.764   3.817  15.492  0.00  0.00    +0.000 A 
ENDBRANCH  25  26
ENDBRANCH  24  25
ENDBRANCH  23  24
ENDBRANCH   2  19
TORSDOF 8
ENDMDL
MODEL 8
REMARK VINA RESULT:      -7.6      1.206      1.606
REMARK  Name = 
REMARK  8 active torsions:
REMARK  status: ('A' for Active; 'I' for Inactive)
REMARK    1  A    between atoms: C_2  and  C_18
REMARK    2  A    between atoms: N_3  and  C_4
REMARK    3  A    between atoms: C_7  and  O_8
REMARK    4  A    between atoms: O_8  and  C_9
REMARK    5  A    between atoms: C_9  and  C_10
REMARK    6  A    between atoms: N_22  and  C_23
REMARK    7  A    between atoms: C_23  and  C_24
REMARK    8  A    between atoms: C_24  and  C_25
REMARK                            x       y       z     vdW  Elec       q    Type
REMARK                         _______ _______ _______ _____ _____    ______ ____
ROOT
ATOM      1  O   UNL     1       4.166   5.819  19.459  0.00  0.00    +0.000 OA
ATOM      2  C   UNL     1       4.323   6.138  18.284  0.00  0.00    +0.000 C 
ATOM      3  N   UNL     1       3.623   7.170  17.667  0.00  0.00    +0.000 N 
ATOM      4  H   UNL     1       3.763   7.315  16.680  0.00  0.00    +0.000 HD
ENDROOT
BRANCH   3   5
ATOM      5  C   UNL     1       2.658   7.995  18.292  0.00  0.00    +0.000 A 
ATOM      6  C   UNL     1       2.131   7.701  19.548  0.00  0.00    +0.000 A 
ATOM      7  C   UNL     1       1.176   8.522  20.137  0.00  0.00    +0.000 A 
ATOM      8  C   UNL     1       0.760   9.684  19.501  0.00  0.00    +0.000 A 
ATOM      9  C   UNL     1       1.251   9.978  18.228  0.00  0.00    +0.000 A 
ATOM     10  C   UNL     1       2.212   9.146  17.632  0.00  0.00    +0.000 A 
BRANCH   8  11
ATOM     11  O   UNL     1      -0.108  10.580  20.056  0.00  0.00    +0.000 OA
BRANCH  11  12
ATOM     12  C   UNL     1      -0.513  11.624  19.163  0.00  0.00    +0.000 C 
BRANCH  12  13
ATOM     13  C   UNL     1      -1.930  11.368  18.738  0.00  0.00    +0.000 A 
ATOM     14  C   UNL     1      -2.981  12.134  19.257  0.00  0.00    +0.000 A 
ATOM     15  C   UNL     1      -4.296  11.850  18.896  0.00  0.00    +0.000 A 
ATOM     16  C   UNL     1      -4.569  10.802  18.018  0.00  0.00    +0.000 A 
ATOM     17  C   UNL     1      -3.528  10.045  17.486  0.00  0.00    +0.000 A 
ATOM     18  C   UNL     1      -2.212  10.325  17.845  0.00  0.00    +0.000 A 
ENDBRANCH  12  13
ENDBRANCH  11  12
ENDBRANCH   8  11
ENDBRANCH   3   5
BRANCH   2  19
ATOM     19  C   UNL     1       5.245   5.409  17.440  0.00  0.00    +0.000 A 
ATOM     20  C   UNL     1       6.517   5.750  17.005  0.00  0.00    +0.000 A 
ATOM     21  C   UNL     1       6.907   4.727  16.132  0.00  0.00    +0.000 A 
ATOM     22  N   UNL     1       5.981   3.780  16.021  0.00  0.00    +0.000 NA
ATOM     23  N   UNL     1       4.974   4.196  16.825  0.00  0.00    +0.000 N 
BRANCH  23  24
ATOM     24  C   UNL     1       3.776   3.362  16.879  0.00  0.00    +0.000 C 
BRANCH  24  25
ATOM     25  C   UNL     1       3.825   2.326  18.007  0.00  0.00    +0.000 C 
BRANCH  25  26
ATOM     26  C   UNL     1       2.900   2.642  19.163  0.00  0.00    +0.000 A 
ATOM     27  C   UNL     1       3.324   2.450  20.484  0.00  0.00    +0.000 A 
ATOM     28  C   UNL     1       2.462   2.795  21.515  0.00  0.00    +0.000 A 
ATOM     29  N   UNL     1       1.222   3.293  21.323  0.00  0.00    +0.000 NA
ATOM     30  C   UNL     1       0.828   3.456  20.043  0.00  0.00    +0.000 A 
ATOM     31  C   UNL     1       1.618   3.142  18.945  0.00  0.00    +0.000 A 
ENDBRANCH  25  26
ENDBRANCH  24  25
ENDBRANCH  23  24
ENDBRANCH   2  19
TORSDOF 8
ENDMDL
MODEL 9
REMARK VINA RESULT:      -7.6      1.487      2.149
REMARK  Name = 
REMARK  8 active torsions:
REMARK  status: ('A' for Active; 'I' for Inactive)
REMARK    1  A    between atoms: C_2  and  C_18
REMARK    2  A    between atoms: N_3  and  C_4
REMARK    3  A    between atoms: C_7  and  O_8
REMARK    4  A    between atoms: O_8  and  C_9
REMARK    5  A    between atoms: C_9  and  C_10
REMARK    6  A    between atoms: N_22  and  C_23
REMARK    7  A    between atoms: C_23  and  C_24
REMARK    8  A    between atoms: C_24  and  C_25
REMARK                            x       y       z     vdW  Elec       q    Type
REMARK                         _______ _______ _______ _____ _____    ______ ____
ROOT
ATOM      1  O   UNL     1       5.495   7.354  17.680  0.00  0.00    +0.000 OA
ATOM      2  C   UNL     1       4.744   6.536  17.159  0.00  0.00    +0.000 C 
ATOM      3  N   UNL     1       3.368   6.513  17.365  0.00  0.00    +0.000 N 
ATOM      4  H   UNL     1       2.839   5.760  16.954  0.00  0.00    +0.000 HD
ENDROOT
BRANCH   3   5
ATOM      5  C   UNL     1       2.646   7.418  18.178  0.00  0.00    +0.000 A 
ATOM      6  C   UNL     1       2.174   8.637  17.694  0.00  0.00    +0.000 A 
ATOM      7  C   UNL     1       1.475   9.515  18.514  0.00  0.00    +0.000 A 
ATOM      8  C   UNL     1       1.190   9.171  19.829  0.00  0.00    +0.000 A 
ATOM      9  C   UNL     1       1.682   7.969  20.342  0.00  0.00    +0.000 A 
ATOM     10  C   UNL     1       2.393   7.085  19.514  0.00  0.00    +0.000 A 
BRANCH   8  11
ATOM     11  O   UNL     1       0.437   9.944  20.666  0.00  0.00    +0.000 OA
BRANCH  11  12
ATOM     12  C   UNL     1       0.345  11.316  20.262  0.00  0.00    +0.000 C 
BRANCH  12  13
ATOM     13  C   UNL     1      -1.102  11.656  20.051  0.00  0.00    +0.000 A 
ATOM     14  C   UNL     1      -1.762  11.275  18.876  0.00  0.00    +0.000 A 
ATOM     15  C   UNL     1      -3.089  11.644  18.669  0.00  0.00    +0.000 A 
ATOM     16  C   UNL     1      -3.764  12.395  19.631  0.00  0.00    +0.000 A 
ATOM     17  C   UNL     1      -3.119  12.766  20.809  0.00  0.00    +0.000 A 
ATOM     18  C   UNL     1      -1.792  12.399  21.019  0.00  0.00    +0.000 A 
ENDBRANCH  12  13
ENDBRANCH  11  12
ENDBRANCH   8  11
ENDBRANCH   3   5
BRANCH   2  19
ATOM     19  C   UNL     1       5.270   5.492  16.306  0.00  0.00    +0.000 A 
ATOM     20  C   UNL     1       5.800   5.567  15.027  0.00  0.00    +0.000 A 
ATOM     21  C   UNL     1       6.058   4.246  14.643  0.00  0.00    +0.000 A 
ATOM     22  N   UNL     1       5.748   3.375  15.599  0.00  0.00    +0.000 NA
ATOM     23  N   UNL     1       5.276   4.139  16.611  0.00  0.00    +0.000 N 
BRANCH  23  24
ATOM     24  C   UNL     1       4.811   3.445  17.810  0.00  0.00    +0.000 C 
BRANCH  24  25
ATOM     25  C   UNL     1       3.296   3.212  17.812  0.00  0.00    +0.000 C 
BRANCH  25  26
ATOM     26  C   UNL     1       2.705   3.071  19.198  0.00  0.00    +0.000 A 
ATOM     27  C   UNL     1       1.345   3.323  19.418  0.00  0.00    +0.000 A 
ATOM     28  C   UNL     1       0.832   3.138  20.694  0.00  0.00    +0.000 A 
ATOM     29  N   UNL     1       1.573   2.741  21.751  0.00  0.00    +0.000 NA
ATOM     30  C   UNL     1       2.883   2.518  21.520  0.00  0.00    +0.000 A 
ATOM     31  C   UNL     1       3.488   2.675  20.280  0.00  0.00    +0.000 A 
ENDBRANCH  25  26
ENDBRANCH  24  25
ENDBRANCH  23  24
ENDBRANCH   2  19
TORSDOF 8
ENDMDL
