MODEL 1
REMARK VINA RESULT:      -7.9      0.000      0.000
REMARK  Name = 
REMARK  6 active torsions:
REMARK  status: ('A' for Active; 'I' for Inactive)
REMARK    1  A    between atoms: C_1  and  C_2
REMARK    2  A    between atoms: C_2  and  C_3
REMARK    3  A    between atoms: C_8  and  C_10
REMARK    4  A    between atoms: C_13  and  N_14
REMARK    5  A    between atoms: N_14  and  C_15
REMARK    6  A    between atoms: C_18  and  C_19
REMARK                            x       y       z     vdW  Elec       q    Type
REMARK                         _______ _______ _______ _____ _____    ______ ____
ROOT
ATOM      1  C   UNL     1       2.435   7.662  18.867  0.00  0.00    +0.000 A 
ATOM      2  C   UNL     1       2.235   8.494  17.782  0.00  0.00    +0.000 A 
ATOM      3  N   UNL     1       1.473   9.622  17.821  0.00  0.00    +0.000 NA
ATOM      4  C   UNL     1       0.863   9.949  18.987  0.00  0.00    +0.000 A 
ATOM      5  C   UNL     1       0.993   9.139  20.117  0.00  0.00    +0.000 A 
ATOM      6 CL   UNL     1       0.217   9.518  21.615  0.00  0.00    +0.000 Cl
ATOM      7  C   UNL     1       1.750   7.974  20.039  0.00  0.00    +0.000 A 
ENDROOT
BRANCH   1  13
ATOM      8  C   UNL     1       2.679   2.995  18.745  0.00  0.00    +0.000 C 
ATOM      9  C   UNL     1       1.526   2.906  19.774  0.00  0.00    +0.000 C 
ATOM     10  C   UNL     1       0.983   4.274  20.170  0.00  0.00    +0.000 C 
ATOM     11  C   UNL     1       2.129   5.183  20.602  0.00  0.00    +0.000 C 
ATOM     12  N   UNL     1       3.058   5.318  19.487  0.00  0.00    +0.000 N 
ATOM     13  C   UNL     1       3.273   6.457  18.701  0.00  0.00    +0.000 C 
ATOM     14  O   UNL     1       4.152   6.510  17.843  0.00  0.00    +0.000 OA
ATOM     15  C   UNL     1       3.720   4.065  19.130  0.00  0.00    +0.000 C 
BRANCH   8  17
ATOM     16  C   UNL     1       4.496   1.343  19.487  0.00  0.00    +0.000 C 
ATOM     17  C   UNL     1       3.300   1.598  18.586  0.00  0.00    +0.000 C 
ENDBRANCH   8  17
ENDBRANCH   1  13
BRANCH   4  18
ATOM     18  N   UNL     1      -0.005  11.054  19.017  0.00  0.00    +0.000 N 
ATOM     19  H   UNL     1       0.330  11.820  19.588  0.00  0.00    +0.000 HD
BRANCH  18  20
ATOM     20  C   UNL     1      -1.375  11.069  18.724  0.00  0.00    +0.000 A 
ATOM     21  C   UNL     1      -1.904  10.123  17.844  0.00  0.00    +0.000 A 
ATOM     22  C   UNL     1      -3.259  10.153  17.511  0.00  0.00    +0.000 A 
ATOM     23  C   UNL     1      -4.068  11.130  18.077  0.00  0.00    +0.000 A 
ATOM     24  C   UNL     1      -5.509  11.271  17.696  0.00  0.00    +0.000 C 
ATOM     25  N   UNL     1      -3.605  12.024  18.975  0.00  0.00    +0.000 NA
ATOM     26  C   UNL     1      -2.287  11.962  19.283  0.00  0.00    +0.000 A 
ENDBRANCH  18  20
ENDBRANCH   4  18
TORSDOF 4
ENDMDL
MODEL 2
REMARK VINA RESULT:      -7.8      2.462      8.422
REMARK  Name = 
REMARK  6 active torsions:
REMARK  status: ('A' for Active; 'I' for Inactive)
REMARK    1  A    between atoms: C_1  and  C_2
REMARK    2  A    between atoms: C_2  and  C_3
REMARK    3  A    between atoms: C_8  and  C_10
REMARK    4  A    between atoms: C_13  and  N_14
REMARK    5  A    between atoms: N_14  and  C_15
REMARK    6  A    between atoms: C_18  and  C_19
REMARK                            x       y       z     vdW  Elec       q    Type
REMARK                         _______ _______ _______ _____ _____    ______ ____
ROOT
ATOM      1  C   UNL     1      -0.288  10.316  20.152  0.00  0.00    +0.000 A 
ATOM      2  C   UNL     1      -0.181   9.469  21.239  0.00  0.00    +0.000 A 
ATOM      3  N   UNL     1       0.717   8.448  21.321  0.00  0.00    +0.000 NA
ATOM      4  C   UNL     1       1.552   8.238  20.274  0.00  0.00    +0.000 A 
ATOM      5  C   UNL     1       1.481   9.033  19.128  0.00  0.00    +0.000 A 
ATOM      6 CL   UNL     1       2.520   8.783  17.769  0.00  0.00    +0.000 Cl
ATOM      7  C   UNL     1       0.531  10.048  19.058  0.00  0.00    +0.000 A 
ENDROOT
BRANCH   1  13
ATOM      8  C   UNL     1      -4.584  11.702  18.940  0.00  0.00    +0.000 C 
ATOM      9  C   UNL     1      -4.505  10.835  17.661  0.00  0.00    +0.000 C 
ATOM     10  C   UNL     1      -3.201  10.053  17.558  0.00  0.00    +0.000 C 
ATOM     11  C   UNL     1      -2.014  10.995  17.743  0.00  0.00    +0.000 C 
ATOM     12  N   UNL     1      -2.120  11.620  19.054  0.00  0.00    +0.000 N 
ATOM     13  C   UNL     1      -1.310  11.381  20.172  0.00  0.00    +0.000 C 
ATOM     14  O   UNL     1      -1.410  12.032  21.210  0.00  0.00    +0.000 OA
ATOM     15  C   UNL     1      -3.284  12.493  19.188  0.00  0.00    +0.000 C 
BRANCH   8  17
ATOM     16  C   UNL     1      -7.034  11.944  18.219  0.00  0.00    +0.000 C 
ATOM     17  C   UNL     1      -5.819  12.612  18.837  0.00  0.00    +0.000 C 
ENDBRANCH   8  17
ENDBRANCH   1  13
BRANCH   4  18
ATOM     18  N   UNL     1       2.416   7.129  20.301  0.00  0.00    +0.000 N 
ATOM     19  H   UNL     1       3.396   7.377  20.341  0.00  0.00    +0.000 HD
BRANCH  18  20
ATOM     20  C   UNL     1       2.136   5.822  19.881  0.00  0.00    +0.000 A 
ATOM     21  C   UNL     1       1.493   4.938  20.750  0.00  0.00    +0.000 A 
ATOM     22  C   UNL     1       1.248   3.621  20.359  0.00  0.00    +0.000 A 
ATOM     23  C   UNL     1       1.643   3.212  19.091  0.00  0.00    +0.000 A 
ATOM     24  C   UNL     1       1.487   1.793  18.642  0.00  0.00    +0.000 C 
ATOM     25  N   UNL     1       2.214   4.053  18.204  0.00  0.00    +0.000 NA
ATOM     26  C   UNL     1       2.430   5.327  18.612  0.00  0.00    +0.000 A 
ENDBRANCH  18  20
ENDBRANCH   4  18
TORSDOF 4
ENDMDL
MODEL 3
REMARK VINA RESULT:      -7.4      3.238      8.750
REMARK  Name = 
REMARK  6 active torsions:
REMARK  status: ('A' for Active; 'I' for Inactive)
REMARK    1  A    between atoms: C_1  and  C_2
REMARK    2  A    between atoms: C_2  and  C_3
REMARK    3  A    between atoms: C_8  and  C_10
REMARK    4  A    between atoms: C_13  and  N_14
REMARK    5  A    between atoms: N_14  and  C_15
REMARK    6  A    between atoms: C_18  and  C_19
REMARK                            x       y       z     vdW  Elec       q    Type
REMARK                         _______ _______ _______ _____ _____    ______ ____
ROOT
ATOM      1  C   UNL     1       0.242  10.452  19.657  0.00  0.00    +0.000 A 
ATOM      2  C   UNL     1       0.247   9.693  20.811  0.00  0.00    +0.000 A 
ATOM      3  N   UNL     1       1.015   8.581  20.985  0.00  0.00    +0.000 NA
ATOM      4  C   UNL     1       1.817   8.185  19.967  0.00  0.00    +0.000 A 
ATOM      5  C   UNL     1       1.841   8.885  18.758  0.00  0.00    +0.000 A 
ATOM      6 CL   UNL     1       2.842   8.399  17.434  0.00  0.00    +0.000 Cl
ATOM      7  C   UNL     1       1.021   9.997  18.596  0.00  0.00    +0.000 A 
ENDROOT
BRANCH   1  13
ATOM      8  C   UNL     1      -0.156  15.078  19.113  0.00  0.00    +0.000 C 
ATOM      9  C   UNL     1       1.211  15.280  19.810  0.00  0.00    +0.000 C 
ATOM     10  C   UNL     1       1.874  13.963  20.200  0.00  0.00    +0.000 C 
ATOM     11  C   UNL     1       0.894  13.104  20.995  0.00  0.00    +0.000 C 
ATOM     12  N   UNL     1      -0.275  12.849  20.164  0.00  0.00    +0.000 N 
ATOM     13  C   UNL     1      -0.644  11.631  19.578  0.00  0.00    +0.000 C 
ATOM     14  O   UNL     1      -1.706  11.484  18.976  0.00  0.00    +0.000 OA
ATOM     15  C   UNL     1      -1.040  14.054  19.853  0.00  0.00    +0.000 C 
BRANCH   8  17
ATOM     16  C   UNL     1      -0.216  17.342  17.908  0.00  0.00    +0.000 C 
ATOM     17  C   UNL     1      -0.836  16.449  18.968  0.00  0.00    +0.000 C 
ENDBRANCH   8  17
ENDBRANCH   1  13
BRANCH   4  18
ATOM     18  N   UNL     1       2.541   6.987  20.094  0.00  0.00    +0.000 N 
ATOM     19  H   UNL     1       3.543   7.118  20.127  0.00  0.00    +0.000 HD
BRANCH  18  20
ATOM     20  C   UNL     1       2.107   5.693  19.775  0.00  0.00    +0.000 A 
ATOM     21  C   UNL     1       2.283   5.203  18.480  0.00  0.00    +0.000 A 
ATOM     22  C   UNL     1       1.816   3.933  18.139  0.00  0.00    +0.000 A 
ATOM     23  C   UNL     1       1.187   3.165  19.112  0.00  0.00    +0.000 A 
ATOM     24  C   UNL     1       0.588   1.832  18.790  0.00  0.00    +0.000 C 
ATOM     25  N   UNL     1       1.051   3.582  20.387  0.00  0.00    +0.000 NA
ATOM     26  C   UNL     1       1.522   4.816  20.687  0.00  0.00    +0.000 A 
ENDBRANCH  18  20
ENDBRANCH   4  18
TORSDOF 4
ENDMDL
MODEL 4
REMARK VINA RESULT:      -7.3      2.128      2.759
REMARK  Name = 
REMARK  6 active torsions:
REMARK  status: ('A' for Active; 'I' for Inactive)
REMARK    1  A    between atoms: C_1  and  C_2
REMARK    2  A    between atoms: C_2  and  C_3
REMARK    3  A    between atoms: C_8  and  C_10
REMARK    4  A    between atoms: C_13  and  N_14
REMARK    5  A    between atoms: N_14  and  C_15
REMARK    6  A    between atoms: C_18  and  C_19
REMARK                            x       y       z     vdW  Elec       q    Type
REMARK                         _______ _______ _______ _____ _____    ______ ____
ROOT
ATOM      1  C   UNL     1       1.592   9.030  19.328  0.00  0.00    +0.000 A 
ATOM      2  C   UNL     1       1.434  10.330  18.885  0.00  0.00    +0.000 A 
ATOM      3  N   UNL     1       0.893  11.327  19.638  0.00  0.00    +0.000 NA
ATOM      4  C   UNL     1       0.474  11.034  20.894  0.00  0.00    +0.000 A 
ATOM      5  C   UNL     1       0.572   9.736  21.398  0.00  0.00    +0.000 A 
ATOM      6 CL   UNL     1       0.035   9.323  22.989  0.00  0.00    +0.000 Cl
ATOM      7  C   UNL     1       1.098   8.728  20.595  0.00  0.00    +0.000 A 
ENDROOT
BRANCH   1  13
ATOM      8  C   UNL     1       1.892   4.550  18.031  0.00  0.00    +0.000 C 
ATOM      9  C   UNL     1       1.665   4.107  19.496  0.00  0.00    +0.000 C 
ATOM     10  C   UNL     1       1.443   5.285  20.439  0.00  0.00    +0.000 C 
ATOM     11  C   UNL     1       2.564   6.306  20.267  0.00  0.00    +0.000 C 
ATOM     12  N   UNL     1       2.563   6.766  18.884  0.00  0.00    +0.000 N 
ATOM     13  C   UNL     1       2.180   8.029  18.415  0.00  0.00    +0.000 C 
ATOM     14  O   UNL     1       2.308   8.363  17.239  0.00  0.00    +0.000 OA
ATOM     15  C   UNL     1       2.895   5.716  17.924  0.00  0.00    +0.000 C 
BRANCH   8  17
ATOM     16  C   UNL     1       2.738   2.127  18.055  0.00  0.00    +0.000 C 
ATOM     17  C   UNL     1       2.326   3.322  17.213  0.00  0.00    +0.000 C 
ENDBRANCH   8  17
ENDBRANCH   1  13
BRANCH   4  18
ATOM     18  N   UNL     1      -0.175  12.028  21.647  0.00  0.00    +0.000 N 
ATOM     19  H   UNL     1       0.370  12.369  22.427  0.00  0.00    +0.000 HD
BRANCH  18  20
ATOM     20  C   UNL     1      -1.551  12.287  21.707  0.00  0.00    +0.000 A 
ATOM     21  C   UNL     1      -2.192  12.343  22.946  0.00  0.00    +0.000 A 
ATOM     22  C   UNL     1      -3.569  12.558  23.017  0.00  0.00    +0.000 A 
ATOM     23  C   UNL     1      -4.284  12.725  21.837  0.00  0.00    +0.000 A 
ATOM     24  C   UNL     1      -5.773  12.873  21.839  0.00  0.00    +0.000 C 
ATOM     25  N   UNL     1      -3.691  12.735  20.626  0.00  0.00    +0.000 NA
ATOM     26  C   UNL     1      -2.352  12.532  20.592  0.00  0.00    +0.000 A 
ENDBRANCH  18  20
ENDBRANCH   4  18
TORSDOF 4
ENDMDL
MODEL 5
REMARK VINA RESULT:      -7.3      3.212      8.781
REMARK  Name = 
REMARK  6 active torsions:
REMARK  status: ('A' for Active; 'I' for Inactive)
REMARK    1  A    between atoms: C_1  and  C_2
REMARK    2  A    between atoms: C_2  and  C_3
REMARK    3  A    between atoms: C_8  and  C_10
REMARK    4  A    between atoms: C_13  and  N_14
REMARK    5  A    between atoms: N_14  and  C_15
REMARK    6  A    between atoms: C_18  and  C_19
REMARK                            x       y       z     vdW  Elec       q    Type
REMARK                         _______ _______ _______ _____ _____    ______ ____
ROOT
ATOM      1  C   UNL     1       0.341  10.530  19.917  0.00  0.00    +0.000 A 
ATOM      2  C   UNL     1       0.402   9.767  21.067  0.00  0.00    +0.000 A 
ATOM      3  N   UNL     1       1.139   8.628  21.184  0.00  0.00    +0.000 NA
ATOM      4  C   UNL     1       1.851   8.207  20.111  0.00  0.00    +0.000 A 
ATOM      5  C   UNL     1       1.813   8.908  18.904  0.00  0.00    +0.000 A 
ATOM      6 CL   UNL     1       2.697   8.391  17.510  0.00  0.00    +0.000 Cl
ATOM      7  C   UNL     1       1.025  10.050  18.802  0.00  0.00    +0.000 A 
ENDROOT
BRANCH   1  13
ATOM      8  C   UNL     1      -0.063  15.067  18.864  0.00  0.00    +0.000 C 
ATOM      9  C   UNL     1       1.441  15.272  19.161  0.00  0.00    +0.000 C 
ATOM     10  C   UNL     1       2.148  13.978  19.549  0.00  0.00    +0.000 C 
ATOM     11  C   UNL     1       1.383  13.285  20.673  0.00  0.00    +0.000 C 
ATOM     12  N   UNL     1       0.033  12.998  20.206  0.00  0.00    +0.000 N 
ATOM     13  C   UNL     1      -0.505  11.741  19.903  0.00  0.00    +0.000 C 
ATOM     14  O   UNL     1      -1.689  11.583  19.612  0.00  0.00    +0.000 OA
ATOM     15  C   UNL     1      -0.754  14.198  19.935  0.00  0.00    +0.000 C 
BRANCH   8  17
ATOM     16  C   UNL     1      -1.401  16.958  19.968  0.00  0.00    +0.000 C 
ATOM     17  C   UNL     1      -0.723  16.447  18.709  0.00  0.00    +0.000 C 
ENDBRANCH   8  17
ENDBRANCH   1  13
BRANCH   4  18
ATOM     18  N   UNL     1       2.538   6.982  20.184  0.00  0.00    +0.000 N 
ATOM     19  H   UNL     1       3.543   7.081  20.231  0.00  0.00    +0.000 HD
BRANCH  18  20
ATOM     20  C   UNL     1       2.068   5.719  19.801  0.00  0.00    +0.000 A 
ATOM     21  C   UNL     1       1.400   4.917  20.729  0.00  0.00    +0.000 A 
ATOM     22  C   UNL     1       0.966   3.640  20.371  0.00  0.00    +0.000 A 
ATOM     23  C   UNL     1       1.200   3.189  19.078  0.00  0.00    +0.000 A 
ATOM     24  C   UNL     1       0.836   1.800  18.656  0.00  0.00    +0.000 C 
ATOM     25  N   UNL     1       1.789   3.956  18.138  0.00  0.00    +0.000 NA
ATOM     26  C   UNL     1       2.192   5.194  18.516  0.00  0.00    +0.000 A 
ENDBRANCH  18  20
ENDBRANCH   4  18
TORSDOF 4
ENDMDL
MODEL 6
REMARK VINA RESULT:      -7.3      3.026      8.558
REMARK  Name = 
REMARK  6 active torsions:
REMARK  status: ('A' for Active; 'I' for Inactive)
REMARK    1  A    between atoms: C_1  and  C_2
REMARK    2  A    between atoms: C_2  and  C_3
REMARK    3  A    between atoms: C_8  and  C_10
REMARK    4  A    between atoms: C_13  and  N_14
REMARK    5  A    between atoms: N_14  and  C_15
REMARK    6  A    between atoms: C_18  and  C_19
REMARK                            x       y       z     vdW  Elec       q    Type
REMARK                         _______ _______ _______ _____ _____    ______ ____
ROOT
ATOM      1  C   UNL     1       0.655   9.675  21.347  0.00  0.00    +0.000 A 
ATOM      2  C   UNL     1       1.025   8.363  21.571  0.00  0.00    +0.000 A 
ATOM      3  N   UNL     1       1.647   7.581  20.646  0.00  0.00    +0.000 NA
ATOM      4  C   UNL     1       1.916   8.112  19.428  0.00  0.00    +0.000 A 
ATOM      5  C   UNL     1       1.543   9.421  19.118  0.00  0.00    +0.000 A 
ATOM      6 CL   UNL     1       1.856  10.125  17.570  0.00  0.00    +0.000 Cl
ATOM      7  C   UNL     1       0.877  10.186  20.071  0.00  0.00    +0.000 A 
ENDROOT
BRANCH   1  13
ATOM      8  C   UNL     1      -3.002  12.276  22.656  0.00  0.00    +0.000 C 
ATOM      9  C   UNL     1      -3.092  12.872  21.230  0.00  0.00    +0.000 C 
ATOM     10  C   UNL     1      -2.054  12.284  20.280  0.00  0.00    +0.000 C 
ATOM     11  C   UNL     1      -0.665  12.379  20.905  0.00  0.00    +0.000 C 
ATOM     12  N   UNL     1      -0.671  11.638  22.159  0.00  0.00    +0.000 N 
ATOM     13  C   UNL     1      -0.029  10.421  22.423  0.00  0.00    +0.000 C 
ATOM     14  O   UNL     1      -0.004   9.918  23.545  0.00  0.00    +0.000 OA
ATOM     15  C   UNL     1      -1.550  12.218  23.172  0.00  0.00    +0.000 C 
BRANCH   8  17
ATOM     16  C   UNL     1      -4.479  12.296  24.754  0.00  0.00    +0.000 C 
ATOM     17  C   UNL     1      -3.925  13.086  23.581  0.00  0.00    +0.000 C 
ENDBRANCH   8  17
ENDBRANCH   1  13
BRANCH   4  18
ATOM     18  N   UNL     1       2.468   7.289  18.431  0.00  0.00    +0.000 N 
ATOM     19  H   UNL     1       2.431   7.692  17.504  0.00  0.00    +0.000 HD
BRANCH  18  20
ATOM     20  C   UNL     1       2.666   5.903  18.485  0.00  0.00    +0.000 A 
ATOM     21  C   UNL     1       1.735   5.047  17.894  0.00  0.00    +0.000 A 
ATOM     22  C   UNL     1       1.898   3.664  17.977  0.00  0.00    +0.000 A 
ATOM     23  C   UNL     1       3.006   3.158  18.647  0.00  0.00    +0.000 A 
ATOM     24  C   UNL     1       3.195   1.687  18.846  0.00  0.00    +0.000 C 
ATOM     25  N   UNL     1       3.956   3.953  19.180  0.00  0.00    +0.000 NA
ATOM     26  C   UNL     1       3.771   5.291  19.074  0.00  0.00    +0.000 A 
ENDBRANCH  18  20
ENDBRANCH   4  18
TORSDOF 4
ENDMDL
MODEL 7
REMARK VINA RESULT:      -7.3      3.497      8.421
REMARK  Name = 
REMARK  6 active torsions:
REMARK  status: ('A' for Active; 'I' for Inactive)
REMARK    1  A    between atoms: C_1  and  C_2
REMARK    2  A    between atoms: C_2  and  C_3
REMARK    3  A    between atoms: C_8  and  C_10
REMARK    4  A    between atoms: C_13  and  N_14
REMARK    5  A    between atoms: N_14  and  C_15
REMARK    6  A    between atoms: C_18  and  C_19
REMARK                            x       y       z     vdW  Elec       q    Type
REMARK                         _______ _______ _______ _____ _____    ______ ____
ROOT
ATOM      1  C   UNL     1       1.648   8.611  19.027  0.00  0.00    +0.000 A 
ATOM      2  C   UNL     1       2.519   8.672  17.956  0.00  0.00    +0.000 A 
ATOM      3  N   UNL     1       3.410   7.690  17.646  0.00  0.00    +0.000 NA
ATOM      4  C   UNL     1       3.458   6.588  18.435  0.00  0.00    +0.000 A 
ATOM      5  C   UNL     1       2.631   6.471  19.554  0.00  0.00    +0.000 A 
ATOM      6 CL   UNL     1       2.676   5.087  20.590  0.00  0.00    +0.000 Cl
ATOM      7  C   UNL     1       1.754   7.504  19.867  0.00  0.00    +0.000 A 
ENDROOT
BRANCH   1  13
ATOM      8  C   UNL     1      -0.450  11.402  22.135  0.00  0.00    +0.000 C 
ATOM      9  C   UNL     1      -0.494  10.239  23.154  0.00  0.00    +0.000 C 
ATOM     10  C   UNL     1       0.160   8.967  22.625  0.00  0.00    +0.000 C 
ATOM     11  C   UNL     1      -0.419   8.615  21.258  0.00  0.00    +0.000 C 
ATOM     12  N   UNL     1      -0.164   9.724  20.348  0.00  0.00    +0.000 N 
ATOM     13  C   UNL     1       0.735   9.745  19.273  0.00  0.00    +0.000 C 
ATOM     14  O   UNL     1       0.810  10.694  18.495  0.00  0.00    +0.000 OA
ATOM     15  C   UNL     1      -0.864  10.952  20.720  0.00  0.00    +0.000 C 
BRANCH   8  17
ATOM     16  C   UNL     1      -0.611  13.890  22.742  0.00  0.00    +0.000 C 
ATOM     17  C   UNL     1      -1.323  12.550  22.667  0.00  0.00    +0.000 C 
ENDBRANCH   8  17
ENDBRANCH   1  13
BRANCH   4  18
ATOM     18  N   UNL     1       4.439   5.612  18.186  0.00  0.00    +0.000 N 
ATOM     19  H   UNL     1       4.830   5.205  19.025  0.00  0.00    +0.000 HD
BRANCH  18  20
ATOM     20  C   UNL     1       5.195   5.444  17.019  0.00  0.00    +0.000 A 
ATOM     21  C   UNL     1       4.694   4.663  15.976  0.00  0.00    +0.000 A 
ATOM     22  C   UNL     1       5.457   4.452  14.826  0.00  0.00    +0.000 A 
ATOM     23  C   UNL     1       6.712   5.041  14.736  0.00  0.00    +0.000 A 
ATOM     24  C   UNL     1       7.614   4.785  13.569  0.00  0.00    +0.000 C 
ATOM     25  N   UNL     1       7.205   5.848  15.697  0.00  0.00    +0.000 NA
ATOM     26  C   UNL     1       6.436   6.038  16.797  0.00  0.00    +0.000 A 
ENDBRANCH  18  20
ENDBRANCH   4  18
TORSDOF 4
ENDMDL
MODEL 8
REMARK VINA RESULT:      -7.2      2.542      3.528
REMARK  Name = 
REMARK  6 active torsions:
REMARK  status: ('A' for Active; 'I' for Inactive)
REMARK    1  A    between atoms: C_1  and  C_2
REMARK    2  A    between atoms: C_2  and  C_3
REMARK    3  A    between atoms: C_8  and  C_10
REMARK    4  A    between atoms: C_13  and  N_14
REMARK    5  A    between atoms: N_14  and  C_15
REMARK    6  A    between atoms: C_18  and  C_19
REMARK                            x       y       z     vdW  Elec       q    Type
REMARK                         _______ _______ _______ _____ _____    ______ ____
ROOT
ATOM      1  C   UNL     1       1.795   8.155  19.497  0.00  0.00    +0.000 A 
ATOM      2  C   UNL     1       1.221   9.119  18.691  0.00  0.00    +0.000 A 
ATOM      3  N   UNL     1       0.436  10.129  19.158  0.00  0.00    +0.000 NA
ATOM      4  C   UNL     1       0.193  10.195  20.490  0.00  0.00    +0.000 A 
ATOM      5  C   UNL     1       0.713   9.237  21.363  0.00  0.00    +0.000 A 
ATOM      6 CL   UNL     1       0.411   9.281  23.065  0.00  0.00    +0.000 Cl
ATOM      7  C   UNL     1       1.484   8.196  20.854  0.00  0.00    +0.000 A 
ENDROOT
BRANCH   1  13
ATOM      8  C   UNL     1       2.181   3.674  18.222  0.00  0.00    +0.000 C 
ATOM      9  C   UNL     1       1.299   3.254  19.423  0.00  0.00    +0.000 C 
ATOM     10  C   UNL     1       0.810   4.445  20.239  0.00  0.00    +0.000 C 
ATOM     11  C   UNL     1       1.990   5.335  20.619  0.00  0.00    +0.000 C 
ATOM     12  N   UNL     1       2.632   5.798  19.396  0.00  0.00    +0.000 N 
ATOM     13  C   UNL     1       2.618   7.098  18.874  0.00  0.00    +0.000 C 
ATOM     14  O   UNL     1       3.275   7.420  17.886  0.00  0.00    +0.000 OA
ATOM     15  C   UNL     1       3.241   4.721  18.618  0.00  0.00    +0.000 C 
BRANCH   8  17
ATOM     16  C   UNL     1       3.551   1.538  18.601  0.00  0.00    +0.000 C 
ATOM     17  C   UNL     1       2.802   2.409  17.607  0.00  0.00    +0.000 C 
ENDBRANCH   8  17
ENDBRANCH   1  13
BRANCH   4  18
ATOM     18  N   UNL     1      -0.694  11.172  20.976  0.00  0.00    +0.000 N 
ATOM     19  H   UNL     1      -1.639  11.073  20.628  0.00  0.00    +0.000 HD
BRANCH  18  20
ATOM     20  C   UNL     1      -0.369  12.427  21.506  0.00  0.00    +0.000 A 
ATOM     21  C   UNL     1      -1.127  12.953  22.554  0.00  0.00    +0.000 A 
ATOM     22  C   UNL     1      -0.840  14.221  23.062  0.00  0.00    +0.000 A 
ATOM     23  C   UNL     1       0.215  14.941  22.516  0.00  0.00    +0.000 A 
ATOM     24  C   UNL     1       0.521  16.338  22.956  0.00  0.00    +0.000 C 
ATOM     25  N   UNL     1       1.006  14.442  21.543  0.00  0.00    +0.000 NA
ATOM     26  C   UNL     1       0.705  13.205  21.078  0.00  0.00    +0.000 A 
ENDBRANCH  18  20
ENDBRANCH   4  18
TORSDOF 4
ENDMDL
MODEL 9
REMARK VINA RESULT:      -7.2      2.185      3.107
REMARK  Name = 
REMARK  6 active torsions:
REMARK  status: ('A' for Active; 'I' for Inactive)
REMARK    1  A    between atoms: C_1  and  C_2
REMARK    2  A    between atoms: C_2  and  C_3
REMARK    3  A    between atoms: C_8  and  C_10
REMARK    4  A    between atoms: C_13  and  N_14
REMARK    5  A    between atoms: N_14  and  C_15
REMARK    6  A    between atoms: C_18  and  C_19
REMARK                            x       y       z     vdW  Elec       q    Type
REMARK                         _______ _______ _______ _____ _____    ______ ____
ROOT
ATOM      1  C   UNL     1       2.174   7.790  18.963  0.00  0.00    +0.000 A 
ATOM      2  C   UNL     1       1.783   8.720  18.018  0.00  0.00    +0.000 A 
ATOM      3  N   UNL     1       1.112   9.867  18.313  0.00  0.00    +0.000 NA
ATOM      4  C   UNL     1       0.797  10.115  19.608  0.00  0.00    +0.000 A 
ATOM      5  C   UNL     1       1.130   9.206  20.615  0.00  0.00    +0.000 A 
ATOM      6 CL   UNL     1       0.730   9.483  22.274  0.00  0.00    +0.000 Cl
ATOM      7  C   UNL     1       1.786   8.026  20.280  0.00  0.00    +0.000 A 
ENDROOT
BRANCH   1  13
ATOM      8  C   UNL     1       2.107   3.152  18.386  0.00  0.00    +0.000 C 
ATOM      9  C   UNL     1       1.186   3.009  19.621  0.00  0.00    +0.000 C 
ATOM     10  C   UNL     1       0.818   4.353  20.240  0.00  0.00    +0.000 C 
ATOM     11  C   UNL     1       2.081   5.169  20.501  0.00  0.00    +0.000 C 
ATOM     12  N   UNL     1       2.769   5.374  19.233  0.00  0.00    +0.000 N 
ATOM     13  C   UNL     1       2.886   6.575  18.521  0.00  0.00    +0.000 C 
ATOM     14  O   UNL     1       3.574   6.676  17.506  0.00  0.00    +0.000 OA
ATOM     15  C   UNL     1       3.267   4.136  18.636  0.00  0.00    +0.000 C 
BRANCH   8  17
ATOM     16  C   UNL     1       3.927   1.356  18.597  0.00  0.00    +0.000 C 
ATOM     17  C   UNL     1       2.598   1.753  17.980  0.00  0.00    +0.000 C 
ENDBRANCH   8  17
ENDBRANCH   1  13
BRANCH   4  18
ATOM     18  N   UNL     1       0.019  11.244  19.918  0.00  0.00    +0.000 N 
ATOM     19  H   UNL     1      -0.973  11.053  19.973  0.00  0.00    +0.000 HD
BRANCH  18  20
ATOM     20  C   UNL     1       0.371  12.591  19.754  0.00  0.00    +0.000 A 
ATOM     21  C   UNL     1      -0.454  13.436  19.009  0.00  0.00    +0.000 A 
ATOM     22  C   UNL     1      -0.093  14.768  18.802  0.00  0.00    +0.000 A 
ATOM     23  C   UNL     1       1.091  15.237  19.359  0.00  0.00    +0.000 A 
ATOM     24  C   UNL     1       1.578  16.629  19.105  0.00  0.00    +0.000 C 
ATOM     25  N   UNL     1       1.883  14.467  20.133  0.00  0.00    +0.000 NA
ATOM     26  C   UNL     1       1.499  13.181  20.320  0.00  0.00    +0.000 A 
ENDBRANCH  18  20
ENDBRANCH   4  18
TORSDOF 4
ENDMDL
