MODEL 1
REMARK VINA RESULT:      -8.7      0.000      0.000
REMARK  Name = 
REMARK  7 active torsions:
REMARK  status: ('A' for Active; 'I' for Inactive)
REMARK    1  A    between atoms: C_2  and  C_18
REMARK    2  A    between atoms: N_3  and  C_4
REMARK    3  A    between atoms: C_6  and  C_7
REMARK    4  A    between atoms: C_13  and  C_14
REMARK    5  A    between atoms: C_21  and  S_22
REMARK    6  A    between atoms: S_22  and  C_23
REMARK    7  A    between atoms: C_26  and  O_27
REMARK                            x       y       z     vdW  Elec       q    Type
REMARK                         _______ _______ _______ _____ _____    ______ ____
ROOT
ATOM      1  O   UNL     1       2.845   8.210  17.046  0.00  0.00    +0.000 OA
ATOM      2  C   UNL     1       2.472   7.998  18.195  0.00  0.00    +0.000 C 
ATOM      3  N   UNL     1       2.779   6.884  18.964  0.00  0.00    +0.000 N 
ATOM      4  H   UNL     1       2.205   6.733  19.790  0.00  0.00    +0.000 HD
ENDROOT
BRANCH   3   5
ATOM      5  C   UNL     1       3.659   5.837  18.589  0.00  0.00    +0.000 A 
ATOM      6  C   UNL     1       5.044   6.054  18.529  0.00  0.00    +0.000 A 
ATOM      7  C   UNL     1       5.940   5.067  18.092  0.00  0.00    +0.000 A 
ATOM      8  C   UNL     1       5.441   3.804  17.774  0.00  0.00    +0.000 A 
ATOM      9  C   UNL     1       4.074   3.548  17.873  0.00  0.00    +0.000 A 
ATOM     10  C   UNL     1       3.166   4.556  18.269  0.00  0.00    +0.000 A 
BRANCH   7  11
ATOM     11  C   UNL     1       7.407   5.382  17.938  0.00  0.00    +0.000 C 
ATOM     12  F   UNL     1       7.994   5.863  19.068  0.00  0.00    +0.000 F 
ATOM     13  F   UNL     1       8.138   4.292  17.575  0.00  0.00    +0.000 F 
ATOM     14  F   UNL     1       7.632   6.320  16.975  0.00  0.00    +0.000 F 
ENDBRANCH   7  11
BRANCH  10  15
ATOM     15  C   UNL     1       1.701   4.195  18.272  0.00  0.00    +0.000 C 
ATOM     16  F   UNL     1       1.070   4.427  19.461  0.00  0.00    +0.000 F 
ATOM     17  F   UNL     1       0.993   4.888  17.338  0.00  0.00    +0.000 F 
ATOM     18  F   UNL     1       1.488   2.878  17.999  0.00  0.00    +0.000 F 
ENDBRANCH  10  15
ENDBRANCH   3   5
BRANCH   2  19
ATOM     19  C   UNL     1       1.546   8.987  18.807  0.00  0.00    +0.000 A 
ATOM     20  C   UNL     1       1.411  10.232  18.180  0.00  0.00    +0.000 A 
ATOM     21  C   UNL     1       0.580  11.210  18.729  0.00  0.00    +0.000 A 
ATOM     22  C   UNL     1      -0.130  10.950  19.904  0.00  0.00    +0.000 A 
ATOM     23  C   UNL     1       0.025   9.719  20.545  0.00  0.00    +0.000 A 
ATOM     24  C   UNL     1       0.863   8.737  20.005  0.00  0.00    +0.000 A 
BRANCH  22  25
ATOM     25  S   UNL     1      -1.169  12.214  20.607  0.00  0.00    +0.000 S 
BRANCH  25  26
ATOM     26  C   UNL     1      -2.636  12.077  19.599  0.00  0.00    +0.000 A 
ATOM     27  C   UNL     1      -2.555  11.404  18.375  0.00  0.00    +0.000 A 
ATOM     28  C   UNL     1      -3.693  11.234  17.581  0.00  0.00    +0.000 A 
ATOM     29  C   UNL     1      -4.913  11.738  18.018  0.00  0.00    +0.000 A 
ATOM     30  C   UNL     1      -5.012  12.406  19.232  0.00  0.00    +0.000 A 
ATOM     31  C   UNL     1      -3.874  12.573  20.026  0.00  0.00    +0.000 A 
BRANCH  29  32
ATOM     32  O   UNL     1      -6.050  11.587  17.283  0.00  0.00    +0.000 OA
ATOM     33  H   UNL     1      -6.123  12.332  16.665  0.00  0.00    +0.000 HD
ENDBRANCH  29  32
ENDBRANCH  25  26
ENDBRANCH  22  25
ENDBRANCH   2  19
TORSDOF 7
ENDMDL
MODEL 2
REMARK VINA RESULT:      -8.6      1.994      2.651
REMARK  Name = 
REMARK  7 active torsions:
REMARK  status: ('A' for Active; 'I' for Inactive)
REMARK    1  A    between atoms: C_2  and  C_18
REMARK    2  A    between atoms: N_3  and  C_4
REMARK    3  A    between atoms: C_6  and  C_7
REMARK    4  A    between atoms: C_13  and  C_14
REMARK    5  A    between atoms: C_21  and  S_22
REMARK    6  A    between atoms: S_22  and  C_23
REMARK    7  A    between atoms: C_26  and  O_27
REMARK                            x       y       z     vdW  Elec       q    Type
REMARK                         _______ _______ _______ _____ _____    ______ ____
ROOT
ATOM      1  O   UNL     1       2.375   8.195  17.586  0.00  0.00    +0.000 OA
ATOM      2  C   UNL     1       2.298   7.758  18.729  0.00  0.00    +0.000 C 
ATOM      3  N   UNL     1       2.806   6.546  19.178  0.00  0.00    +0.000 N 
ATOM      4  H   UNL     1       2.454   6.213  20.073  0.00  0.00    +0.000 HD
ENDROOT
BRANCH   3   5
ATOM      5  C   UNL     1       3.588   5.643  18.414  0.00  0.00    +0.000 A 
ATOM      6  C   UNL     1       4.947   5.898  18.175  0.00  0.00    +0.000 A 
ATOM      7  C   UNL     1       5.735   5.069  17.365  0.00  0.00    +0.000 A 
ATOM      8  C   UNL     1       5.163   3.911  16.836  0.00  0.00    +0.000 A 
ATOM      9  C   UNL     1       3.828   3.609  17.100  0.00  0.00    +0.000 A 
ATOM     10  C   UNL     1       3.022   4.469  17.879  0.00  0.00    +0.000 A 
BRANCH   7  11
ATOM     11  C   UNL     1       7.161   5.443  17.046  0.00  0.00    +0.000 C 
ATOM     12  F   UNL     1       8.090   4.622  17.607  0.00  0.00    +0.000 F 
ATOM     13  F   UNL     1       7.415   5.433  15.708  0.00  0.00    +0.000 F 
ATOM     14  F   UNL     1       7.469   6.700  17.475  0.00  0.00    +0.000 F 
ENDBRANCH   7  11
BRANCH  10  15
ATOM     15  C   UNL     1       1.571   4.085  18.041  0.00  0.00    +0.000 C 
ATOM     16  F   UNL     1       0.725   4.718  17.175  0.00  0.00    +0.000 F 
ATOM     17  F   UNL     1       1.361   2.753  17.853  0.00  0.00    +0.000 F 
ATOM     18  F   UNL     1       1.093   4.365  19.285  0.00  0.00    +0.000 F 
ENDBRANCH  10  15
ENDBRANCH   3   5
BRANCH   2  19
ATOM     19  C   UNL     1       1.531   8.558  19.718  0.00  0.00    +0.000 A 
ATOM     20  C   UNL     1       1.461   8.080  21.033  0.00  0.00    +0.000 A 
ATOM     21  C   UNL     1       0.729   8.775  21.997  0.00  0.00    +0.000 A 
ATOM     22  C   UNL     1       0.067   9.958  21.659  0.00  0.00    +0.000 A 
ATOM     23  C   UNL     1       0.113  10.422  20.342  0.00  0.00    +0.000 A 
ATOM     24  C   UNL     1       0.838   9.725  19.369  0.00  0.00    +0.000 A 
BRANCH  22  25
ATOM     25  S   UNL     1      -0.884  10.823  22.891  0.00  0.00    +0.000 S 
BRANCH  25  26
ATOM     26  C   UNL     1      -1.263  12.350  22.048  0.00  0.00    +0.000 A 
ATOM     27  C   UNL     1      -0.305  13.370  22.028  0.00  0.00    +0.000 A 
ATOM     28  C   UNL     1      -0.547  14.560  21.336  0.00  0.00    +0.000 A 
ATOM     29  C   UNL     1      -1.750  14.725  20.660  0.00  0.00    +0.000 A 
ATOM     30  C   UNL     1      -2.712  13.722  20.666  0.00  0.00    +0.000 A 
ATOM     31  C   UNL     1      -2.467  12.532  21.356  0.00  0.00    +0.000 A 
BRANCH  29  32
ATOM     32  O   UNL     1      -2.025  15.864  19.965  0.00  0.00    +0.000 OA
ATOM     33  H   UNL     1      -1.260  16.083  19.410  0.00  0.00    +0.000 HD
ENDBRANCH  29  32
ENDBRANCH  25  26
ENDBRANCH  22  25
ENDBRANCH   2  19
TORSDOF 7
ENDMDL
MODEL 3
REMARK VINA RESULT:      -8.6      1.073      1.159
REMARK  Name = 
REMARK  7 active torsions:
REMARK  status: ('A' for Active; 'I' for Inactive)
REMARK    1  A    between atoms: C_2  and  C_18
REMARK    2  A    between atoms: N_3  and  C_4
REMARK    3  A    between atoms: C_6  and  C_7
REMARK    4  A    between atoms: C_13  and  C_14
REMARK    5  A    between atoms: C_21  and  S_22
REMARK    6  A    between atoms: S_22  and  C_23
REMARK    7  A    between atoms: C_26  and  O_27
REMARK                            x       y       z     vdW  Elec       q    Type
REMARK                         _______ _______ _______ _____ _____    ______ ____
ROOT
ATOM      1  O   UNL     1       2.673   6.697  20.332  0.00  0.00    +0.000 OA
ATOM      2  C   UNL     1       2.423   7.287  19.286  0.00  0.00    +0.000 C 
ATOM      3  N   UNL     1       2.863   6.930  18.019  0.00  0.00    +0.000 N 
ATOM      4  H   UNL     1       2.783   7.641  17.296  0.00  0.00    +0.000 HD
ENDROOT
BRANCH   3   5
ATOM      5  C   UNL     1       3.603   5.763  17.698  0.00  0.00    +0.000 A 
ATOM      6  C   UNL     1       4.973   5.843  17.408  0.00  0.00    +0.000 A 
ATOM      7  C   UNL     1       5.724   4.725  17.016  0.00  0.00    +0.000 A 
ATOM      8  C   UNL     1       5.098   3.478  16.981  0.00  0.00    +0.000 A 
ATOM      9  C   UNL     1       3.749   3.365  17.312  0.00  0.00    +0.000 A 
ATOM     10  C   UNL     1       2.982   4.498  17.664  0.00  0.00    +0.000 A 
BRANCH   7  11
ATOM     11  C   UNL     1       7.167   4.879  16.607  0.00  0.00    +0.000 C 
ATOM     12  F   UNL     1       8.044   4.207  17.402  0.00  0.00    +0.000 F 
ATOM     13  F   UNL     1       7.399   4.437  15.340  0.00  0.00    +0.000 F 
ATOM     14  F   UNL     1       7.570   6.181  16.628  0.00  0.00    +0.000 F 
ENDBRANCH   7  11
BRANCH  10  15
ATOM     15  C   UNL     1       1.514   4.275  17.932  0.00  0.00    +0.000 C 
ATOM     16  F   UNL     1       1.124   4.590  19.203  0.00  0.00    +0.000 F 
ATOM     17  F   UNL     1       0.717   5.011  17.110  0.00  0.00    +0.000 F 
ATOM     18  F   UNL     1       1.141   2.978  17.749  0.00  0.00    +0.000 F 
ENDBRANCH  10  15
ENDBRANCH   3   5
BRANCH   2  19
ATOM     19  C   UNL     1       1.633   8.542  19.380  0.00  0.00    +0.000 A 
ATOM     20  C   UNL     1       1.765   9.478  18.346  0.00  0.00    +0.000 A 
ATOM     21  C   UNL     1       1.071  10.687  18.398  0.00  0.00    +0.000 A 
ATOM     22  C   UNL     1       0.232  10.970  19.478  0.00  0.00    +0.000 A 
ATOM     23  C   UNL     1       0.119  10.050  20.523  0.00  0.00    +0.000 A 
ATOM     24  C   UNL     1       0.819   8.839  20.482  0.00  0.00    +0.000 A 
BRANCH  22  25
ATOM     25  S   UNL     1      -0.631  12.527  19.544  0.00  0.00    +0.000 S 
BRANCH  25  26
ATOM     26  C   UNL     1      -2.251  12.066  18.954  0.00  0.00    +0.000 A 
ATOM     27  C   UNL     1      -2.353  11.278  17.802  0.00  0.00    +0.000 A 
ATOM     28  C   UNL     1      -3.602  10.856  17.337  0.00  0.00    +0.000 A 
ATOM     29  C   UNL     1      -4.750  11.224  18.031  0.00  0.00    +0.000 A 
ATOM     30  C   UNL     1      -4.667  12.004  19.178  0.00  0.00    +0.000 A 
ATOM     31  C   UNL     1      -3.417  12.422  19.643  0.00  0.00    +0.000 A 
BRANCH  29  32
ATOM     32  O   UNL     1      -5.987  10.829  17.621  0.00  0.00    +0.000 OA
ATOM     33  H   UNL     1      -5.988   9.864  17.515  0.00  0.00    +0.000 HD
ENDBRANCH  29  32
ENDBRANCH  25  26
ENDBRANCH  22  25
ENDBRANCH   2  19
TORSDOF 7
ENDMDL
MODEL 4
REMARK VINA RESULT:      -8.5      2.033      2.639
REMARK  Name = 
REMARK  7 active torsions:
REMARK  status: ('A' for Active; 'I' for Inactive)
REMARK    1  A    between atoms: C_2  and  C_18
REMARK    2  A    between atoms: N_3  and  C_4
REMARK    3  A    between atoms: C_6  and  C_7
REMARK    4  A    between atoms: C_13  and  C_14
REMARK    5  A    between atoms: C_21  and  S_22
REMARK    6  A    between atoms: S_22  and  C_23
REMARK    7  A    between atoms: C_26  and  O_27
REMARK                            x       y       z     vdW  Elec       q    Type
REMARK                         _______ _______ _______ _____ _____    ______ ____
ROOT
ATOM      1  O   UNL     1       2.322   8.113  17.790  0.00  0.00    +0.000 OA
ATOM      2  C   UNL     1       2.266   7.670  18.932  0.00  0.00    +0.000 C 
ATOM      3  N   UNL     1       2.818   6.476  19.376  0.00  0.00    +0.000 N 
ATOM      4  H   UNL     1       2.482   6.129  20.271  0.00  0.00    +0.000 HD
ENDROOT
BRANCH   3   5
ATOM      5  C   UNL     1       3.627   5.602  18.606  0.00  0.00    +0.000 A 
ATOM      6  C   UNL     1       4.995   5.860  18.434  0.00  0.00    +0.000 A 
ATOM      7  C   UNL     1       5.813   5.062  17.622  0.00  0.00    +0.000 A 
ATOM      8  C   UNL     1       5.259   3.932  17.019  0.00  0.00    +0.000 A 
ATOM      9  C   UNL     1       3.912   3.627  17.214  0.00  0.00    +0.000 A 
ATOM     10  C   UNL     1       3.078   4.456  17.997  0.00  0.00    +0.000 A 
BRANCH   7  11
ATOM     11  C   UNL     1       7.252   5.442  17.378  0.00  0.00    +0.000 C 
ATOM     12  F   UNL     1       7.500   5.899  16.120  0.00  0.00    +0.000 F 
ATOM     13  F   UNL     1       7.682   6.421  18.220  0.00  0.00    +0.000 F 
ATOM     14  F   UNL     1       8.099   4.390  17.564  0.00  0.00    +0.000 F 
ENDBRANCH   7  11
BRANCH  10  15
ATOM     15  C   UNL     1       1.621   4.075  18.082  0.00  0.00    +0.000 C 
ATOM     16  F   UNL     1       1.373   2.754  17.835  0.00  0.00    +0.000 F 
ATOM     17  F   UNL     1       1.089   4.324  19.311  0.00  0.00    +0.000 F 
ATOM     18  F   UNL     1       0.848   4.762  17.197  0.00  0.00    +0.000 F 
ENDBRANCH  10  15
ENDBRANCH   3   5
BRANCH   2  19
ATOM     19  C   UNL     1       1.477   8.442  19.928  0.00  0.00    +0.000 A 
ATOM     20  C   UNL     1       0.762   9.557  19.474  0.00  0.00    +0.000 A 
ATOM     21  C   UNL     1       0.029  10.336  20.370  0.00  0.00    +0.000 A 
ATOM     22  C   UNL     1      -0.003  10.004  21.727  0.00  0.00    +0.000 A 
ATOM     23  C   UNL     1       0.731   8.908  22.186  0.00  0.00    +0.000 A 
ATOM     24  C   UNL     1       1.475   8.128  21.294  0.00  0.00    +0.000 A 
BRANCH  22  25
ATOM     25  S   UNL     1      -0.923  11.020  22.865  0.00  0.00    +0.000 S 
BRANCH  25  26
ATOM     26  C   UNL     1      -1.160  12.508  21.909  0.00  0.00    +0.000 A 
ATOM     27  C   UNL     1      -2.421  12.765  21.358  0.00  0.00    +0.000 A 
ATOM     28  C   UNL     1      -2.659  13.944  20.645  0.00  0.00    +0.000 A 
ATOM     29  C   UNL     1      -1.630  14.867  20.488  0.00  0.00    +0.000 A 
ATOM     30  C   UNL     1      -0.374  14.630  21.031  0.00  0.00    +0.000 A 
ATOM     31  C   UNL     1      -0.139  13.452  21.746  0.00  0.00    +0.000 A 
BRANCH  29  32
ATOM     32  O   UNL     1      -1.819  16.033  19.810  0.00  0.00    +0.000 OA
ATOM     33  H   UNL     1      -2.764  16.252  19.821  0.00  0.00    +0.000 HD
ENDBRANCH  29  32
ENDBRANCH  25  26
ENDBRANCH  22  25
ENDBRANCH   2  19
TORSDOF 7
ENDMDL
MODEL 5
REMARK VINA RESULT:      -8.5      2.491      3.893
REMARK  Name = 
REMARK  7 active torsions:
REMARK  status: ('A' for Active; 'I' for Inactive)
REMARK    1  A    between atoms: C_2  and  C_18
REMARK    2  A    between atoms: N_3  and  C_4
REMARK    3  A    between atoms: C_6  and  C_7
REMARK    4  A    between atoms: C_13  and  C_14
REMARK    5  A    between atoms: C_21  and  S_22
REMARK    6  A    between atoms: S_22  and  C_23
REMARK    7  A    between atoms: C_26  and  O_27
REMARK                            x       y       z     vdW  Elec       q    Type
REMARK                         _______ _______ _______ _____ _____    ______ ____
ROOT
ATOM      1  O   UNL     1       3.273   5.245  18.267  0.00  0.00    +0.000 OA
ATOM      2  C   UNL     1       3.535   6.386  17.901  0.00  0.00    +0.000 C 
ATOM      3  N   UNL     1       4.603   6.764  17.099  0.00  0.00    +0.000 N 
ATOM      4  H   UNL     1       4.829   7.755  17.086  0.00  0.00    +0.000 HD
ENDROOT
BRANCH   3   5
ATOM      5  C   UNL     1       5.527   5.882  16.483  0.00  0.00    +0.000 A 
ATOM      6  C   UNL     1       5.297   5.395  15.187  0.00  0.00    +0.000 A 
ATOM      7  C   UNL     1       6.148   4.466  14.572  0.00  0.00    +0.000 A 
ATOM      8  C   UNL     1       7.302   4.066  15.248  0.00  0.00    +0.000 A 
ATOM      9  C   UNL     1       7.579   4.573  16.517  0.00  0.00    +0.000 A 
ATOM     10  C   UNL     1       6.697   5.475  17.154  0.00  0.00    +0.000 A 
BRANCH   7  11
ATOM     11  C   UNL     1       5.801   3.887  13.224  0.00  0.00    +0.000 C 
ATOM     12  F   UNL     1       6.506   4.424  12.191  0.00  0.00    +0.000 F 
ATOM     13  F   UNL     1       6.016   2.544  13.162  0.00  0.00    +0.000 F 
ATOM     14  F   UNL     1       4.487   4.069  12.910  0.00  0.00    +0.000 F 
ENDBRANCH   7  11
BRANCH  10  15
ATOM     15  C   UNL     1       7.055   5.904  18.556  0.00  0.00    +0.000 C 
ATOM     16  F   UNL     1       6.069   5.686  19.476  0.00  0.00    +0.000 F 
ATOM     17  F   UNL     1       8.153   5.257  19.034  0.00  0.00    +0.000 F 
ATOM     18  F   UNL     1       7.341   7.233  18.638  0.00  0.00    +0.000 F 
ENDBRANCH  10  15
ENDBRANCH   3   5
BRANCH   2  19
ATOM     19  C   UNL     1       2.675   7.484  18.414  0.00  0.00    +0.000 A 
ATOM     20  C   UNL     1       2.494   8.608  17.598  0.00  0.00    +0.000 A 
ATOM     21  C   UNL     1       1.722   9.683  18.041  0.00  0.00    +0.000 A 
ATOM     22  C   UNL     1       1.117   9.642  19.300  0.00  0.00    +0.000 A 
ATOM     23  C   UNL     1       1.319   8.533  20.126  0.00  0.00    +0.000 A 
ATOM     24  C   UNL     1       2.099   7.456  19.691  0.00  0.00    +0.000 A 
BRANCH  22  25
ATOM     25  S   UNL     1       0.154  11.030  19.865  0.00  0.00    +0.000 S 
BRANCH  25  26
ATOM     26  C   UNL     1      -1.293  10.911  18.826  0.00  0.00    +0.000 A 
ATOM     27  C   UNL     1      -2.375  11.763  19.073  0.00  0.00    +0.000 A 
ATOM     28  C   UNL     1      -3.505  11.733  18.250  0.00  0.00    +0.000 A 
ATOM     29  C   UNL     1      -3.547  10.848  17.178  0.00  0.00    +0.000 A 
ATOM     30  C   UNL     1      -2.480   9.997  16.917  0.00  0.00    +0.000 A 
ATOM     31  C   UNL     1      -1.350  10.031  17.738  0.00  0.00    +0.000 A 
BRANCH  29  32
ATOM     32  O   UNL     1      -4.623  10.791  16.345  0.00  0.00    +0.000 OA
ATOM     33  H   UNL     1      -4.968  11.690  16.217  0.00  0.00    +0.000 HD
ENDBRANCH  29  32
ENDBRANCH  25  26
ENDBRANCH  22  25
ENDBRANCH   2  19
TORSDOF 7
ENDMDL
MODEL 6
REMARK VINA RESULT:      -8.5      2.479      3.983
REMARK  Name = 
REMARK  7 active torsions:
REMARK  status: ('A' for Active; 'I' for Inactive)
REMARK    1  A    between atoms: C_2  and  C_18
REMARK    2  A    between atoms: N_3  and  C_4
REMARK    3  A    between atoms: C_6  and  C_7
REMARK    4  A    between atoms: C_13  and  C_14
REMARK    5  A    between atoms: C_21  and  S_22
REMARK    6  A    between atoms: S_22  and  C_23
REMARK    7  A    between atoms: C_26  and  O_27
REMARK                            x       y       z     vdW  Elec       q    Type
REMARK                         _______ _______ _______ _____ _____    ______ ____
ROOT
ATOM      1  O   UNL     1       3.149   5.342  18.089  0.00  0.00    +0.000 OA
ATOM      2  C   UNL     1       3.500   6.480  17.798  0.00  0.00    +0.000 C 
ATOM      3  N   UNL     1       4.638   6.829  17.082  0.00  0.00    +0.000 N 
ATOM      4  H   UNL     1       4.922   7.804  17.133  0.00  0.00    +0.000 HD
ENDROOT
BRANCH   3   5
ATOM      5  C   UNL     1       5.546   5.922  16.480  0.00  0.00    +0.000 A 
ATOM      6  C   UNL     1       5.316   5.433  15.185  0.00  0.00    +0.000 A 
ATOM      7  C   UNL     1       6.149   4.480  14.583  0.00  0.00    +0.000 A 
ATOM      8  C   UNL     1       7.288   4.057  15.271  0.00  0.00    +0.000 A 
ATOM      9  C   UNL     1       7.566   4.565  16.539  0.00  0.00    +0.000 A 
ATOM     10  C   UNL     1       6.701   5.491  17.163  0.00  0.00    +0.000 A 
BRANCH   7  11
ATOM     11  C   UNL     1       5.799   3.901  13.235  0.00  0.00    +0.000 C 
ATOM     12  F   UNL     1       5.995   2.557  13.141  0.00  0.00    +0.000 F 
ATOM     13  F   UNL     1       4.496   4.110  12.900  0.00  0.00    +0.000 F 
ATOM     14  F   UNL     1       6.537   4.454  12.231  0.00  0.00    +0.000 F 
ENDBRANCH   7  11
BRANCH  10  15
ATOM     15  C   UNL     1       7.057   5.921  18.565  0.00  0.00    +0.000 C 
ATOM     16  F   UNL     1       6.049   5.757  19.473  0.00  0.00    +0.000 F 
ATOM     17  F   UNL     1       8.119   5.232  19.067  0.00  0.00    +0.000 F 
ATOM     18  F   UNL     1       7.400   7.237  18.637  0.00  0.00    +0.000 F 
ENDBRANCH  10  15
ENDBRANCH   3   5
BRANCH   2  19
ATOM     19  C   UNL     1       2.676   7.605  18.312  0.00  0.00    +0.000 A 
ATOM     20  C   UNL     1       2.114   7.473  19.589  0.00  0.00    +0.000 A 
ATOM     21  C   UNL     1       1.306   8.484  20.110  0.00  0.00    +0.000 A 
ATOM     22  C   UNL     1       1.056   9.639  19.364  0.00  0.00    +0.000 A 
ATOM     23  C   UNL     1       1.593   9.760  18.080  0.00  0.00    +0.000 A 
ATOM     24  C   UNL     1       2.397   8.746  17.548  0.00  0.00    +0.000 A 
BRANCH  22  25
ATOM     25  S   UNL     1       0.004  10.912  20.030  0.00  0.00    +0.000 S 
BRANCH  25  26
ATOM     26  C   UNL     1      -1.384  10.856  18.908  0.00  0.00    +0.000 A 
ATOM     27  C   UNL     1      -2.443  11.751  19.096  0.00  0.00    +0.000 A 
ATOM     28  C   UNL     1      -3.524  11.770  18.209  0.00  0.00    +0.000 A 
ATOM     29  C   UNL     1      -3.539  10.892  17.131  0.00  0.00    +0.000 A 
ATOM     30  C   UNL     1      -2.494   9.998  16.928  0.00  0.00    +0.000 A 
ATOM     31  C   UNL     1      -1.413   9.983  17.813  0.00  0.00    +0.000 A 
BRANCH  29  32
ATOM     32  O   UNL     1      -4.566  10.881  16.236  0.00  0.00    +0.000 OA
ATOM     33  H   UNL     1      -4.356  10.252  15.527  0.00  0.00    +0.000 HD
ENDBRANCH  29  32
ENDBRANCH  25  26
ENDBRANCH  22  25
ENDBRANCH   2  19
TORSDOF 7
ENDMDL
MODEL 7
REMARK VINA RESULT:      -8.5      2.037      2.544
REMARK  Name = 
REMARK  7 active torsions:
REMARK  status: ('A' for Active; 'I' for Inactive)
REMARK    1  A    between atoms: C_2  and  C_18
REMARK    2  A    between atoms: N_3  and  C_4
REMARK    3  A    between atoms: C_6  and  C_7
REMARK    4  A    between atoms: C_13  and  C_14
REMARK    5  A    between atoms: C_21  and  S_22
REMARK    6  A    between atoms: S_22  and  C_23
REMARK    7  A    between atoms: C_26  and  O_27
REMARK                            x       y       z     vdW  Elec       q    Type
REMARK                         _______ _______ _______ _____ _____    ______ ____
ROOT
ATOM      1  O   UNL     1       2.396   8.231  17.723  0.00  0.00    +0.000 OA
ATOM      2  C   UNL     1       2.285   7.727  18.836  0.00  0.00    +0.000 C 
ATOM      3  N   UNL     1       2.774   6.487  19.226  0.00  0.00    +0.000 N 
ATOM      4  H   UNL     1       2.395   6.105  20.089  0.00  0.00    +0.000 HD
ENDROOT
BRANCH   3   5
ATOM      5  C   UNL     1       3.570   5.625  18.431  0.00  0.00    +0.000 A 
ATOM      6  C   UNL     1       4.924   5.913  18.199  0.00  0.00    +0.000 A 
ATOM      7  C   UNL     1       5.726   5.126  17.360  0.00  0.00    +0.000 A 
ATOM      8  C   UNL     1       5.174   3.976  16.793  0.00  0.00    +0.000 A 
ATOM      9  C   UNL     1       3.845   3.641  17.048  0.00  0.00    +0.000 A 
ATOM     10  C   UNL     1       3.025   4.459  17.857  0.00  0.00    +0.000 A 
BRANCH   7  11
ATOM     11  C   UNL     1       7.143   5.538  17.051  0.00  0.00    +0.000 C 
ATOM     12  F   UNL     1       7.494   6.749  17.565  0.00  0.00    +0.000 F 
ATOM     13  F   UNL     1       8.059   4.651  17.531  0.00  0.00    +0.000 F 
ATOM     14  F   UNL     1       7.372   5.623  15.710  0.00  0.00    +0.000 F 
ENDBRANCH   7  11
BRANCH  10  15
ATOM     15  C   UNL     1       1.582   4.043  18.009  0.00  0.00    +0.000 C 
ATOM     16  F   UNL     1       0.729   4.654  17.133  0.00  0.00    +0.000 F 
ATOM     17  F   UNL     1       1.404   2.706  17.824  0.00  0.00    +0.000 F 
ATOM     18  F   UNL     1       1.087   4.317  19.248  0.00  0.00    +0.000 F 
ENDBRANCH  10  15
ENDBRANCH   3   5
BRANCH   2  19
ATOM     19  C   UNL     1       1.497   8.474  19.850  0.00  0.00    +0.000 A 
ATOM     20  C   UNL     1       0.844   9.644  19.441  0.00  0.00    +0.000 A 
ATOM     21  C   UNL     1       0.116  10.402  20.358  0.00  0.00    +0.000 A 
ATOM     22  C   UNL     1       0.025   9.994  21.692  0.00  0.00    +0.000 A 
ATOM     23  C   UNL     1       0.698   8.843  22.108  0.00  0.00    +0.000 A 
ATOM     24  C   UNL     1       1.437   8.083  21.195  0.00  0.00    +0.000 A 
BRANCH  22  25
ATOM     25  S   UNL     1      -0.888  10.982  22.859  0.00  0.00    +0.000 S 
BRANCH  25  26
ATOM     26  C   UNL     1      -1.146  12.487  21.934  0.00  0.00    +0.000 A 
ATOM     27  C   UNL     1      -0.120  13.438  21.889  0.00  0.00    +0.000 A 
ATOM     28  C   UNL     1      -0.266  14.606  21.135  0.00  0.00    +0.000 A 
ATOM     29  C   UNL     1      -1.441  14.818  20.423  0.00  0.00    +0.000 A 
ATOM     30  C   UNL     1      -2.469  13.883  20.453  0.00  0.00    +0.000 A 
ATOM     31  C   UNL     1      -2.319  12.715  21.205  0.00  0.00    +0.000 A 
BRANCH  29  32
ATOM     32  O   UNL     1      -1.624  15.936  19.667  0.00  0.00    +0.000 OA
ATOM     33  H   UNL     1      -0.804  16.456  19.676  0.00  0.00    +0.000 HD
ENDBRANCH  29  32
ENDBRANCH  25  26
ENDBRANCH  22  25
ENDBRANCH   2  19
TORSDOF 7
ENDMDL
MODEL 8
REMARK VINA RESULT:      -8.4      0.995      1.324
REMARK  Name = 
REMARK  7 active torsions:
REMARK  status: ('A' for Active; 'I' for Inactive)
REMARK    1  A    between atoms: C_2  and  C_18
REMARK    2  A    between atoms: N_3  and  C_4
REMARK    3  A    between atoms: C_6  and  C_7
REMARK    4  A    between atoms: C_13  and  C_14
REMARK    5  A    between atoms: C_21  and  S_22
REMARK    6  A    between atoms: S_22  and  C_23
REMARK    7  A    between atoms: C_26  and  O_27
REMARK                            x       y       z     vdW  Elec       q    Type
REMARK                         _______ _______ _______ _____ _____    ______ ____
ROOT
ATOM      1  O   UNL     1       2.521   7.035  20.472  0.00  0.00    +0.000 OA
ATOM      2  C   UNL     1       2.244   7.555  19.397  0.00  0.00    +0.000 C 
ATOM      3  N   UNL     1       2.723   7.169  18.152  0.00  0.00    +0.000 N 
ATOM      4  H   UNL     1       2.604   7.838  17.395  0.00  0.00    +0.000 HD
ENDROOT
BRANCH   3   5
ATOM      5  C   UNL     1       3.546   6.043  17.896  0.00  0.00    +0.000 A 
ATOM      6  C   UNL     1       4.929   6.194  17.714  0.00  0.00    +0.000 A 
ATOM      7  C   UNL     1       5.765   5.117  17.386  0.00  0.00    +0.000 A 
ATOM      8  C   UNL     1       5.210   3.839  17.309  0.00  0.00    +0.000 A 
ATOM      9  C   UNL     1       3.847   3.655  17.534  0.00  0.00    +0.000 A 
ATOM     10  C   UNL     1       2.997   4.747  17.819  0.00  0.00    +0.000 A 
BRANCH   7  11
ATOM     11  C   UNL     1       7.226   5.346  17.090  0.00  0.00    +0.000 C 
ATOM     12  F   UNL     1       7.807   6.301  17.867  0.00  0.00    +0.000 F 
ATOM     13  F   UNL     1       7.975   4.222  17.262  0.00  0.00    +0.000 F 
ATOM     14  F   UNL     1       7.433   5.740  15.802  0.00  0.00    +0.000 F 
ENDBRANCH   7  11
BRANCH  10  15
ATOM     15  C   UNL     1       1.526   4.447  17.973  0.00  0.00    +0.000 C 
ATOM     16  F   UNL     1       1.030   4.706  19.220  0.00  0.00    +0.000 F 
ATOM     17  F   UNL     1       0.755   5.169  17.114  0.00  0.00    +0.000 F 
ATOM     18  F   UNL     1       1.231   3.141  17.729  0.00  0.00    +0.000 F 
ENDBRANCH  10  15
ENDBRANCH   3   5
BRANCH   2  19
ATOM     19  C   UNL     1       1.368   8.755  19.422  0.00  0.00    +0.000 A 
ATOM     20  C   UNL     1       1.475   9.666  18.363  0.00  0.00    +0.000 A 
ATOM     21  C   UNL     1       0.700  10.826  18.351  0.00  0.00    +0.000 A 
ATOM     22  C   UNL     1      -0.196  11.084  19.391  0.00  0.00    +0.000 A 
ATOM     23  C   UNL     1      -0.285  10.190  20.462  0.00  0.00    +0.000 A 
ATOM     24  C   UNL     1       0.496   9.029  20.485  0.00  0.00    +0.000 A 
BRANCH  22  25
ATOM     25  S   UNL     1      -1.164  12.579  19.377  0.00  0.00    +0.000 S 
BRANCH  25  26
ATOM     26  C   UNL     1      -2.790  11.952  18.993  0.00  0.00    +0.000 A 
ATOM     27  C   UNL     1      -3.895  12.470  19.678  0.00  0.00    +0.000 A 
ATOM     28  C   UNL     1      -5.189  12.039  19.370  0.00  0.00    +0.000 A 
ATOM     29  C   UNL     1      -5.374  11.090  18.371  0.00  0.00    +0.000 A 
ATOM     30  C   UNL     1      -4.289  10.567  17.678  0.00  0.00    +0.000 A 
ATOM     31  C   UNL     1      -2.997  11.001  17.985  0.00  0.00    +0.000 A 
BRANCH  29  32
ATOM     32  O   UNL     1      -6.617  10.648  18.031  0.00  0.00    +0.000 OA
ATOM     33  H   UNL     1      -7.121  10.479  18.843  0.00  0.00    +0.000 HD
ENDBRANCH  29  32
ENDBRANCH  25  26
ENDBRANCH  22  25
ENDBRANCH   2  19
TORSDOF 7
ENDMDL
MODEL 9
REMARK VINA RESULT:      -8.4      0.614      1.468
REMARK  Name = 
REMARK  7 active torsions:
REMARK  status: ('A' for Active; 'I' for Inactive)
REMARK    1  A    between atoms: C_2  and  C_18
REMARK    2  A    between atoms: N_3  and  C_4
REMARK    3  A    between atoms: C_6  and  C_7
REMARK    4  A    between atoms: C_13  and  C_14
REMARK    5  A    between atoms: C_21  and  S_22
REMARK    6  A    between atoms: S_22  and  C_23
REMARK    7  A    between atoms: C_26  and  O_27
REMARK                            x       y       z     vdW  Elec       q    Type
REMARK                         _______ _______ _______ _____ _____    ______ ____
ROOT
ATOM      1  O   UNL     1       3.439   8.289  16.938  0.00  0.00    +0.000 OA
ATOM      2  C   UNL     1       2.831   7.952  17.948  0.00  0.00    +0.000 C 
ATOM      3  N   UNL     1       2.830   6.687  18.520  0.00  0.00    +0.000 N 
ATOM      4  H   UNL     1       2.095   6.499  19.198  0.00  0.00    +0.000 HD
ENDROOT
BRANCH   3   5
ATOM      5  C   UNL     1       3.609   5.584  18.088  0.00  0.00    +0.000 A 
ATOM      6  C   UNL     1       4.984   5.729  17.849  0.00  0.00    +0.000 A 
ATOM      7  C   UNL     1       5.774   4.683  17.352  0.00  0.00    +0.000 A 
ATOM      8  C   UNL     1       5.184   3.434  17.155  0.00  0.00    +0.000 A 
ATOM      9  C   UNL     1       3.830   3.250  17.433  0.00  0.00    +0.000 A 
ATOM     10  C   UNL     1       3.024   4.317  17.890  0.00  0.00    +0.000 A 
BRANCH   7  11
ATOM     11  C   UNL     1       7.223   4.918  17.005  0.00  0.00    +0.000 C 
ATOM     12  F   UNL     1       7.570   4.499  15.757  0.00  0.00    +0.000 F 
ATOM     13  F   UNL     1       7.566   6.234  17.063  0.00  0.00    +0.000 F 
ATOM     14  F   UNL     1       8.067   4.274  17.860  0.00  0.00    +0.000 F 
ENDBRANCH   7  11
BRANCH  10  15
ATOM     15  C   UNL     1       1.557   4.028  18.089  0.00  0.00    +0.000 C 
ATOM     16  F   UNL     1       1.229   2.706  17.995  0.00  0.00    +0.000 F 
ATOM     17  F   UNL     1       1.108   4.432  19.310  0.00  0.00    +0.000 F 
ATOM     18  F   UNL     1       0.771   4.663  17.176  0.00  0.00    +0.000 F 
ENDBRANCH  10  15
ENDBRANCH   3   5
BRANCH   2  19
ATOM     19  C   UNL     1       1.955   8.966  18.590  0.00  0.00    +0.000 A 
ATOM     20  C   UNL     1       1.321   8.618  19.790  0.00  0.00    +0.000 A 
ATOM     21  C   UNL     1       0.463   9.519  20.420  0.00  0.00    +0.000 A 
ATOM     22  C   UNL     1       0.235  10.780  19.863  0.00  0.00    +0.000 A 
ATOM     23  C   UNL     1       0.845  11.119  18.653  0.00  0.00    +0.000 A 
ATOM     24  C   UNL     1       1.700  10.217  18.011  0.00  0.00    +0.000 A 
BRANCH  22  25
ATOM     25  S   UNL     1      -0.881  11.913  20.665  0.00  0.00    +0.000 S 
BRANCH  25  26
ATOM     26  C   UNL     1      -2.319  11.808  19.613  0.00  0.00    +0.000 A 
ATOM     27  C   UNL     1      -2.265  11.001  18.470  0.00  0.00    +0.000 A 
ATOM     28  C   UNL     1      -3.386  10.855  17.649  0.00  0.00    +0.000 A 
ATOM     29  C   UNL     1      -4.564  11.518  17.977  0.00  0.00    +0.000 A 
ATOM     30  C   UNL     1      -4.637  12.321  19.108  0.00  0.00    +0.000 A 
ATOM     31  C   UNL     1      -3.515  12.463  19.930  0.00  0.00    +0.000 A 
BRANCH  29  32
ATOM     32  O   UNL     1      -5.685  11.397  17.211  0.00  0.00    +0.000 OA
ATOM     33  H   UNL     1      -5.457  10.922  16.396  0.00  0.00    +0.000 HD
ENDBRANCH  29  32
ENDBRANCH  25  26
ENDBRANCH  22  25
ENDBRANCH   2  19
TORSDOF 7
ENDMDL
