MODEL 1
REMARK VINA RESULT:      -8.0      0.000      0.000
REMARK  Name = 
REMARK  14 active torsions:
REMARK  status: ('A' for Active; 'I' for Inactive)
REMARK    1  A    between atoms: C_1  and  C_2
REMARK    2  A    between atoms: C_2  and  C_3
REMARK    3  A    between atoms: C_3  and  C_4
REMARK    4  A    between atoms: C_3  and  C_5
REMARK    5  A    between atoms: C_7  and  C_8
REMARK    6  A    between atoms: C_8  and  C_9
REMARK    7  A    between atoms: C_8  and  C_10
REMARK    8  A    between atoms: C_8  and  C_11
REMARK    9  A    between atoms: C_14  and  O_15
REMARK   10  A    between atoms: C_16  and  C_17
REMARK   11  A    between atoms: C_17  and  C_18
REMARK   12  A    between atoms: C_17  and  C_19
REMARK   13  A    between atoms: C_19  and  C_20
REMARK   14  A    between atoms: C_24  and  O_25
REMARK                            x       y       z     vdW  Elec       q    Type
REMARK                         _______ _______ _______ _____ _____    ______ ____
ROOT
ATOM      1  C   UNL     1       2.852   4.827  18.477  0.00  0.00    +0.000 C 
ATOM      2  C   UNL     1       1.706   4.057  17.760  0.00  0.00    +0.000 C 
ATOM      3  C   UNL     1       3.084   4.003  19.781  0.00  0.00    +0.000 C 
ENDROOT
BRANCH   1   6
ATOM      4  C   UNL     1       6.471   5.659  17.324  0.00  0.00    +0.000 A 
ATOM      5  C   UNL     1       5.242   5.663  18.012  0.00  0.00    +0.000 A 
ATOM      6  C   UNL     1       4.159   4.838  17.639  0.00  0.00    +0.000 A 
ATOM      7  C   UNL     1       4.315   4.069  16.474  0.00  0.00    +0.000 A 
ATOM      8  C   UNL     1       5.509   4.088  15.746  0.00  0.00    +0.000 A 
ATOM      9  C   UNL     1       6.578   4.863  16.179  0.00  0.00    +0.000 A 
BRANCH   4  10
ATOM     10  C   UNL     1       7.633   6.536  17.784  0.00  0.00    +0.000 C 
ATOM     11  C   UNL     1       8.128   6.188  19.197  0.00  0.00    +0.000 C 
BRANCH  10  13
ATOM     12  C   UNL     1       8.344   8.987  18.019  0.00  0.00    +0.000 C 
ATOM     13  C   UNL     1       7.230   8.017  17.654  0.00  0.00    +0.000 C 
ENDBRANCH  10  13
ENDBRANCH   4  10
BRANCH   9  14
ATOM     14  O   UNL     1       7.748   4.870  15.472  0.00  0.00    +0.000 OA
ATOM     15  H   UNL     1       8.481   5.061  16.086  0.00  0.00    +0.000 HD
ENDBRANCH   9  14
ENDBRANCH   1   6
BRANCH   1  16
ATOM     16  C   UNL     1       2.379   6.275  18.752  0.00  0.00    +0.000 A 
ATOM     17  C   UNL     1       2.452   7.246  17.737  0.00  0.00    +0.000 A 
ATOM     18  C   UNL     1       2.054   8.566  17.962  0.00  0.00    +0.000 A 
ATOM     19  C   UNL     1       1.574   8.945  19.215  0.00  0.00    +0.000 A 
ATOM     20  C   UNL     1       1.472   8.019  20.255  0.00  0.00    +0.000 A 
ATOM     21  C   UNL     1       1.879   6.690  20.001  0.00  0.00    +0.000 A 
BRANCH  19  22
ATOM     22  O   UNL     1       1.208  10.244  19.423  0.00  0.00    +0.000 OA
ATOM     23  H   UNL     1       1.971  10.731  19.774  0.00  0.00    +0.000 HD
ENDBRANCH  19  22
BRANCH  20  24
ATOM     24  C   UNL     1       0.968   8.366  21.651  0.00  0.00    +0.000 C 
ATOM     25  C   UNL     1       1.937   9.309  22.376  0.00  0.00    +0.000 C 
BRANCH  24  26
ATOM     26  C   UNL     1      -0.468   8.928  21.687  0.00  0.00    +0.000 C 
ATOM     27  C   UNL     1      -0.647  10.064  22.686  0.00  0.00    +0.000 C 
ENDBRANCH  24  26
ENDBRANCH  20  24
ENDBRANCH   1  16
TORSDOF 8
ENDMDL
MODEL 2
REMARK VINA RESULT:      -8.0      0.787      1.040
REMARK  Name = 
REMARK  14 active torsions:
REMARK  status: ('A' for Active; 'I' for Inactive)
REMARK    1  A    between atoms: C_1  and  C_2
REMARK    2  A    between atoms: C_2  and  C_3
REMARK    3  A    between atoms: C_3  and  C_4
REMARK    4  A    between atoms: C_3  and  C_5
REMARK    5  A    between atoms: C_7  and  C_8
REMARK    6  A    between atoms: C_8  and  C_9
REMARK    7  A    between atoms: C_8  and  C_10
REMARK    8  A    between atoms: C_8  and  C_11
REMARK    9  A    between atoms: C_14  and  O_15
REMARK   10  A    between atoms: C_16  and  C_17
REMARK   11  A    between atoms: C_17  and  C_18
REMARK   12  A    between atoms: C_17  and  C_19
REMARK   13  A    between atoms: C_19  and  C_20
REMARK   14  A    between atoms: C_24  and  O_25
REMARK                            x       y       z     vdW  Elec       q    Type
REMARK                         _______ _______ _______ _____ _____    ______ ____
ROOT
ATOM      1  C   UNL     1       2.772   5.436  18.685  0.00  0.00    +0.000 C 
ATOM      2  C   UNL     1       1.579   4.584  18.165  0.00  0.00    +0.000 C 
ATOM      3  C   UNL     1       2.958   4.943  20.154  0.00  0.00    +0.000 C 
ENDROOT
BRANCH   1   6
ATOM      4  C   UNL     1       6.463   5.667  17.483  0.00  0.00    +0.000 A 
ATOM      5  C   UNL     1       5.239   5.919  18.135  0.00  0.00    +0.000 A 
ATOM      6  C   UNL     1       4.075   5.164  17.885  0.00  0.00    +0.000 A 
ATOM      7  C   UNL     1       4.148   4.195  16.870  0.00  0.00    +0.000 A 
ATOM      8  C   UNL     1       5.338   3.962  16.174  0.00  0.00    +0.000 A 
ATOM      9  C   UNL     1       6.485   4.681  16.492  0.00  0.00    +0.000 A 
BRANCH   4  10
ATOM     10  C   UNL     1       7.712   6.480  17.811  0.00  0.00    +0.000 C 
ATOM     11  C   UNL     1       8.182   6.302  19.264  0.00  0.00    +0.000 C 
BRANCH  10  13
ATOM     12  C   UNL     1       8.357   8.929  18.210  0.00  0.00    +0.000 C 
ATOM     13  C   UNL     1       7.461   7.958  17.455  0.00  0.00    +0.000 C 
ENDBRANCH  10  13
ENDBRANCH   4  10
BRANCH   9  14
ATOM     14  O   UNL     1       7.649   4.441  15.819  0.00  0.00    +0.000 OA
ATOM     15  H   UNL     1       8.389   4.479  16.453  0.00  0.00    +0.000 HD
ENDBRANCH   9  14
ENDBRANCH   1   6
BRANCH   1  16
ATOM     16  C   UNL     1       2.389   6.933  18.593  0.00  0.00    +0.000 A 
ATOM     17  C   UNL     1       2.665   7.662  17.423  0.00  0.00    +0.000 A 
ATOM     18  C   UNL     1       2.351   9.019  17.319  0.00  0.00    +0.000 A 
ATOM     19  C   UNL     1       1.754   9.680  18.390  0.00  0.00    +0.000 A 
ATOM     20  C   UNL     1       1.450   9.002  19.573  0.00  0.00    +0.000 A 
ATOM     21  C   UNL     1       1.775   7.630  19.652  0.00  0.00    +0.000 A 
BRANCH  19  22
ATOM     22  O   UNL     1       1.473  11.012  18.279  0.00  0.00    +0.000 OA
ATOM     23  H   UNL     1       2.287  11.484  18.045  0.00  0.00    +0.000 HD
ENDBRANCH  19  22
BRANCH  20  24
ATOM     24  C   UNL     1       0.809   9.664  20.787  0.00  0.00    +0.000 C 
ATOM     25  C   UNL     1      -0.659  10.019  20.519  0.00  0.00    +0.000 C 
BRANCH  24  26
ATOM     26  C   UNL     1       0.945   8.859  22.096  0.00  0.00    +0.000 C 
ATOM     27  C   UNL     1       0.120   9.429  23.244  0.00  0.00    +0.000 C 
ENDBRANCH  24  26
ENDBRANCH  20  24
ENDBRANCH   1  16
TORSDOF 8
ENDMDL
MODEL 3
REMARK VINA RESULT:      -7.9      1.527      2.277
REMARK  Name = 
REMARK  14 active torsions:
REMARK  status: ('A' for Active; 'I' for Inactive)
REMARK    1  A    between atoms: C_1  and  C_2
REMARK    2  A    between atoms: C_2  and  C_3
REMARK    3  A    between atoms: C_3  and  C_4
REMARK    4  A    between atoms: C_3  and  C_5
REMARK    5  A    between atoms: C_7  and  C_8
REMARK    6  A    between atoms: C_8  and  C_9
REMARK    7  A    between atoms: C_8  and  C_10
REMARK    8  A    between atoms: C_8  and  C_11
REMARK    9  A    between atoms: C_14  and  O_15
REMARK   10  A    between atoms: C_16  and  C_17
REMARK   11  A    between atoms: C_17  and  C_18
REMARK   12  A    between atoms: C_17  and  C_19
REMARK   13  A    between atoms: C_19  and  C_20
REMARK   14  A    between atoms: C_24  and  O_25
REMARK                            x       y       z     vdW  Elec       q    Type
REMARK                         _______ _______ _______ _____ _____    ______ ____
ROOT
ATOM      1  C   UNL     1       3.354   3.756  18.099  0.00  0.00    +0.000 C 
ATOM      2  C   UNL     1       2.222   3.118  17.242  0.00  0.00    +0.000 C 
ATOM      3  C   UNL     1       3.845   2.573  18.990  0.00  0.00    +0.000 C 
ENDROOT
BRANCH   1   6
ATOM      4  C   UNL     1       6.640   5.542  17.036  0.00  0.00    +0.000 A 
ATOM      5  C   UNL     1       5.517   5.110  17.769  0.00  0.00    +0.000 A 
ATOM      6  C   UNL     1       4.532   4.261  17.223  0.00  0.00    +0.000 A 
ATOM      7  C   UNL     1       4.657   3.931  15.863  0.00  0.00    +0.000 A 
ATOM      8  C   UNL     1       5.736   4.389  15.101  0.00  0.00    +0.000 A 
ATOM      9  C   UNL     1       6.723   5.172  15.689  0.00  0.00    +0.000 A 
BRANCH   4  10
ATOM     10  C   UNL     1       7.706   6.428  17.676  0.00  0.00    +0.000 C 
ATOM     11  C   UNL     1       7.966   6.086  19.151  0.00  0.00    +0.000 C 
BRANCH  10  13
ATOM     12  C   UNL     1       8.306   8.883  18.099  0.00  0.00    +0.000 C 
ATOM     13  C   UNL     1       7.319   7.905  17.477  0.00  0.00    +0.000 C 
ENDBRANCH  10  13
ENDBRANCH   4  10
BRANCH   9  14
ATOM     14  O   UNL     1       7.783   5.608  14.945  0.00  0.00    +0.000 OA
ATOM     15  H   UNL     1       8.590   5.553  15.491  0.00  0.00    +0.000 HD
ENDBRANCH   9  14
ENDBRANCH   1   6
BRANCH   1  16
ATOM     16  C   UNL     1       2.756   4.924  18.919  0.00  0.00    +0.000 A 
ATOM     17  C   UNL     1       2.254   4.694  20.213  0.00  0.00    +0.000 A 
ATOM     18  C   UNL     1       1.688   5.724  20.968  0.00  0.00    +0.000 A 
ATOM     19  C   UNL     1       1.609   7.011  20.441  0.00  0.00    +0.000 A 
ATOM     20  C   UNL     1       2.099   7.297  19.165  0.00  0.00    +0.000 A 
ATOM     21  C   UNL     1       2.669   6.239  18.422  0.00  0.00    +0.000 A 
BRANCH  19  22
ATOM     22  O   UNL     1       1.034   8.002  21.185  0.00  0.00    +0.000 OA
ATOM     23  H   UNL     1       0.380   8.464  20.637  0.00  0.00    +0.000 HD
ENDBRANCH  19  22
BRANCH  20  24
ATOM     24  C   UNL     1       2.034   8.678  18.523  0.00  0.00    +0.000 C 
ATOM     25  C   UNL     1       3.148   8.863  17.483  0.00  0.00    +0.000 C 
BRANCH  24  26
ATOM     26  C   UNL     1       0.661   9.034  17.918  0.00  0.00    +0.000 C 
ATOM     27  C   UNL     1      -0.022  10.203  18.618  0.00  0.00    +0.000 C 
ENDBRANCH  24  26
ENDBRANCH  20  24
ENDBRANCH   1  16
TORSDOF 8
ENDMDL
MODEL 4
REMARK VINA RESULT:      -7.9      1.214      2.207
REMARK  Name = 
REMARK  14 active torsions:
REMARK  status: ('A' for Active; 'I' for Inactive)
REMARK    1  A    between atoms: C_1  and  C_2
REMARK    2  A    between atoms: C_2  and  C_3
REMARK    3  A    between atoms: C_3  and  C_4
REMARK    4  A    between atoms: C_3  and  C_5
REMARK    5  A    between atoms: C_7  and  C_8
REMARK    6  A    between atoms: C_8  and  C_9
REMARK    7  A    between atoms: C_8  and  C_10
REMARK    8  A    between atoms: C_8  and  C_11
REMARK    9  A    between atoms: C_14  and  O_15
REMARK   10  A    between atoms: C_16  and  C_17
REMARK   11  A    between atoms: C_17  and  C_18
REMARK   12  A    between atoms: C_17  and  C_19
REMARK   13  A    between atoms: C_19  and  C_20
REMARK   14  A    between atoms: C_24  and  O_25
REMARK                            x       y       z     vdW  Elec       q    Type
REMARK                         _______ _______ _______ _____ _____    ______ ____
ROOT
ATOM      1  C   UNL     1       2.991   4.592  18.406  0.00  0.00    +0.000 C 
ATOM      2  C   UNL     1       1.810   3.922  17.646  0.00  0.00    +0.000 C 
ATOM      3  C   UNL     1       3.374   3.534  19.487  0.00  0.00    +0.000 C 
ENDROOT
BRANCH   1   6
ATOM      4  C   UNL     1       6.468   5.803  17.158  0.00  0.00    +0.000 A 
ATOM      5  C   UNL     1       5.310   5.602  17.935  0.00  0.00    +0.000 A 
ATOM      6  C   UNL     1       4.211   4.844  17.480  0.00  0.00    +0.000 A 
ATOM      7  C   UNL     1       4.267   4.368  16.160  0.00  0.00    +0.000 A 
ATOM      8  C   UNL     1       5.385   4.598  15.352  0.00  0.00    +0.000 A 
ATOM      9  C   UNL     1       6.478   5.294  15.855  0.00  0.00    +0.000 A 
BRANCH   4  10
ATOM     10  C   UNL     1       7.654   6.596  17.701  0.00  0.00    +0.000 C 
ATOM     11  C   UNL     1       8.004   6.235  19.154  0.00  0.00    +0.000 C 
BRANCH  10  13
ATOM     12  C   UNL     1       8.389   8.994  18.229  0.00  0.00    +0.000 C 
ATOM     13  C   UNL     1       7.379   8.101  17.523  0.00  0.00    +0.000 C 
ENDBRANCH  10  13
ENDBRANCH   4  10
BRANCH   9  14
ATOM     14  O   UNL     1       7.574   5.506  15.067  0.00  0.00    +0.000 OA
ATOM     15  H   UNL     1       7.332   6.133  14.360  0.00  0.00    +0.000 HD
ENDBRANCH   9  14
ENDBRANCH   1   6
BRANCH   1  16
ATOM     16  C   UNL     1       2.494   5.926  19.014  0.00  0.00    +0.000 A 
ATOM     17  C   UNL     1       2.267   6.030  20.398  0.00  0.00    +0.000 A 
ATOM     18  C   UNL     1       1.798   7.213  20.973  0.00  0.00    +0.000 A 
ATOM     19  C   UNL     1       1.541   8.323  20.170  0.00  0.00    +0.000 A 
ATOM     20  C   UNL     1       1.757   8.278  18.791  0.00  0.00    +0.000 A 
ATOM     21  C   UNL     1       2.235   7.070  18.235  0.00  0.00    +0.000 A 
BRANCH  19  22
ATOM     22  O   UNL     1       1.064   9.466  20.745  0.00  0.00    +0.000 OA
ATOM     23  H   UNL     1       0.159   9.304  21.057  0.00  0.00    +0.000 HD
ENDBRANCH  19  22
BRANCH  20  24
ATOM     24  C   UNL     1       1.487   9.448  17.853  0.00  0.00    +0.000 C 
ATOM     25  C   UNL     1       0.010   9.859  17.884  0.00  0.00    +0.000 C 
BRANCH  24  26
ATOM     26  C   UNL     1       2.398  10.672  18.084  0.00  0.00    +0.000 C 
ATOM     27  C   UNL     1       1.634  11.922  18.504  0.00  0.00    +0.000 C 
ENDBRANCH  24  26
ENDBRANCH  20  24
ENDBRANCH   1  16
TORSDOF 8
ENDMDL
MODEL 5
REMARK VINA RESULT:      -7.9      3.106      7.780
REMARK  Name = 
REMARK  14 active torsions:
REMARK  status: ('A' for Active; 'I' for Inactive)
REMARK    1  A    between atoms: C_1  and  C_2
REMARK    2  A    between atoms: C_2  and  C_3
REMARK    3  A    between atoms: C_3  and  C_4
REMARK    4  A    between atoms: C_3  and  C_5
REMARK    5  A    between atoms: C_7  and  C_8
REMARK    6  A    between atoms: C_8  and  C_9
REMARK    7  A    between atoms: C_8  and  C_10
REMARK    8  A    between atoms: C_8  and  C_11
REMARK    9  A    between atoms: C_14  and  O_15
REMARK   10  A    between atoms: C_16  and  C_17
REMARK   11  A    between atoms: C_17  and  C_18
REMARK   12  A    between atoms: C_17  and  C_19
REMARK   13  A    between atoms: C_19  and  C_20
REMARK   14  A    between atoms: C_24  and  O_25
REMARK                            x       y       z     vdW  Elec       q    Type
REMARK                         _______ _______ _______ _____ _____    ______ ____
ROOT
ATOM      1  C   UNL     1       0.684   8.948  21.047  0.00  0.00    +0.000 C 
ATOM      2  C   UNL     1       1.579   9.323  22.263  0.00  0.00    +0.000 C 
ATOM      3  C   UNL     1      -0.610   8.381  21.708  0.00  0.00    +0.000 C 
ENDROOT
BRANCH   1   6
ATOM      4  C   UNL     1      -1.199  11.275  18.565  0.00  0.00    +0.000 A 
ATOM      5  C   UNL     1      -0.788  10.155  19.314  0.00  0.00    +0.000 A 
ATOM      6  C   UNL     1       0.319  10.190  20.189  0.00  0.00    +0.000 A 
ATOM      7  C   UNL     1       1.076  11.373  20.214  0.00  0.00    +0.000 A 
ATOM      8  C   UNL     1       0.716  12.481  19.441  0.00  0.00    +0.000 A 
ATOM      9  C   UNL     1      -0.419  12.434  18.639  0.00  0.00    +0.000 A 
BRANCH   4  10
ATOM     10  C   UNL     1      -2.428  11.210  17.662  0.00  0.00    +0.000 C 
ATOM     11  C   UNL     1      -3.739  11.513  18.405  0.00  0.00    +0.000 C 
BRANCH  10  13
ATOM     12  C   UNL     1      -2.805   9.931  15.473  0.00  0.00    +0.000 C 
ATOM     13  C   UNL     1      -2.460   9.843  16.953  0.00  0.00    +0.000 C 
ENDBRANCH  10  13
ENDBRANCH   4  10
BRANCH   9  14
ATOM     14  O   UNL     1      -0.775  13.523  17.894  0.00  0.00    +0.000 OA
ATOM     15  H   UNL     1      -0.197  14.269  18.140  0.00  0.00    +0.000 HD
ENDBRANCH   9  14
ENDBRANCH   1   6
BRANCH   1  16
ATOM     16  C   UNL     1       1.432   7.902  20.186  0.00  0.00    +0.000 A 
ATOM     17  C   UNL     1       2.091   8.298  19.008  0.00  0.00    +0.000 A 
ATOM     18  C   UNL     1       2.755   7.373  18.199  0.00  0.00    +0.000 A 
ATOM     19  C   UNL     1       2.771   6.024  18.550  0.00  0.00    +0.000 A 
ATOM     20  C   UNL     1       2.139   5.578  19.713  0.00  0.00    +0.000 A 
ATOM     21  C   UNL     1       1.477   6.533  20.516  0.00  0.00    +0.000 A 
BRANCH  19  22
ATOM     22  O   UNL     1       3.407   5.131  17.737  0.00  0.00    +0.000 OA
ATOM     23  H   UNL     1       2.938   5.092  16.889  0.00  0.00    +0.000 HD
ENDBRANCH  19  22
BRANCH  20  24
ATOM     24  C   UNL     1       2.106   4.118  20.151  0.00  0.00    +0.000 C 
ATOM     25  C   UNL     1       2.384   3.981  21.654  0.00  0.00    +0.000 C 
BRANCH  24  26
ATOM     26  C   UNL     1       0.815   3.367  19.766  0.00  0.00    +0.000 C 
ATOM     27  C   UNL     1       1.021   2.343  18.657  0.00  0.00    +0.000 C 
ENDBRANCH  24  26
ENDBRANCH  20  24
ENDBRANCH   1  16
TORSDOF 8
ENDMDL
MODEL 6
REMARK VINA RESULT:      -7.7      3.126      5.727
REMARK  Name = 
REMARK  14 active torsions:
REMARK  status: ('A' for Active; 'I' for Inactive)
REMARK    1  A    between atoms: C_1  and  C_2
REMARK    2  A    between atoms: C_2  and  C_3
REMARK    3  A    between atoms: C_3  and  C_4
REMARK    4  A    between atoms: C_3  and  C_5
REMARK    5  A    between atoms: C_7  and  C_8
REMARK    6  A    between atoms: C_8  and  C_9
REMARK    7  A    between atoms: C_8  and  C_10
REMARK    8  A    between atoms: C_8  and  C_11
REMARK    9  A    between atoms: C_14  and  O_15
REMARK   10  A    between atoms: C_16  and  C_17
REMARK   11  A    between atoms: C_17  and  C_18
REMARK   12  A    between atoms: C_17  and  C_19
REMARK   13  A    between atoms: C_19  and  C_20
REMARK   14  A    between atoms: C_24  and  O_25
REMARK                            x       y       z     vdW  Elec       q    Type
REMARK                         _______ _______ _______ _____ _____    ______ ____
ROOT
ATOM      1  C   UNL     1       0.733   8.950  20.906  0.00  0.00    +0.000 C 
ATOM      2  C   UNL     1      -0.537   8.286  21.512  0.00  0.00    +0.000 C 
ATOM      3  C   UNL     1       1.603   9.281  22.158  0.00  0.00    +0.000 C 
ENDROOT
BRANCH   1   6
ATOM      4  C   UNL     1       2.236   5.669  19.457  0.00  0.00    +0.000 A 
ATOM      5  C   UNL     1       1.596   6.603  20.296  0.00  0.00    +0.000 A 
ATOM      6  C   UNL     1       1.514   7.976  19.982  0.00  0.00    +0.000 A 
ATOM      7  C   UNL     1       2.193   8.409  18.831  0.00  0.00    +0.000 A 
ATOM      8  C   UNL     1       2.878   7.508  18.010  0.00  0.00    +0.000 A 
ATOM      9  C   UNL     1       2.882   6.151  18.315  0.00  0.00    +0.000 A 
BRANCH   4  10
ATOM     10  C   UNL     1       2.266   4.184  19.811  0.00  0.00    +0.000 C 
ATOM     11  C   UNL     1       1.190   3.368  19.078  0.00  0.00    +0.000 C 
BRANCH  10  13
ATOM     12  C   UNL     1       1.696   2.656  21.788  0.00  0.00    +0.000 C 
ATOM     13  C   UNL     1       2.178   4.029  21.341  0.00  0.00    +0.000 C 
ENDBRANCH  10  13
ENDBRANCH   4  10
BRANCH   9  14
ATOM     14  O   UNL     1       3.542   5.272  17.503  0.00  0.00    +0.000 OA
ATOM     15  H   UNL     1       4.477   5.544  17.445  0.00  0.00    +0.000 HD
ENDBRANCH   9  14
ENDBRANCH   1   6
BRANCH   1  16
ATOM     16  C   UNL     1       0.305  10.210  20.116  0.00  0.00    +0.000 A 
ATOM     17  C   UNL     1       0.940  11.442  20.354  0.00  0.00    +0.000 A 
ATOM     18  C   UNL     1       0.559  12.601  19.674  0.00  0.00    +0.000 A 
ATOM     19  C   UNL     1      -0.472  12.553  18.738  0.00  0.00    +0.000 A 
ATOM     20  C   UNL     1      -1.132  11.354  18.457  0.00  0.00    +0.000 A 
ATOM     21  C   UNL     1      -0.726  10.196  19.156  0.00  0.00    +0.000 A 
BRANCH  19  22
ATOM     22  O   UNL     1      -0.845  13.700  18.096  0.00  0.00    +0.000 OA
ATOM     23  H   UNL     1      -0.585  14.460  18.641  0.00  0.00    +0.000 HD
ENDBRANCH  19  22
BRANCH  20  24
ATOM     24  C   UNL     1      -2.274  11.231  17.456  0.00  0.00    +0.000 C 
ATOM     25  C   UNL     1      -2.226   9.888  16.717  0.00  0.00    +0.000 C 
BRANCH  24  26
ATOM     26  C   UNL     1      -3.674  11.473  18.056  0.00  0.00    +0.000 C 
ATOM     27  C   UNL     1      -4.792  11.424  17.022  0.00  0.00    +0.000 C 
ENDBRANCH  24  26
ENDBRANCH  20  24
ENDBRANCH   1  16
TORSDOF 8
ENDMDL
MODEL 7
REMARK VINA RESULT:      -7.4      1.573      2.768
REMARK  Name = 
REMARK  14 active torsions:
REMARK  status: ('A' for Active; 'I' for Inactive)
REMARK    1  A    between atoms: C_1  and  C_2
REMARK    2  A    between atoms: C_2  and  C_3
REMARK    3  A    between atoms: C_3  and  C_4
REMARK    4  A    between atoms: C_3  and  C_5
REMARK    5  A    between atoms: C_7  and  C_8
REMARK    6  A    between atoms: C_8  and  C_9
REMARK    7  A    between atoms: C_8  and  C_10
REMARK    8  A    between atoms: C_8  and  C_11
REMARK    9  A    between atoms: C_14  and  O_15
REMARK   10  A    between atoms: C_16  and  C_17
REMARK   11  A    between atoms: C_17  and  C_18
REMARK   12  A    between atoms: C_17  and  C_19
REMARK   13  A    between atoms: C_19  and  C_20
REMARK   14  A    between atoms: C_24  and  O_25
REMARK                            x       y       z     vdW  Elec       q    Type
REMARK                         _______ _______ _______ _____ _____    ______ ____
ROOT
ATOM      1  C   UNL     1       2.714   5.371  18.762  0.00  0.00    +0.000 C 
ATOM      2  C   UNL     1       1.756   4.594  17.814  0.00  0.00    +0.000 C 
ATOM      3  C   UNL     1       2.388   4.785  20.170  0.00  0.00    +0.000 C 
ENDROOT
BRANCH   1   6
ATOM      4  C   UNL     1       5.933   4.496  16.764  0.00  0.00    +0.000 A 
ATOM      5  C   UNL     1       4.588   4.688  17.135  0.00  0.00    +0.000 A 
ATOM      6  C   UNL     1       4.207   5.103  18.428  0.00  0.00    +0.000 A 
ATOM      7  C   UNL     1       5.227   5.224  19.386  0.00  0.00    +0.000 A 
ATOM      8  C   UNL     1       6.565   4.989  19.054  0.00  0.00    +0.000 A 
ATOM      9  C   UNL     1       6.912   4.645  17.753  0.00  0.00    +0.000 A 
BRANCH   4  10
ATOM     10  C   UNL     1       6.308   4.086  15.342  0.00  0.00    +0.000 C 
ATOM     11  C   UNL     1       7.260   5.082  14.660  0.00  0.00    +0.000 C 
BRANCH  10  13
ATOM     12  C   UNL     1       5.263   3.694  13.035  0.00  0.00    +0.000 C 
ATOM     13  C   UNL     1       5.020   3.857  14.528  0.00  0.00    +0.000 C 
ENDBRANCH  10  13
ENDBRANCH   4  10
BRANCH   9  14
ATOM     14  O   UNL     1       8.221   4.428  17.429  0.00  0.00    +0.000 OA
ATOM     15  H   UNL     1       8.666   5.292  17.340  0.00  0.00    +0.000 HD
ENDBRANCH   9  14
ENDBRANCH   1   6
BRANCH   1  16
ATOM     16  C   UNL     1       2.403   6.883  18.649  0.00  0.00    +0.000 A 
ATOM     17  C   UNL     1       2.789   7.600  17.503  0.00  0.00    +0.000 A 
ATOM     18  C   UNL     1       2.542   8.970  17.383  0.00  0.00    +0.000 A 
ATOM     19  C   UNL     1       1.902   9.655  18.414  0.00  0.00    +0.000 A 
ATOM     20  C   UNL     1       1.489   8.991  19.571  0.00  0.00    +0.000 A 
ATOM     21  C   UNL     1       1.749   7.605  19.667  0.00  0.00    +0.000 A 
BRANCH  19  22
ATOM     22  O   UNL     1       1.687  10.998  18.289  0.00  0.00    +0.000 OA
ATOM     23  H   UNL     1       1.530  11.372  19.170  0.00  0.00    +0.000 HD
ENDBRANCH  19  22
BRANCH  20  24
ATOM     24  C   UNL     1       0.796   9.679  20.741  0.00  0.00    +0.000 C 
ATOM     25  C   UNL     1      -0.646  10.064  20.386  0.00  0.00    +0.000 C 
BRANCH  24  26
ATOM     26  C   UNL     1       0.839   8.884  22.062  0.00  0.00    +0.000 C 
ATOM     27  C   UNL     1       0.015   9.519  23.175  0.00  0.00    +0.000 C 
ENDBRANCH  24  26
ENDBRANCH  20  24
ENDBRANCH   1  16
TORSDOF 8
ENDMDL
MODEL 8
REMARK VINA RESULT:      -7.2      3.050      5.696
REMARK  Name = 
REMARK  14 active torsions:
REMARK  status: ('A' for Active; 'I' for Inactive)
REMARK    1  A    between atoms: C_1  and  C_2
REMARK    2  A    between atoms: C_2  and  C_3
REMARK    3  A    between atoms: C_3  and  C_4
REMARK    4  A    between atoms: C_3  and  C_5
REMARK    5  A    between atoms: C_7  and  C_8
REMARK    6  A    between atoms: C_8  and  C_9
REMARK    7  A    between atoms: C_8  and  C_10
REMARK    8  A    between atoms: C_8  and  C_11
REMARK    9  A    between atoms: C_14  and  O_15
REMARK   10  A    between atoms: C_16  and  C_17
REMARK   11  A    between atoms: C_17  and  C_18
REMARK   12  A    between atoms: C_17  and  C_19
REMARK   13  A    between atoms: C_19  and  C_20
REMARK   14  A    between atoms: C_24  and  O_25
REMARK                            x       y       z     vdW  Elec       q    Type
REMARK                         _______ _______ _______ _____ _____    ______ ____
ROOT
ATOM      1  C   UNL     1       0.765   8.894  20.940  0.00  0.00    +0.000 C 
ATOM      2  C   UNL     1      -0.494   8.229  21.567  0.00  0.00    +0.000 C 
ATOM      3  C   UNL     1       1.651   9.234  22.179  0.00  0.00    +0.000 C 
ENDROOT
BRANCH   1   6
ATOM      4  C   UNL     1       2.257   5.612  19.485  0.00  0.00    +0.000 A 
ATOM      5  C   UNL     1       1.625   6.547  20.328  0.00  0.00    +0.000 A 
ATOM      6  C   UNL     1       1.537   7.919  20.011  0.00  0.00    +0.000 A 
ATOM      7  C   UNL     1       2.202   8.349  18.850  0.00  0.00    +0.000 A 
ATOM      8  C   UNL     1       2.878   7.447  18.024  0.00  0.00    +0.000 A 
ATOM      9  C   UNL     1       2.889   6.091  18.333  0.00  0.00    +0.000 A 
BRANCH   4  10
ATOM     10  C   UNL     1       2.294   4.128  19.843  0.00  0.00    +0.000 C 
ATOM     11  C   UNL     1       1.234   3.301  19.097  0.00  0.00    +0.000 C 
BRANCH  10  13
ATOM     12  C   UNL     1       1.568   2.656  21.811  0.00  0.00    +0.000 C 
ATOM     13  C   UNL     1       2.186   3.976  21.372  0.00  0.00    +0.000 C 
ENDBRANCH  10  13
ENDBRANCH   4  10
BRANCH   9  14
ATOM     14  O   UNL     1       3.540   5.210  17.517  0.00  0.00    +0.000 OA
ATOM     15  H   UNL     1       4.469   5.494  17.432  0.00  0.00    +0.000 HD
ENDBRANCH   9  14
ENDBRANCH   1   6
BRANCH   1  16
ATOM     16  C   UNL     1       0.321  10.149  20.151  0.00  0.00    +0.000 A 
ATOM     17  C   UNL     1      -0.886  10.140  19.431  0.00  0.00    +0.000 A 
ATOM     18  C   UNL     1      -1.302  11.249  18.691  0.00  0.00    +0.000 A 
ATOM     19  C   UNL     1      -0.513  12.397  18.653  0.00  0.00    +0.000 A 
ATOM     20  C   UNL     1       0.692  12.464  19.356  0.00  0.00    +0.000 A 
ATOM     21  C   UNL     1       1.089  11.329  20.099  0.00  0.00    +0.000 A 
BRANCH  19  22
ATOM     22  O   UNL     1      -0.924  13.465  17.908  0.00  0.00    +0.000 OA
ATOM     23  H   UNL     1      -1.832  13.302  17.605  0.00  0.00    +0.000 HD
ENDBRANCH  19  22
BRANCH  20  24
ATOM     24  C   UNL     1       1.610  13.680  19.350  0.00  0.00    +0.000 C 
ATOM     25  C   UNL     1       2.364  13.817  20.679  0.00  0.00    +0.000 C 
BRANCH  24  26
ATOM     26  C   UNL     1       2.589  13.732  18.160  0.00  0.00    +0.000 C 
ATOM     27  C   UNL     1       3.187  15.114  17.929  0.00  0.00    +0.000 C 
ENDBRANCH  24  26
ENDBRANCH  20  24
ENDBRANCH   1  16
TORSDOF 8
ENDMDL
MODEL 9
REMARK VINA RESULT:      -7.2      1.429      2.611
REMARK  Name = 
REMARK  14 active torsions:
REMARK  status: ('A' for Active; 'I' for Inactive)
REMARK    1  A    between atoms: C_1  and  C_2
REMARK    2  A    between atoms: C_2  and  C_3
REMARK    3  A    between atoms: C_3  and  C_4
REMARK    4  A    between atoms: C_3  and  C_5
REMARK    5  A    between atoms: C_7  and  C_8
REMARK    6  A    between atoms: C_8  and  C_9
REMARK    7  A    between atoms: C_8  and  C_10
REMARK    8  A    between atoms: C_8  and  C_11
REMARK    9  A    between atoms: C_14  and  O_15
REMARK   10  A    between atoms: C_16  and  C_17
REMARK   11  A    between atoms: C_17  and  C_18
REMARK   12  A    between atoms: C_17  and  C_19
REMARK   13  A    between atoms: C_19  and  C_20
REMARK   14  A    between atoms: C_24  and  O_25
REMARK                            x       y       z     vdW  Elec       q    Type
REMARK                         _______ _______ _______ _____ _____    ______ ____
ROOT
ATOM      1  C   UNL     1       2.688   4.807  18.651  0.00  0.00    +0.000 C 
ATOM      2  C   UNL     1       1.801   4.247  17.501  0.00  0.00    +0.000 C 
ATOM      3  C   UNL     1       2.389   3.845  19.842  0.00  0.00    +0.000 C 
ENDROOT
BRANCH   1   6
ATOM      4  C   UNL     1       5.979   4.375  16.624  0.00  0.00    +0.000 A 
ATOM      5  C   UNL     1       4.623   4.387  17.005  0.00  0.00    +0.000 A 
ATOM      6  C   UNL     1       4.201   4.738  18.305  0.00  0.00    +0.000 A 
ATOM      7  C   UNL     1       5.204   4.984  19.257  0.00  0.00    +0.000 A 
ATOM      8  C   UNL     1       6.559   4.928  18.914  0.00  0.00    +0.000 A 
ATOM      9  C   UNL     1       6.937   4.643  17.607  0.00  0.00    +0.000 A 
BRANCH   4  10
ATOM     10  C   UNL     1       6.392   4.030  15.196  0.00  0.00    +0.000 C 
ATOM     11  C   UNL     1       7.178   5.158  14.507  0.00  0.00    +0.000 C 
BRANCH  10  13
ATOM     12  C   UNL     1       5.337   3.676  12.887  0.00  0.00    +0.000 C 
ATOM     13  C   UNL     1       5.144   3.614  14.396  0.00  0.00    +0.000 C 
ENDBRANCH  10  13
ENDBRANCH   4  10
BRANCH   9  14
ATOM     14  O   UNL     1       8.261   4.602  17.273  0.00  0.00    +0.000 OA
ATOM     15  H   UNL     1       8.561   3.674  17.304  0.00  0.00    +0.000 HD
ENDBRANCH   9  14
ENDBRANCH   1   6
BRANCH   1  16
ATOM     16  C   UNL     1       2.268   6.269  18.933  0.00  0.00    +0.000 A 
ATOM     17  C   UNL     1       2.379   7.243  17.925  0.00  0.00    +0.000 A 
ATOM     18  C   UNL     1       2.030   8.575  18.157  0.00  0.00    +0.000 A 
ATOM     19  C   UNL     1       1.562   8.964  19.411  0.00  0.00    +0.000 A 
ATOM     20  C   UNL     1       1.424   8.037  20.446  0.00  0.00    +0.000 A 
ATOM     21  C   UNL     1       1.782   6.695  20.185  0.00  0.00    +0.000 A 
BRANCH  19  22
ATOM     22  O   UNL     1       1.243  10.275  19.627  0.00  0.00    +0.000 OA
ATOM     23  H   UNL     1       1.854  10.832  19.119  0.00  0.00    +0.000 HD
ENDBRANCH  19  22
BRANCH  20  24
ATOM     24  C   UNL     1       0.931   8.394  21.843  0.00  0.00    +0.000 C 
ATOM     25  C   UNL     1       1.911   9.332  22.558  0.00  0.00    +0.000 C 
BRANCH  24  26
ATOM     26  C   UNL     1      -0.500   8.968  21.884  0.00  0.00    +0.000 C 
ATOM     27  C   UNL     1      -0.694  10.032  22.958  0.00  0.00    +0.000 C 
ENDBRANCH  24  26
ENDBRANCH  20  24
ENDBRANCH   1  16
TORSDOF 8
ENDMDL
