MODEL 1
REMARK VINA RESULT:      -6.8      0.000      0.000
REMARK  Name = 
REMARK  4 active torsions:
REMARK  status: ('A' for Active; 'I' for Inactive)
REMARK    1  A    between atoms: C_2  and  C_10
REMARK    2  A    between atoms: N_3  and  N_4
REMARK    3  A    between atoms: C_5  and  C_7
REMARK    4  A    between atoms: C_14  and  N_15
REMARK                            x       y       z     vdW  Elec       q    Type
REMARK                         _______ _______ _______ _____ _____    ______ ____
ROOT
ATOM      1  O   UNL     1       1.601   5.111  20.750  0.00  0.00    +0.000 OA
ATOM      2  C   UNL     1       2.340   5.883  20.149  0.00  0.00    +0.000 C 
ATOM      3  N   UNL     1       2.294   7.254  20.300  0.00  0.00    +0.000 N 
ATOM      4  H   UNL     1       2.781   7.913  19.695  0.00  0.00    +0.000 HD
ENDROOT
BRANCH   2   5
ATOM      5  C   UNL     1       3.332   5.378  19.161  0.00  0.00    +0.000 A 
ATOM      6  C   UNL     1       2.923   4.845  17.929  0.00  0.00    +0.000 A 
ATOM      7  C   UNL     1       3.868   4.341  17.031  0.00  0.00    +0.000 A 
ATOM      8  C   UNL     1       5.224   4.372  17.355  0.00  0.00    +0.000 A 
ATOM      9  C   UNL     1       5.634   4.930  18.575  0.00  0.00    +0.000 A 
ATOM     10  C   UNL     1       4.694   5.446  19.478  0.00  0.00    +0.000 A 
BRANCH   9  11
ATOM     11  N   UNL     1       7.064   4.959  18.911  0.00  0.00    +0.000 N 
ATOM     12  O   UNL     1       7.389   5.450  20.001  0.00  0.00    +0.000 OA
ATOM     13  O   UNL     1       7.860   4.498  18.081  0.00  0.00    +0.000 OA
ENDBRANCH   9  11
ENDBRANCH   2   5
BRANCH   3  14
ATOM     14  N   UNL     1       1.341   7.804  21.158  0.00  0.00    +0.000 N 
ATOM     15  C   UNL     1       0.612   8.885  20.714  0.00  0.00    +0.000 C 
ATOM     16  O   UNL     1       0.733   9.370  19.595  0.00  0.00    +0.000 OA
ATOM     17  H   UNL     1       1.289   7.424  22.100  0.00  0.00    +0.000 HD
BRANCH  15  18
ATOM     18  C   UNL     1      -0.333   9.446  21.721  0.00  0.00    +0.000 C 
ATOM     19  C   UNL     1       0.095   9.559  23.165  0.00  0.00    +0.000 C 
ATOM     20  C   UNL     1      -0.084  10.802  22.343  0.00  0.00    +0.000 C 
ENDBRANCH  15  18
ENDBRANCH   3  14
TORSDOF 4
ENDMDL
MODEL 2
REMARK VINA RESULT:      -6.7      4.862      6.164
REMARK  Name = 
REMARK  4 active torsions:
REMARK  status: ('A' for Active; 'I' for Inactive)
REMARK    1  A    between atoms: C_2  and  C_10
REMARK    2  A    between atoms: N_3  and  N_4
REMARK    3  A    between atoms: C_5  and  C_7
REMARK    4  A    between atoms: C_14  and  N_15
REMARK                            x       y       z     vdW  Elec       q    Type
REMARK                         _______ _______ _______ _____ _____    ______ ____
ROOT
ATOM      1  O   UNL     1       7.587   5.476  20.074  0.00  0.00    +0.000 OA
ATOM      2  C   UNL     1       7.161   5.735  18.954  0.00  0.00    +0.000 C 
ATOM      3  N   UNL     1       7.574   6.825  18.217  0.00  0.00    +0.000 N 
ATOM      4  H   UNL     1       7.118   7.145  17.364  0.00  0.00    +0.000 HD
ENDROOT
BRANCH   2   5
ATOM      5  C   UNL     1       6.113   4.889  18.321  0.00  0.00    +0.000 A 
ATOM      6  C   UNL     1       5.957   4.847  16.927  0.00  0.00    +0.000 A 
ATOM      7  C   UNL     1       4.942   4.075  16.355  0.00  0.00    +0.000 A 
ATOM      8  C   UNL     1       4.083   3.338  17.168  0.00  0.00    +0.000 A 
ATOM      9  C   UNL     1       4.256   3.359  18.560  0.00  0.00    +0.000 A 
ATOM     10  C   UNL     1       5.277   4.123  19.143  0.00  0.00    +0.000 A 
BRANCH   9  11
ATOM     11  N   UNL     1       3.347   2.582  19.413  0.00  0.00    +0.000 N 
ATOM     12  O   UNL     1       3.612   2.511  20.622  0.00  0.00    +0.000 OA
ATOM     13  O   UNL     1       2.374   2.038  18.872  0.00  0.00    +0.000 OA
ENDBRANCH   9  11
ENDBRANCH   2   5
BRANCH   3  14
ATOM     14  N   UNL     1       8.503   7.703  18.776  0.00  0.00    +0.000 N 
ATOM     15  C   UNL     1       8.454   9.028  18.405  0.00  0.00    +0.000 C 
ATOM     16  O   UNL     1       7.617   9.484  17.633  0.00  0.00    +0.000 OA
ATOM     17  H   UNL     1       9.222   7.300  19.373  0.00  0.00    +0.000 HD
BRANCH  15  18
ATOM     18  C   UNL     1       9.525   9.875  19.001  0.00  0.00    +0.000 C 
ATOM     19  C   UNL     1       9.465  11.376  18.842  0.00  0.00    +0.000 C 
ATOM     20  C   UNL     1       9.237  10.762  20.192  0.00  0.00    +0.000 C 
ENDBRANCH  15  18
ENDBRANCH   3  14
TORSDOF 4
ENDMDL
MODEL 3
REMARK VINA RESULT:      -6.7      4.566      6.810
REMARK  Name = 
REMARK  4 active torsions:
REMARK  status: ('A' for Active; 'I' for Inactive)
REMARK    1  A    between atoms: C_2  and  C_10
REMARK    2  A    between atoms: N_3  and  N_4
REMARK    3  A    between atoms: C_5  and  C_7
REMARK    4  A    between atoms: C_14  and  N_15
REMARK                            x       y       z     vdW  Elec       q    Type
REMARK                         _______ _______ _______ _____ _____    ______ ____
ROOT
ATOM      1  O   UNL     1       5.037   5.745  16.436  0.00  0.00    +0.000 OA
ATOM      2  C   UNL     1       5.426   4.646  16.057  0.00  0.00    +0.000 C 
ATOM      3  N   UNL     1       5.399   3.515  16.848  0.00  0.00    +0.000 N 
ATOM      4  H   UNL     1       5.864   2.641  16.612  0.00  0.00    +0.000 HD
ENDROOT
BRANCH   2   5
ATOM      5  C   UNL     1       6.007   4.467  14.699  0.00  0.00    +0.000 A 
ATOM      6  C   UNL     1       7.162   5.159  14.305  0.00  0.00    +0.000 A 
ATOM      7  C   UNL     1       7.669   5.006  13.013  0.00  0.00    +0.000 A 
ATOM      8  C   UNL     1       7.031   4.157  12.108  0.00  0.00    +0.000 A 
ATOM      9  C   UNL     1       5.892   3.445  12.511  0.00  0.00    +0.000 A 
ATOM     10  C   UNL     1       5.381   3.585  13.809  0.00  0.00    +0.000 A 
BRANCH   9  11
ATOM     11  N   UNL     1       5.223   2.553  11.554  0.00  0.00    +0.000 N 
ATOM     12  O   UNL     1       5.827   1.529  11.204  0.00  0.00    +0.000 OA
ATOM     13  O   UNL     1       4.100   2.882  11.148  0.00  0.00    +0.000 OA
ENDBRANCH   9  11
ENDBRANCH   2   5
BRANCH   3  14
ATOM     14  N   UNL     1       4.933   3.622  18.159  0.00  0.00    +0.000 N 
ATOM     15  C   UNL     1       3.860   2.844  18.534  0.00  0.00    +0.000 C 
ATOM     16  O   UNL     1       3.313   2.039  17.788  0.00  0.00    +0.000 OA
ATOM     17  H   UNL     1       5.363   4.331  18.748  0.00  0.00    +0.000 HD
BRANCH  15  18
ATOM     18  C   UNL     1       3.391   3.074  19.929  0.00  0.00    +0.000 C 
ATOM     19  C   UNL     1       2.772   4.402  20.300  0.00  0.00    +0.000 C 
ATOM     20  C   UNL     1       1.914   3.173  20.242  0.00  0.00    +0.000 C 
ENDBRANCH  15  18
ENDBRANCH   3  14
TORSDOF 4
ENDMDL
MODEL 4
REMARK VINA RESULT:      -6.7      4.213      5.893
REMARK  Name = 
REMARK  4 active torsions:
REMARK  status: ('A' for Active; 'I' for Inactive)
REMARK    1  A    between atoms: C_2  and  C_10
REMARK    2  A    between atoms: N_3  and  N_4
REMARK    3  A    between atoms: C_5  and  C_7
REMARK    4  A    between atoms: C_14  and  N_15
REMARK                            x       y       z     vdW  Elec       q    Type
REMARK                         _______ _______ _______ _____ _____    ______ ____
ROOT
ATOM      1  O   UNL     1       4.914   4.840  18.187  0.00  0.00    +0.000 OA
ATOM      2  C   UNL     1       4.754   4.163  17.178  0.00  0.00    +0.000 C 
ATOM      3  N   UNL     1       3.813   3.158  17.077  0.00  0.00    +0.000 N 
ATOM      4  H   UNL     1       3.777   2.483  16.315  0.00  0.00    +0.000 HD
ENDROOT
BRANCH   2   5
ATOM      5  C   UNL     1       5.616   4.359  15.981  0.00  0.00    +0.000 A 
ATOM      6  C   UNL     1       6.760   5.169  16.034  0.00  0.00    +0.000 A 
ATOM      7  C   UNL     1       7.535   5.370  14.889  0.00  0.00    +0.000 A 
ATOM      8  C   UNL     1       7.177   4.760  13.688  0.00  0.00    +0.000 A 
ATOM      9  C   UNL     1       6.048   3.929  13.641  0.00  0.00    +0.000 A 
ATOM     10  C   UNL     1       5.269   3.714  14.787  0.00  0.00    +0.000 A 
BRANCH   9  11
ATOM     11  N   UNL     1       5.674   3.290  12.373  0.00  0.00    +0.000 N 
ATOM     12  O   UNL     1       6.530   2.597  11.804  0.00  0.00    +0.000 OA
ATOM     13  O   UNL     1       4.529   3.488  11.943  0.00  0.00    +0.000 OA
ENDBRANCH   9  11
ENDBRANCH   2   5
BRANCH   3  14
ATOM     14  N   UNL     1       3.016   2.870  18.185  0.00  0.00    +0.000 N 
ATOM     15  C   UNL     1       1.715   3.321  18.186  0.00  0.00    +0.000 C 
ATOM     16  O   UNL     1       1.210   3.935  17.252  0.00  0.00    +0.000 OA
ATOM     17  H   UNL     1       3.464   2.407  18.972  0.00  0.00    +0.000 HD
BRANCH  15  18
ATOM     18  C   UNL     1       0.961   3.025  19.437  0.00  0.00    +0.000 C 
ATOM     19  C   UNL     1       1.715   2.667  20.696  0.00  0.00    +0.000 C 
ATOM     20  C   UNL     1       0.998   3.982  20.608  0.00  0.00    +0.000 C 
ENDBRANCH  15  18
ENDBRANCH   3  14
TORSDOF 4
ENDMDL
MODEL 5
REMARK VINA RESULT:      -6.7      4.407      6.514
REMARK  Name = 
REMARK  4 active torsions:
REMARK  status: ('A' for Active; 'I' for Inactive)
REMARK    1  A    between atoms: C_2  and  C_10
REMARK    2  A    between atoms: N_3  and  N_4
REMARK    3  A    between atoms: C_5  and  C_7
REMARK    4  A    between atoms: C_14  and  N_15
REMARK                            x       y       z     vdW  Elec       q    Type
REMARK                         _______ _______ _______ _____ _____    ______ ____
ROOT
ATOM      1  O   UNL     1       5.604   5.310  17.157  0.00  0.00    +0.000 OA
ATOM      2  C   UNL     1       5.437   4.344  16.421  0.00  0.00    +0.000 C 
ATOM      3  N   UNL     1       4.755   3.207  16.803  0.00  0.00    +0.000 N 
ATOM      4  H   UNL     1       4.748   2.338  16.271  0.00  0.00    +0.000 HD
ENDROOT
BRANCH   2   5
ATOM      5  C   UNL     1       6.013   4.319  15.049  0.00  0.00    +0.000 A 
ATOM      6  C   UNL     1       7.163   5.056  14.730  0.00  0.00    +0.000 A 
ATOM      7  C   UNL     1       7.666   5.048  13.426  0.00  0.00    +0.000 A 
ATOM      8  C   UNL     1       7.027   4.302  12.436  0.00  0.00    +0.000 A 
ATOM      9  C   UNL     1       5.892   3.544  12.762  0.00  0.00    +0.000 A 
ATOM     10  C   UNL     1       5.386   3.538  14.070  0.00  0.00    +0.000 A 
BRANCH   9  11
ATOM     11  N   UNL     1       5.223   2.761  11.715  0.00  0.00    +0.000 N 
ATOM     12  O   UNL     1       4.155   3.199  11.263  0.00  0.00    +0.000 OA
ATOM     13  O   UNL     1       5.761   1.705  11.352  0.00  0.00    +0.000 OA
ENDBRANCH   9  11
ENDBRANCH   2   5
BRANCH   3  14
ATOM     14  N   UNL     1       4.248   3.130  18.100  0.00  0.00    +0.000 N 
ATOM     15  C   UNL     1       2.881   3.103  18.265  0.00  0.00    +0.000 C 
ATOM     16  O   UNL     1       2.086   3.110  17.332  0.00  0.00    +0.000 OA
ATOM     17  H   UNL     1       4.918   3.178  18.865  0.00  0.00    +0.000 HD
BRANCH  15  18
ATOM     18  C   UNL     1       2.432   3.088  19.686  0.00  0.00    +0.000 C 
ATOM     19  C   UNL     1       1.794   4.322  20.280  0.00  0.00    +0.000 C 
ATOM     20  C   UNL     1       0.960   3.100  20.032  0.00  0.00    +0.000 C 
ENDBRANCH  15  18
ENDBRANCH   3  14
TORSDOF 4
ENDMDL
MODEL 6
REMARK VINA RESULT:      -6.6      5.369      6.443
REMARK  Name = 
REMARK  4 active torsions:
REMARK  status: ('A' for Active; 'I' for Inactive)
REMARK    1  A    between atoms: C_2  and  C_10
REMARK    2  A    between atoms: N_3  and  N_4
REMARK    3  A    between atoms: C_5  and  C_7
REMARK    4  A    between atoms: C_14  and  N_15
REMARK                            x       y       z     vdW  Elec       q    Type
REMARK                         _______ _______ _______ _____ _____    ______ ____
ROOT
ATOM      1  O   UNL     1       7.879   5.707  19.713  0.00  0.00    +0.000 OA
ATOM      2  C   UNL     1       7.591   6.158  18.610  0.00  0.00    +0.000 C 
ATOM      3  N   UNL     1       8.002   7.396  18.163  0.00  0.00    +0.000 N 
ATOM      4  H   UNL     1       7.641   7.852  17.327  0.00  0.00    +0.000 HD
ENDROOT
BRANCH   2   5
ATOM      5  C   UNL     1       6.720   5.393  17.676  0.00  0.00    +0.000 A 
ATOM      6  C   UNL     1       5.575   4.723  18.133  0.00  0.00    +0.000 A 
ATOM      7  C   UNL     1       4.792   3.980  17.246  0.00  0.00    +0.000 A 
ATOM      8  C   UNL     1       5.144   3.906  15.898  0.00  0.00    +0.000 A 
ATOM      9  C   UNL     1       6.273   4.598  15.437  0.00  0.00    +0.000 A 
ATOM     10  C   UNL     1       7.060   5.354  16.318  0.00  0.00    +0.000 A 
BRANCH   9  11
ATOM     11  N   UNL     1       6.639   4.516  14.017  0.00  0.00    +0.000 N 
ATOM     12  O   UNL     1       7.482   5.320  13.592  0.00  0.00    +0.000 OA
ATOM     13  O   UNL     1       6.079   3.653  13.326  0.00  0.00    +0.000 OA
ENDBRANCH   9  11
ENDBRANCH   2   5
BRANCH   3  14
ATOM     14  N   UNL     1       8.763   8.199  19.013  0.00  0.00    +0.000 N 
ATOM     15  C   UNL     1       8.818   9.552  18.757  0.00  0.00    +0.000 C 
ATOM     16  O   UNL     1       8.208  10.092  17.840  0.00  0.00    +0.000 OA
ATOM     17  H   UNL     1       9.304   7.730  19.736  0.00  0.00    +0.000 HD
BRANCH  15  18
ATOM     18  C   UNL     1       9.706  10.317  19.675  0.00  0.00    +0.000 C 
ATOM     19  C   UNL     1       9.823  11.816  19.524  0.00  0.00    +0.000 C 
ATOM     20  C   UNL     1       9.124  11.242  20.721  0.00  0.00    +0.000 C 
ENDBRANCH  15  18
ENDBRANCH   3  14
TORSDOF 4
ENDMDL
MODEL 7
REMARK VINA RESULT:      -6.6      0.983      1.215
REMARK  Name = 
REMARK  4 active torsions:
REMARK  status: ('A' for Active; 'I' for Inactive)
REMARK    1  A    between atoms: C_2  and  C_10
REMARK    2  A    between atoms: N_3  and  N_4
REMARK    3  A    between atoms: C_5  and  C_7
REMARK    4  A    between atoms: C_14  and  N_15
REMARK                            x       y       z     vdW  Elec       q    Type
REMARK                         _______ _______ _______ _____ _____    ______ ____
ROOT
ATOM      1  O   UNL     1       1.541   4.990  21.022  0.00  0.00    +0.000 OA
ATOM      2  C   UNL     1       2.213   5.613  20.208  0.00  0.00    +0.000 C 
ATOM      3  N   UNL     1       2.424   6.974  20.277  0.00  0.00    +0.000 N 
ATOM      4  H   UNL     1       2.836   7.528  19.529  0.00  0.00    +0.000 HD
ENDROOT
BRANCH   2   5
ATOM      5  C   UNL     1       2.824   4.926  19.037  0.00  0.00    +0.000 A 
ATOM      6  C   UNL     1       2.040   4.196  18.131  0.00  0.00    +0.000 A 
ATOM      7  C   UNL     1       2.638   3.527  17.061  0.00  0.00    +0.000 A 
ATOM      8  C   UNL     1       4.020   3.588  16.884  0.00  0.00    +0.000 A 
ATOM      9  C   UNL     1       4.801   4.341  17.774  0.00  0.00    +0.000 A 
ATOM     10  C   UNL     1       4.208   5.022  18.846  0.00  0.00    +0.000 A 
BRANCH   9  11
ATOM     11  N   UNL     1       6.256   4.400  17.584  0.00  0.00    +0.000 N 
ATOM     12  O   UNL     1       6.959   4.596  18.586  0.00  0.00    +0.000 OA
ATOM     13  O   UNL     1       6.693   4.260  16.433  0.00  0.00    +0.000 OA
ENDBRANCH   9  11
ENDBRANCH   2   5
BRANCH   3  14
ATOM     14  N   UNL     1       1.823   7.696  21.309  0.00  0.00    +0.000 N 
ATOM     15  C   UNL     1       1.230   8.901  21.002  0.00  0.00    +0.000 C 
ATOM     16  O   UNL     1       1.175   9.358  19.865  0.00  0.00    +0.000 OA
ATOM     17  H   UNL     1       1.923   7.329  22.252  0.00  0.00    +0.000 HD
BRANCH  15  18
ATOM     18  C   UNL     1       0.674   9.631  22.176  0.00  0.00    +0.000 C 
ATOM     19  C   UNL     1      -0.497  10.566  21.988  0.00  0.00    +0.000 C 
ATOM     20  C   UNL     1      -0.687   9.278  22.732  0.00  0.00    +0.000 C 
ENDBRANCH  15  18
ENDBRANCH   3  14
TORSDOF 4
ENDMDL
MODEL 8
REMARK VINA RESULT:      -6.6      3.814      6.016
REMARK  Name = 
REMARK  4 active torsions:
REMARK  status: ('A' for Active; 'I' for Inactive)
REMARK    1  A    between atoms: C_2  and  C_10
REMARK    2  A    between atoms: N_3  and  N_4
REMARK    3  A    between atoms: C_5  and  C_7
REMARK    4  A    between atoms: C_14  and  N_15
REMARK                            x       y       z     vdW  Elec       q    Type
REMARK                         _______ _______ _______ _____ _____    ______ ____
ROOT
ATOM      1  O   UNL     1       3.225   7.104  17.979  0.00  0.00    +0.000 OA
ATOM      2  C   UNL     1       3.678   5.990  18.214  0.00  0.00    +0.000 C 
ATOM      3  N   UNL     1       5.015   5.671  18.094  0.00  0.00    +0.000 N 
ATOM      4  H   UNL     1       5.382   4.721  18.125  0.00  0.00    +0.000 HD
ENDROOT
BRANCH   2   5
ATOM      5  C   UNL     1       2.783   4.870  18.612  0.00  0.00    +0.000 A 
ATOM      6  C   UNL     1       1.775   4.404  17.754  0.00  0.00    +0.000 A 
ATOM      7  C   UNL     1       0.920   3.377  18.162  0.00  0.00    +0.000 A 
ATOM      8  C   UNL     1       1.070   2.805  19.425  0.00  0.00    +0.000 A 
ATOM      9  C   UNL     1       2.095   3.252  20.272  0.00  0.00    +0.000 A 
ATOM     10  C   UNL     1       2.963   4.276  19.867  0.00  0.00    +0.000 A 
BRANCH   9  11
ATOM     11  N   UNL     1       2.248   2.647  21.602  0.00  0.00    +0.000 N 
ATOM     12  O   UNL     1       3.369   2.219  21.914  0.00  0.00    +0.000 OA
ATOM     13  O   UNL     1       1.246   2.593  22.329  0.00  0.00    +0.000 OA
ENDBRANCH   9  11
ENDBRANCH   2   5
BRANCH   3  14
ATOM     14  N   UNL     1       5.904   6.653  17.657  0.00  0.00    +0.000 N 
ATOM     15  C   UNL     1       7.224   6.553  18.038  0.00  0.00    +0.000 C 
ATOM     16  O   UNL     1       7.666   5.631  18.714  0.00  0.00    +0.000 OA
ATOM     17  H   UNL     1       5.513   7.438  17.141  0.00  0.00    +0.000 HD
BRANCH  15  18
ATOM     18  C   UNL     1       8.084   7.681  17.580  0.00  0.00    +0.000 C 
ATOM     19  C   UNL     1       7.531   9.087  17.572  0.00  0.00    +0.000 C 
ATOM     20  C   UNL     1       8.594   8.712  18.562  0.00  0.00    +0.000 C 
ENDBRANCH  15  18
ENDBRANCH   3  14
TORSDOF 4
ENDMDL
MODEL 9
REMARK VINA RESULT:      -6.6      4.259      6.162
REMARK  Name = 
REMARK  4 active torsions:
REMARK  status: ('A' for Active; 'I' for Inactive)
REMARK    1  A    between atoms: C_2  and  C_10
REMARK    2  A    between atoms: N_3  and  N_4
REMARK    3  A    between atoms: C_5  and  C_7
REMARK    4  A    between atoms: C_14  and  N_15
REMARK                            x       y       z     vdW  Elec       q    Type
REMARK                         _______ _______ _______ _____ _____    ______ ____
ROOT
ATOM      1  O   UNL     1       6.606   4.483  17.368  0.00  0.00    +0.000 OA
ATOM      2  C   UNL     1       5.816   4.249  16.461  0.00  0.00    +0.000 C 
ATOM      3  N   UNL     1       4.496   3.906  16.671  0.00  0.00    +0.000 N 
ATOM      4  H   UNL     1       3.875   3.552  15.946  0.00  0.00    +0.000 HD
ENDROOT
BRANCH   2   5
ATOM      5  C   UNL     1       6.254   4.280  15.039  0.00  0.00    +0.000 A 
ATOM      6  C   UNL     1       7.354   5.051  14.634  0.00  0.00    +0.000 A 
ATOM      7  C   UNL     1       7.726   5.096  13.288  0.00  0.00    +0.000 A 
ATOM      8  C   UNL     1       7.007   4.368  12.340  0.00  0.00    +0.000 A 
ATOM      9  C   UNL     1       5.924   3.576  12.750  0.00  0.00    +0.000 A 
ATOM     10  C   UNL     1       5.549   3.518  14.100  0.00  0.00    +0.000 A 
BRANCH   9  11
ATOM     11  N   UNL     1       5.169   2.813  11.747  0.00  0.00    +0.000 N 
ATOM     12  O   UNL     1       4.114   3.306  11.323  0.00  0.00    +0.000 OA
ATOM     13  O   UNL     1       5.628   1.719  11.391  0.00  0.00    +0.000 OA
ENDBRANCH   9  11
ENDBRANCH   2   5
BRANCH   3  14
ATOM     14  N   UNL     1       4.032   3.788  17.981  0.00  0.00    +0.000 N 
ATOM     15  C   UNL     1       3.236   4.794  18.483  0.00  0.00    +0.000 C 
ATOM     16  O   UNL     1       2.887   5.771  17.830  0.00  0.00    +0.000 OA
ATOM     17  H   UNL     1       4.373   2.999  18.526  0.00  0.00    +0.000 HD
BRANCH  15  18
ATOM     18  C   UNL     1       2.844   4.615  19.910  0.00  0.00    +0.000 C 
ATOM     19  C   UNL     1       1.824   5.543  20.526  0.00  0.00    +0.000 C 
ATOM     20  C   UNL     1       1.467   4.107  20.276  0.00  0.00    +0.000 C 
ENDBRANCH  15  18
ENDBRANCH   3  14
TORSDOF 4
ENDMDL
