MODEL 1
REMARK VINA RESULT:      -7.6      0.000      0.000
REMARK  Name = 
REMARK  6 active torsions:
REMARK  status: ('A' for Active; 'I' for Inactive)
REMARK    1  A    between atoms: C_1  and  N_2
REMARK    2  A    between atoms: N_2  and  C_13
REMARK    3  A    between atoms: C_3  and  C_5
REMARK    4  A    between atoms: C_5  and  O_6
REMARK    5  A    between atoms: O_6  and  C_7
REMARK    6  A    between atoms: C_18  and  N_19
REMARK                            x       y       z     vdW  Elec       q    Type
REMARK                         _______ _______ _______ _____ _____    ______ ____
ROOT
ATOM      1  C   UNL     1       4.124   6.988  16.819  0.00  0.00    +0.000 C 
ATOM      2  N   UNL     1       3.352   7.051  18.055  0.00  0.00    +0.000 N 
ATOM      3  C   UNL     1       2.500   8.153  18.224  0.00  0.00    +0.000 C 
ATOM      4  O   UNL     1       2.404   9.032  17.360  0.00  0.00    +0.000 OA
ENDROOT
BRANCH   2   5
ATOM      5  C   UNL     1       3.318   5.869  18.960  0.00  0.00    +0.000 C 
ATOM      6  C   UNL     1       4.689   5.241  19.295  0.00  0.00    +0.000 C 
ATOM      7  C   UNL     1       5.144   4.067  18.421  0.00  0.00    +0.000 C 
ATOM      8  C   UNL     1       4.045   3.056  18.147  0.00  0.00    +0.000 C 
ATOM      9  C   UNL     1       2.796   3.725  17.599  0.00  0.00    +0.000 C 
ATOM     10  C   UNL     1       2.226   4.844  18.479  0.00  0.00    +0.000 C 
BRANCH  10  11
ATOM     11  N   UNL     1       1.333   4.456  19.586  0.00  0.00    +0.000 NA
ATOM     12  C   UNL     1       1.659   4.856  20.946  0.00  0.00    +0.000 C 
ATOM     13  C   UNL     1       2.235   3.611  21.589  0.00  0.00    +0.000 C 
ATOM     14  C   UNL     1       1.456   2.480  20.945  0.00  0.00    +0.000 C 
ATOM     15  C   UNL     1       0.972   3.036  19.615  0.00  0.00    +0.000 C 
ENDBRANCH  10  11
ENDBRANCH   2   5
BRANCH   3  16
ATOM     16  C   UNL     1       1.661   8.286  19.506  0.00  0.00    +0.000 C 
BRANCH  16  17
ATOM     17  O   UNL     1       0.839   9.440  19.401  0.00  0.00    +0.000 OA
BRANCH  17  18
ATOM     18  C   UNL     1       0.214   9.847  20.547  0.00  0.00    +0.000 A 
ATOM     19  C   UNL     1       0.308   8.959  21.622  0.00  0.00    +0.000 A 
ATOM     20  C   UNL     1      -0.228   9.294  22.867  0.00  0.00    +0.000 A 
ATOM     21  C   UNL     1      -0.858  10.525  23.044  0.00  0.00    +0.000 A 
ATOM     22  C   UNL     1      -0.953  11.417  21.976  0.00  0.00    +0.000 A 
ATOM     23  C   UNL     1      -0.417  11.078  20.731  0.00  0.00    +0.000 A 
ENDBRANCH  17  18
ENDBRANCH  16  17
ENDBRANCH   3  16
TORSDOF 5
ENDMDL
MODEL 2
REMARK VINA RESULT:      -7.6      0.270      1.026
REMARK  Name = 
REMARK  6 active torsions:
REMARK  status: ('A' for Active; 'I' for Inactive)
REMARK    1  A    between atoms: C_1  and  N_2
REMARK    2  A    between atoms: N_2  and  C_13
REMARK    3  A    between atoms: C_3  and  C_5
REMARK    4  A    between atoms: C_5  and  O_6
REMARK    5  A    between atoms: O_6  and  C_7
REMARK    6  A    between atoms: C_18  and  N_19
REMARK                            x       y       z     vdW  Elec       q    Type
REMARK                         _______ _______ _______ _____ _____    ______ ____
ROOT
ATOM      1  C   UNL     1       4.271   7.040  16.906  0.00  0.00    +0.000 C 
ATOM      2  N   UNL     1       3.418   7.073  18.089  0.00  0.00    +0.000 N 
ATOM      3  C   UNL     1       2.516   8.142  18.200  0.00  0.00    +0.000 C 
ATOM      4  O   UNL     1       2.445   9.019  17.332  0.00  0.00    +0.000 OA
ENDROOT
BRANCH   2   5
ATOM      5  C   UNL     1       3.367   5.889  18.990  0.00  0.00    +0.000 C 
ATOM      6  C   UNL     1       4.732   5.256  19.343  0.00  0.00    +0.000 C 
ATOM      7  C   UNL     1       5.196   4.082  18.473  0.00  0.00    +0.000 C 
ATOM      8  C   UNL     1       4.098   3.076  18.181  0.00  0.00    +0.000 C 
ATOM      9  C   UNL     1       2.860   3.749  17.616  0.00  0.00    +0.000 C 
ATOM     10  C   UNL     1       2.280   4.867  18.491  0.00  0.00    +0.000 C 
BRANCH  10  11
ATOM     11  N   UNL     1       1.370   4.479  19.585  0.00  0.00    +0.000 NA
ATOM     12  C   UNL     1       1.706   4.828  20.957  0.00  0.00    +0.000 C 
ATOM     13  C   UNL     1       2.236   3.546  21.565  0.00  0.00    +0.000 C 
ATOM     14  C   UNL     1       1.420   2.462  20.886  0.00  0.00    +0.000 C 
ATOM     15  C   UNL     1       0.960   3.072  19.571  0.00  0.00    +0.000 C 
ENDBRANCH  10  11
ENDBRANCH   2   5
BRANCH   3  16
ATOM     16  C   UNL     1       1.591   8.242  19.424  0.00  0.00    +0.000 C 
BRANCH  16  17
ATOM     17  O   UNL     1       1.367   9.613  19.722  0.00  0.00    +0.000 OA
BRANCH  17  18
ATOM     18  C   UNL     1       0.702   9.881  20.886  0.00  0.00    +0.000 A 
ATOM     19  C   UNL     1      -0.223  10.926  20.815  0.00  0.00    +0.000 A 
ATOM     20  C   UNL     1      -1.015  11.249  21.919  0.00  0.00    +0.000 A 
ATOM     21  C   UNL     1      -0.890  10.520  23.100  0.00  0.00    +0.000 A 
ATOM     22  C   UNL     1       0.029   9.473  23.177  0.00  0.00    +0.000 A 
ATOM     23  C   UNL     1       0.822   9.155  22.072  0.00  0.00    +0.000 A 
ENDBRANCH  17  18
ENDBRANCH  16  17
ENDBRANCH   3  16
TORSDOF 5
ENDMDL
MODEL 3
REMARK VINA RESULT:      -7.2      2.172      4.039
REMARK  Name = 
REMARK  6 active torsions:
REMARK  status: ('A' for Active; 'I' for Inactive)
REMARK    1  A    between atoms: C_1  and  N_2
REMARK    2  A    between atoms: N_2  and  C_13
REMARK    3  A    between atoms: C_3  and  C_5
REMARK    4  A    between atoms: C_5  and  O_6
REMARK    5  A    between atoms: O_6  and  C_7
REMARK    6  A    between atoms: C_18  and  N_19
REMARK                            x       y       z     vdW  Elec       q    Type
REMARK                         _______ _______ _______ _____ _____    ______ ____
ROOT
ATOM      1  C   UNL     1       1.973   5.131  20.599  0.00  0.00    +0.000 C 
ATOM      2  N   UNL     1       2.262   5.890  19.387  0.00  0.00    +0.000 N 
ATOM      3  C   UNL     1       2.232   7.289  19.484  0.00  0.00    +0.000 C 
ATOM      4  O   UNL     1       1.975   7.856  20.552  0.00  0.00    +0.000 OA
ENDROOT
BRANCH   2   5
ATOM      5  C   UNL     1       2.790   5.184  18.188  0.00  0.00    +0.000 C 
ATOM      6  C   UNL     1       1.856   4.120  17.569  0.00  0.00    +0.000 C 
ATOM      7  C   UNL     1       2.059   2.671  18.026  0.00  0.00    +0.000 C 
ATOM      8  C   UNL     1       3.517   2.257  18.093  0.00  0.00    +0.000 C 
ATOM      9  C   UNL     1       4.338   3.235  18.916  0.00  0.00    +0.000 C 
ATOM     10  C   UNL     1       4.262   4.692  18.446  0.00  0.00    +0.000 C 
BRANCH  10  11
ATOM     11  N   UNL     1       5.164   5.109  17.356  0.00  0.00    +0.000 NA
ATOM     12  C   UNL     1       6.245   4.228  16.942  0.00  0.00    +0.000 C 
ATOM     13  C   UNL     1       7.490   4.818  17.572  0.00  0.00    +0.000 C 
ATOM     14  C   UNL     1       7.233   6.313  17.545  0.00  0.00    +0.000 C 
ATOM     15  C   UNL     1       5.719   6.457  17.501  0.00  0.00    +0.000 C 
ENDBRANCH  10  11
ENDBRANCH   2   5
BRANCH   3  16
ATOM     16  C   UNL     1       2.522   8.151  18.245  0.00  0.00    +0.000 C 
BRANCH  16  17
ATOM     17  O   UNL     1       1.292   8.641  17.727  0.00  0.00    +0.000 OA
BRANCH  17  18
ATOM     18  C   UNL     1       0.902   9.879  18.156  0.00  0.00    +0.000 A 
ATOM     19  C   UNL     1       1.925  10.827  18.242  0.00  0.00    +0.000 A 
ATOM     20  C   UNL     1       1.639  12.147  18.600  0.00  0.00    +0.000 A 
ATOM     21  C   UNL     1       0.325  12.525  18.868  0.00  0.00    +0.000 A 
ATOM     22  C   UNL     1      -0.701  11.584  18.782  0.00  0.00    +0.000 A 
ATOM     23  C   UNL     1      -0.412  10.264  18.426  0.00  0.00    +0.000 A 
ENDBRANCH  17  18
ENDBRANCH  16  17
ENDBRANCH   3  16
TORSDOF 5
ENDMDL
MODEL 4
REMARK VINA RESULT:      -7.1      2.148      4.046
REMARK  Name = 
REMARK  6 active torsions:
REMARK  status: ('A' for Active; 'I' for Inactive)
REMARK    1  A    between atoms: C_1  and  N_2
REMARK    2  A    between atoms: N_2  and  C_13
REMARK    3  A    between atoms: C_3  and  C_5
REMARK    4  A    between atoms: C_5  and  O_6
REMARK    5  A    between atoms: O_6  and  C_7
REMARK    6  A    between atoms: C_18  and  N_19
REMARK                            x       y       z     vdW  Elec       q    Type
REMARK                         _______ _______ _______ _____ _____    ______ ____
ROOT
ATOM      1  C   UNL     1       1.947   5.126  20.565  0.00  0.00    +0.000 C 
ATOM      2  N   UNL     1       2.248   5.882  19.354  0.00  0.00    +0.000 N 
ATOM      3  C   UNL     1       2.252   7.281  19.455  0.00  0.00    +0.000 C 
ATOM      4  O   UNL     1       2.013   7.851  20.526  0.00  0.00    +0.000 OA
ENDROOT
BRANCH   2   5
ATOM      5  C   UNL     1       2.754   5.167  18.150  0.00  0.00    +0.000 C 
ATOM      6  C   UNL     1       1.823   4.076  17.577  0.00  0.00    +0.000 C 
ATOM      7  C   UNL     1       2.067   2.639  18.050  0.00  0.00    +0.000 C 
ATOM      8  C   UNL     1       3.535   2.254  18.078  0.00  0.00    +0.000 C 
ATOM      9  C   UNL     1       4.361   3.261  18.861  0.00  0.00    +0.000 C 
ATOM     10  C   UNL     1       4.242   4.709  18.371  0.00  0.00    +0.000 C 
BRANCH  10  11
ATOM     11  N   UNL     1       5.102   5.125  17.248  0.00  0.00    +0.000 NA
ATOM     12  C   UNL     1       6.135   4.223  16.761  0.00  0.00    +0.000 C 
ATOM     13  C   UNL     1       7.426   4.761  17.343  0.00  0.00    +0.000 C 
ATOM     14  C   UNL     1       7.214   6.263  17.362  0.00  0.00    +0.000 C 
ATOM     15  C   UNL     1       5.705   6.453  17.396  0.00  0.00    +0.000 C 
ENDBRANCH  10  11
ENDBRANCH   2   5
BRANCH   3  16
ATOM     16  C   UNL     1       2.556   8.140  18.216  0.00  0.00    +0.000 C 
BRANCH  16  17
ATOM     17  O   UNL     1       1.339   8.684  17.723  0.00  0.00    +0.000 OA
BRANCH  17  18
ATOM     18  C   UNL     1       1.057   9.972  18.088  0.00  0.00    +0.000 A 
ATOM     19  C   UNL     1      -0.277  10.214  18.426  0.00  0.00    +0.000 A 
ATOM     20  C   UNL     1      -0.675  11.472  18.884  0.00  0.00    +0.000 A 
ATOM     21  C   UNL     1       0.265  12.494  19.011  0.00  0.00    +0.000 A 
ATOM     22  C   UNL     1       1.599  12.258  18.678  0.00  0.00    +0.000 A 
ATOM     23  C   UNL     1       1.993  10.998  18.218  0.00  0.00    +0.000 A 
ENDBRANCH  17  18
ENDBRANCH  16  17
ENDBRANCH   3  16
TORSDOF 5
ENDMDL
MODEL 5
REMARK VINA RESULT:      -7.1      3.614      7.072
REMARK  Name = 
REMARK  6 active torsions:
REMARK  status: ('A' for Active; 'I' for Inactive)
REMARK    1  A    between atoms: C_1  and  N_2
REMARK    2  A    between atoms: N_2  and  C_13
REMARK    3  A    between atoms: C_3  and  C_5
REMARK    4  A    between atoms: C_5  and  O_6
REMARK    5  A    between atoms: O_6  and  C_7
REMARK    6  A    between atoms: C_18  and  N_19
REMARK                            x       y       z     vdW  Elec       q    Type
REMARK                         _______ _______ _______ _____ _____    ______ ____
ROOT
ATOM      1  C   UNL     1       3.503   7.473  17.626  0.00  0.00    +0.000 C 
ATOM      2  N   UNL     1       4.377   6.305  17.581  0.00  0.00    +0.000 N 
ATOM      3  C   UNL     1       5.628   6.463  16.967  0.00  0.00    +0.000 C 
ATOM      4  O   UNL     1       5.978   7.547  16.486  0.00  0.00    +0.000 OA
ENDROOT
BRANCH   2   5
ATOM      5  C   UNL     1       4.021   5.092  18.368  0.00  0.00    +0.000 C 
ATOM      6  C   UNL     1       4.561   3.753  17.817  0.00  0.00    +0.000 C 
ATOM      7  C   UNL     1       3.627   2.954  16.902  0.00  0.00    +0.000 C 
ATOM      8  C   UNL     1       2.197   2.889  17.407  0.00  0.00    +0.000 C 
ATOM      9  C   UNL     1       1.650   4.273  17.712  0.00  0.00    +0.000 C 
ATOM     10  C   UNL     1       2.485   5.090  18.706  0.00  0.00    +0.000 C 
BRANCH  10  11
ATOM     11  N   UNL     1       2.255   4.862  20.144  0.00  0.00    +0.000 NA
ATOM     12  C   UNL     1       3.257   4.157  20.929  0.00  0.00    +0.000 C 
ATOM     13  C   UNL     1       2.707   2.755  21.092  0.00  0.00    +0.000 C 
ATOM     14  C   UNL     1       1.207   2.964  21.177  0.00  0.00    +0.000 C 
ATOM     15  C   UNL     1       0.947   4.287  20.473  0.00  0.00    +0.000 C 
ENDBRANCH  10  11
ENDBRANCH   2   5
BRANCH   3  16
ATOM     16  C   UNL     1       6.596   5.272  16.879  0.00  0.00    +0.000 C 
BRANCH  16  17
ATOM     17  O   UNL     1       7.467   5.467  15.773  0.00  0.00    +0.000 OA
BRANCH  17  18
ATOM     18  C   UNL     1       7.074   4.915  14.585  0.00  0.00    +0.000 A 
ATOM     19  C   UNL     1       7.794   5.340  13.466  0.00  0.00    +0.000 A 
ATOM     20  C   UNL     1       7.533   4.795  12.206  0.00  0.00    +0.000 A 
ATOM     21  C   UNL     1       6.553   3.815  12.063  0.00  0.00    +0.000 A 
ATOM     22  C   UNL     1       5.832   3.384  13.177  0.00  0.00    +0.000 A 
ATOM     23  C   UNL     1       6.093   3.934  14.435  0.00  0.00    +0.000 A 
ENDBRANCH  17  18
ENDBRANCH  16  17
ENDBRANCH   3  16
TORSDOF 5
ENDMDL
MODEL 6
REMARK VINA RESULT:      -7.1      2.163      3.950
REMARK  Name = 
REMARK  6 active torsions:
REMARK  status: ('A' for Active; 'I' for Inactive)
REMARK    1  A    between atoms: C_1  and  N_2
REMARK    2  A    between atoms: N_2  and  C_13
REMARK    3  A    between atoms: C_3  and  C_5
REMARK    4  A    between atoms: C_5  and  O_6
REMARK    5  A    between atoms: O_6  and  C_7
REMARK    6  A    between atoms: C_18  and  N_19
REMARK                            x       y       z     vdW  Elec       q    Type
REMARK                         _______ _______ _______ _____ _____    ______ ____
ROOT
ATOM      1  C   UNL     1       2.009   5.252  20.698  0.00  0.00    +0.000 C 
ATOM      2  N   UNL     1       2.285   6.071  19.523  0.00  0.00    +0.000 N 
ATOM      3  C   UNL     1       2.106   7.456  19.650  0.00  0.00    +0.000 C 
ATOM      4  O   UNL     1       1.733   7.964  20.714  0.00  0.00    +0.000 OA
ENDROOT
BRANCH   2   5
ATOM      5  C   UNL     1       2.948   5.456  18.340  0.00  0.00    +0.000 C 
ATOM      6  C   UNL     1       2.118   4.399  17.579  0.00  0.00    +0.000 C 
ATOM      7  C   UNL     1       2.336   2.934  17.971  0.00  0.00    +0.000 C 
ATOM      8  C   UNL     1       3.799   2.568  18.149  0.00  0.00    +0.000 C 
ATOM      9  C   UNL     1       4.501   3.523  19.099  0.00  0.00    +0.000 C 
ATOM     10  C   UNL     1       4.409   5.002  18.707  0.00  0.00    +0.000 C 
BRANCH  10  11
ATOM     11  N   UNL     1       5.388   5.514  17.730  0.00  0.00    +0.000 NA
ATOM     12  C   UNL     1       4.945   5.884  16.394  0.00  0.00    +0.000 C 
ATOM     13  C   UNL     1       5.365   4.726  15.512  0.00  0.00    +0.000 C 
ATOM     14  C   UNL     1       6.664   4.251  16.135  0.00  0.00    +0.000 C 
ATOM     15  C   UNL     1       6.597   4.698  17.587  0.00  0.00    +0.000 C 
ENDBRANCH  10  11
ENDBRANCH   2   5
BRANCH   3  16
ATOM     16  C   UNL     1       2.372   8.378  18.448  0.00  0.00    +0.000 C 
BRANCH  16  17
ATOM     17  O   UNL     1       1.133   8.703  17.833  0.00  0.00    +0.000 OA
BRANCH  17  18
ATOM     18  C   UNL     1       0.603   9.925  18.142  0.00  0.00    +0.000 A 
ATOM     19  C   UNL     1      -0.770  10.051  17.915  0.00  0.00    +0.000 A 
ATOM     20  C   UNL     1      -1.440  11.228  18.258  0.00  0.00    +0.000 A 
ATOM     21  C   UNL     1      -0.738  12.283  18.838  0.00  0.00    +0.000 A 
ATOM     22  C   UNL     1       0.632  12.162  19.071  0.00  0.00    +0.000 A 
ATOM     23  C   UNL     1       1.300  10.985  18.724  0.00  0.00    +0.000 A 
ENDBRANCH  17  18
ENDBRANCH  16  17
ENDBRANCH   3  16
TORSDOF 5
ENDMDL
MODEL 7
REMARK VINA RESULT:      -7.1      2.173      3.951
REMARK  Name = 
REMARK  6 active torsions:
REMARK  status: ('A' for Active; 'I' for Inactive)
REMARK    1  A    between atoms: C_1  and  N_2
REMARK    2  A    between atoms: N_2  and  C_13
REMARK    3  A    between atoms: C_3  and  C_5
REMARK    4  A    between atoms: C_5  and  O_6
REMARK    5  A    between atoms: O_6  and  C_7
REMARK    6  A    between atoms: C_18  and  N_19
REMARK                            x       y       z     vdW  Elec       q    Type
REMARK                         _______ _______ _______ _____ _____    ______ ____
ROOT
ATOM      1  C   UNL     1       1.871   5.214  20.645  0.00  0.00    +0.000 C 
ATOM      2  N   UNL     1       2.235   6.038  19.497  0.00  0.00    +0.000 N 
ATOM      3  C   UNL     1       2.112   7.427  19.642  0.00  0.00    +0.000 C 
ATOM      4  O   UNL     1       1.715   7.934  20.697  0.00  0.00    +0.000 OA
ENDROOT
BRANCH   2   5
ATOM      5  C   UNL     1       2.922   5.413  18.334  0.00  0.00    +0.000 C 
ATOM      6  C   UNL     1       2.122   4.321  17.589  0.00  0.00    +0.000 C 
ATOM      7  C   UNL     1       2.369   2.870  18.014  0.00  0.00    +0.000 C 
ATOM      8  C   UNL     1       3.837   2.541  18.213  0.00  0.00    +0.000 C 
ATOM      9  C   UNL     1       4.510   3.531  19.147  0.00  0.00    +0.000 C 
ATOM     10  C   UNL     1       4.389   4.999  18.723  0.00  0.00    +0.000 C 
BRANCH  10  11
ATOM     11  N   UNL     1       5.366   5.512  17.744  0.00  0.00    +0.000 NA
ATOM     12  C   UNL     1       4.923   5.860  16.402  0.00  0.00    +0.000 C 
ATOM     13  C   UNL     1       5.361   4.697  15.535  0.00  0.00    +0.000 C 
ATOM     14  C   UNL     1       6.663   4.246  16.169  0.00  0.00    +0.000 C 
ATOM     15  C   UNL     1       6.585   4.709  17.615  0.00  0.00    +0.000 C 
ENDBRANCH  10  11
ENDBRANCH   2   5
BRANCH   3  16
ATOM     16  C   UNL     1       2.472   8.356  18.470  0.00  0.00    +0.000 C 
BRANCH  16  17
ATOM     17  O   UNL     1       1.280   8.723  17.789  0.00  0.00    +0.000 OA
BRANCH  17  18
ATOM     18  C   UNL     1       0.695   9.897  18.179  0.00  0.00    +0.000 A 
ATOM     19  C   UNL     1       1.584  10.931  18.480  0.00  0.00    +0.000 A 
ATOM     20  C   UNL     1       1.107  12.199  18.821  0.00  0.00    +0.000 A 
ATOM     21  C   UNL     1      -0.266  12.438  18.855  0.00  0.00    +0.000 A 
ATOM     22  C   UNL     1      -1.159  11.410  18.553  0.00  0.00    +0.000 A 
ATOM     23  C   UNL     1      -0.678  10.143  18.214  0.00  0.00    +0.000 A 
ENDBRANCH  17  18
ENDBRANCH  16  17
ENDBRANCH   3  16
TORSDOF 5
ENDMDL
MODEL 8
REMARK VINA RESULT:      -7.1      1.277      1.855
REMARK  Name = 
REMARK  6 active torsions:
REMARK  status: ('A' for Active; 'I' for Inactive)
REMARK    1  A    between atoms: C_1  and  N_2
REMARK    2  A    between atoms: N_2  and  C_13
REMARK    3  A    between atoms: C_3  and  C_5
REMARK    4  A    between atoms: C_5  and  O_6
REMARK    5  A    between atoms: O_6  and  C_7
REMARK    6  A    between atoms: C_18  and  N_19
REMARK                            x       y       z     vdW  Elec       q    Type
REMARK                         _______ _______ _______ _____ _____    ______ ____
ROOT
ATOM      1  C   UNL     1       4.451   6.958  16.840  0.00  0.00    +0.000 C 
ATOM      2  N   UNL     1       3.538   7.060  17.973  0.00  0.00    +0.000 N 
ATOM      3  C   UNL     1       2.645   8.141  17.981  0.00  0.00    +0.000 C 
ATOM      4  O   UNL     1       2.629   8.972  17.065  0.00  0.00    +0.000 OA
ENDROOT
BRANCH   2   5
ATOM      5  C   UNL     1       3.427   5.926  18.931  0.00  0.00    +0.000 C 
ATOM      6  C   UNL     1       4.764   5.295  19.381  0.00  0.00    +0.000 C 
ATOM      7  C   UNL     1       5.251   4.072  18.597  0.00  0.00    +0.000 C 
ATOM      8  C   UNL     1       4.154   3.065  18.305  0.00  0.00    +0.000 C 
ATOM      9  C   UNL     1       2.953   3.724  17.647  0.00  0.00    +0.000 C 
ATOM     10  C   UNL     1       2.350   4.893  18.433  0.00  0.00    +0.000 C 
BRANCH  10  11
ATOM     11  N   UNL     1       1.383   4.575  19.500  0.00  0.00    +0.000 NA
ATOM     12  C   UNL     1       1.671   4.967  20.871  0.00  0.00    +0.000 C 
ATOM     13  C   UNL     1       2.135   3.694  21.550  0.00  0.00    +0.000 C 
ATOM     14  C   UNL     1       1.316   2.609  20.877  0.00  0.00    +0.000 C 
ATOM     15  C   UNL     1       0.930   3.180  19.522  0.00  0.00    +0.000 C 
ENDBRANCH  10  11
ENDBRANCH   2   5
BRANCH   3  16
ATOM     16  C   UNL     1       1.658   8.314  19.147  0.00  0.00    +0.000 C 
BRANCH  16  17
ATOM     17  O   UNL     1       1.432   9.701  19.359  0.00  0.00    +0.000 OA
BRANCH  17  18
ATOM     18  C   UNL     1       0.173  10.161  19.087  0.00  0.00    +0.000 A 
ATOM     19  C   UNL     1      -0.323  11.102  19.992  0.00  0.00    +0.000 A 
ATOM     20  C   UNL     1      -1.569  11.698  19.782  0.00  0.00    +0.000 A 
ATOM     21  C   UNL     1      -2.321  11.359  18.658  0.00  0.00    +0.000 A 
ATOM     22  C   UNL     1      -1.829  10.423  17.749  0.00  0.00    +0.000 A 
ATOM     23  C   UNL     1      -0.584   9.826  17.964  0.00  0.00    +0.000 A 
ENDBRANCH  17  18
ENDBRANCH  16  17
ENDBRANCH   3  16
TORSDOF 5
ENDMDL
MODEL 9
REMARK VINA RESULT:      -7.0      1.878      3.962
REMARK  Name = 
REMARK  6 active torsions:
REMARK  status: ('A' for Active; 'I' for Inactive)
REMARK    1  A    between atoms: C_1  and  N_2
REMARK    2  A    between atoms: N_2  and  C_13
REMARK    3  A    between atoms: C_3  and  C_5
REMARK    4  A    between atoms: C_5  and  O_6
REMARK    5  A    between atoms: O_6  and  C_7
REMARK    6  A    between atoms: C_18  and  N_19
REMARK                            x       y       z     vdW  Elec       q    Type
REMARK                         _______ _______ _______ _____ _____    ______ ____
ROOT
ATOM      1  C   UNL     1       2.170   5.137  20.717  0.00  0.00    +0.000 C 
ATOM      2  N   UNL     1       2.238   5.917  19.486  0.00  0.00    +0.000 N 
ATOM      3  C   UNL     1       2.097   7.308  19.600  0.00  0.00    +0.000 C 
ATOM      4  O   UNL     1       1.924   7.852  20.696  0.00  0.00    +0.000 OA
ENDROOT
BRANCH   2   5
ATOM      5  C   UNL     1       2.675   5.259  18.225  0.00  0.00    +0.000 C 
ATOM      6  C   UNL     1       1.692   4.224  17.632  0.00  0.00    +0.000 C 
ATOM      7  C   UNL     1       1.918   2.758  18.014  0.00  0.00    +0.000 C 
ATOM      8  C   UNL     1       3.375   2.336  17.959  0.00  0.00    +0.000 C 
ATOM      9  C   UNL     1       4.258   3.277  18.760  0.00  0.00    +0.000 C 
ATOM     10  C   UNL     1       4.159   4.752  18.357  0.00  0.00    +0.000 C 
BRANCH  10  11
ATOM     11  N   UNL     1       4.982   5.210  17.222  0.00  0.00    +0.000 NA
ATOM     12  C   UNL     1       6.031   4.346  16.701  0.00  0.00    +0.000 C 
ATOM     13  C   UNL     1       7.317   4.915  17.265  0.00  0.00    +0.000 C 
ATOM     14  C   UNL     1       7.061   6.409  17.311  0.00  0.00    +0.000 C 
ATOM     15  C   UNL     1       5.548   6.553  17.377  0.00  0.00    +0.000 C 
ENDBRANCH  10  11
ENDBRANCH   2   5
BRANCH   3  16
ATOM     16  C   UNL     1       2.153   8.190  18.342  0.00  0.00    +0.000 C 
BRANCH  16  17
ATOM     17  O   UNL     1       1.903   9.539  18.713  0.00  0.00    +0.000 OA
BRANCH  17  18
ATOM     18  C   UNL     1       0.600   9.953  18.661  0.00  0.00    +0.000 A 
ATOM     19  C   UNL     1       0.220  10.844  19.667  0.00  0.00    +0.000 A 
ATOM     20  C   UNL     1      -1.065  11.393  19.679  0.00  0.00    +0.000 A 
ATOM     21  C   UNL     1      -1.973  11.056  18.678  0.00  0.00    +0.000 A 
ATOM     22  C   UNL     1      -1.599  10.168  17.669  0.00  0.00    +0.000 A 
ATOM     23  C   UNL     1      -0.314   9.619  17.661  0.00  0.00    +0.000 A 
ENDBRANCH  17  18
ENDBRANCH  16  17
ENDBRANCH   3  16
TORSDOF 5
ENDMDL
