MODEL 1
REMARK VINA RESULT:      -6.9      0.000      0.000
REMARK  Name = 
REMARK  12 active torsions:
REMARK  status: ('A' for Active; 'I' for Inactive)
REMARK    1  A    between atoms: C_1  and  C_2
REMARK    2  A    between atoms: C_2  and  C_3
REMARK    3  A    between atoms: C_2  and  O_4
REMARK    4  A    between atoms: O_4  and  P_5
REMARK    5  A    between atoms: P_5  and  O_7
REMARK    6  A    between atoms: P_5  and  C_11
REMARK    7  A    between atoms: O_7  and  C_8
REMARK    8  A    between atoms: C_8  and  C_9
REMARK    9  A    between atoms: C_8  and  C_10
REMARK   10  A    between atoms: C_12  and  C_13
REMARK   11  A    between atoms: C_15  and  N_16
REMARK   12  A    between atoms: C_21  and  N_22
REMARK                            x       y       z     vdW  Elec       q    Type
REMARK                         _______ _______ _______ _____ _____    ______ ____
ROOT
ATOM      1  C   UNL     1       2.935   6.480  18.071  0.00  0.00    +0.000 C 
ATOM      2  C   UNL     1       2.301   7.723  18.716  0.00  0.00    +0.000 C 
ATOM      3  C   UNL     1       1.722   7.699  19.941  0.00  0.00    +0.000 C 
ATOM      4  O   UNL     1       1.650   6.557  20.709  0.00  0.00    +0.000 OA
ATOM      5  C   UNL     1       2.249   5.406  20.286  0.00  0.00    +0.000 A 
ATOM      6  C   UNL     1       2.207   4.346  21.204  0.00  0.00    +0.000 A 
ATOM      7  C   UNL     1       2.824   3.130  20.915  0.00  0.00    +0.000 A 
ATOM      8  C   UNL     1       3.453   2.978  19.682  0.00  0.00    +0.000 A 
ATOM      9  C   UNL     1       3.451   4.027  18.745  0.00  0.00    +0.000 A 
ATOM     10  C   UNL     1       2.877   5.280  19.043  0.00  0.00    +0.000 A 
ENDROOT
BRANCH   3  11
ATOM     11  N   UNL     1       1.114   8.769  20.558  0.00  0.00    +0.000 N 
ATOM     12  H   UNL     1       1.374   8.932  21.532  0.00  0.00    +0.000 HD
ATOM     13  H   UNL     1       1.167   9.617  19.996  0.00  0.00    +0.000 HD
ENDBRANCH   3  11
BRANCH   8  14
ATOM     14  N   UNL     1       4.157   1.725  19.367  0.00  0.00    +0.000 N 
ATOM     15  O   UNL     1       3.762   1.075  18.389  0.00  0.00    +0.000 OA
ATOM     16  O   UNL     1       5.090   1.387  20.106  0.00  0.00    +0.000 OA
ENDBRANCH   8  14
BRANCH   1  17
ATOM     17  P   UNL     1       4.640   6.814  17.497  0.00  0.00    +0.000 P 
ATOM     18  O   UNL     1       4.041   7.666  16.370  0.00  0.00    +0.000 OA
BRANCH  17  19
ATOM     19  O   UNL     1       6.252   7.129  16.954  0.00  0.00    +0.000 OA
BRANCH  19  21
ATOM     20  C   UNL     1       7.864   6.358  18.612  0.00  0.00    +0.000 C 
ATOM     21  C   UNL     1       7.115   7.555  18.034  0.00  0.00    +0.000 C 
ATOM     22  C   UNL     1       8.096   8.625  17.580  0.00  0.00    +0.000 C 
ENDBRANCH  19  21
ENDBRANCH  17  19
BRANCH  17  23
ATOM     23  O   UNL     1       4.813   5.285  16.841  0.00  0.00    +0.000 OA
BRANCH  23  24
ATOM     24  C   UNL     1       5.773   5.031  15.804  0.00  0.00    +0.000 C 
ATOM     25  C   UNL     1       6.818   3.992  16.207  0.00  0.00    +0.000 C 
ATOM     26  C   UNL     1       5.058   4.513  14.551  0.00  0.00    +0.000 C 
ENDBRANCH  23  24
ENDBRANCH  17  23
ENDBRANCH   1  17
BRANCH   2  27
ATOM     27  C   UNL     1       2.206   8.959  17.987  0.00  0.00    +0.000 C 
ATOM     28  N   UNL     1       2.017   9.971  17.464  0.00  0.00    +0.000 NA
ENDBRANCH   2  27
TORSDOF 8
ENDMDL
MODEL 2
REMARK VINA RESULT:      -6.5      3.315      6.618
REMARK  Name = 
REMARK  12 active torsions:
REMARK  status: ('A' for Active; 'I' for Inactive)
REMARK    1  A    between atoms: C_1  and  C_2
REMARK    2  A    between atoms: C_2  and  C_3
REMARK    3  A    between atoms: C_2  and  O_4
REMARK    4  A    between atoms: O_4  and  P_5
REMARK    5  A    between atoms: P_5  and  O_7
REMARK    6  A    between atoms: P_5  and  C_11
REMARK    7  A    between atoms: O_7  and  C_8
REMARK    8  A    between atoms: C_8  and  C_9
REMARK    9  A    between atoms: C_8  and  C_10
REMARK   10  A    between atoms: C_12  and  C_13
REMARK   11  A    between atoms: C_15  and  N_16
REMARK   12  A    between atoms: C_21  and  N_22
REMARK                            x       y       z     vdW  Elec       q    Type
REMARK                         _______ _______ _______ _____ _____    ______ ____
ROOT
ATOM      1  C   UNL     1       6.042   3.967  16.662  0.00  0.00    +0.000 C 
ATOM      2  C   UNL     1       6.666   5.113  17.472  0.00  0.00    +0.000 C 
ATOM      3  C   UNL     1       7.441   6.073  16.909  0.00  0.00    +0.000 C 
ATOM      4  O   UNL     1       7.735   6.096  15.563  0.00  0.00    +0.000 OA
ATOM      5  C   UNL     1       7.174   5.181  14.720  0.00  0.00    +0.000 A 
ATOM      6  C   UNL     1       7.458   5.378  13.361  0.00  0.00    +0.000 A 
ATOM      7  C   UNL     1       6.907   4.542  12.391  0.00  0.00    +0.000 A 
ATOM      8  C   UNL     1       6.096   3.487  12.803  0.00  0.00    +0.000 A 
ATOM      9  C   UNL     1       5.855   3.264  14.171  0.00  0.00    +0.000 A 
ATOM     10  C   UNL     1       6.362   4.132  15.159  0.00  0.00    +0.000 A 
ENDROOT
BRANCH   3  11
ATOM     11  N   UNL     1       8.050   7.107  17.584  0.00  0.00    +0.000 N 
ATOM     12  H   UNL     1       7.549   7.469  18.397  0.00  0.00    +0.000 HD
ATOM     13  H   UNL     1       9.028   6.908  17.788  0.00  0.00    +0.000 HD
ENDBRANCH   3  11
BRANCH   8  14
ATOM     14  N   UNL     1       5.459   2.617  11.803  0.00  0.00    +0.000 N 
ATOM     15  O   UNL     1       6.099   1.632  11.407  0.00  0.00    +0.000 OA
ATOM     16  O   UNL     1       4.330   2.929  11.403  0.00  0.00    +0.000 OA
ENDBRANCH   8  14
BRANCH   1  17
ATOM     17  P   UNL     1       4.243   3.827  16.968  0.00  0.00    +0.000 P 
ATOM     18  O   UNL     1       4.021   4.042  15.464  0.00  0.00    +0.000 OA
BRANCH  17  19
ATOM     19  O   UNL     1       2.542   3.694  17.257  0.00  0.00    +0.000 OA
BRANCH  19  21
ATOM     20  C   UNL     1       3.390   1.723  18.414  0.00  0.00    +0.000 C 
ATOM     21  C   UNL     1       2.179   2.392  17.772  0.00  0.00    +0.000 C 
ATOM     22  C   UNL     1       1.033   2.482  18.768  0.00  0.00    +0.000 C 
ENDBRANCH  19  21
ENDBRANCH  17  19
BRANCH  17  23
ATOM     23  O   UNL     1       4.149   5.354  17.644  0.00  0.00    +0.000 OA
BRANCH  23  24
ATOM     24  C   UNL     1       2.938   5.814  18.261  0.00  0.00    +0.000 C 
ATOM     25  C   UNL     1       2.940   5.631  19.777  0.00  0.00    +0.000 C 
ATOM     26  C   UNL     1       2.744   7.307  17.971  0.00  0.00    +0.000 C 
ENDBRANCH  23  24
ENDBRANCH  17  23
ENDBRANCH   1  17
BRANCH   2  27
ATOM     27  C   UNL     1       6.534   5.157  18.904  0.00  0.00    +0.000 C 
ATOM     28  N   UNL     1       6.549   5.241  20.056  0.00  0.00    +0.000 NA
ENDBRANCH   2  27
TORSDOF 8
ENDMDL
MODEL 3
REMARK VINA RESULT:      -6.5      0.606      1.099
REMARK  Name = 
REMARK  12 active torsions:
REMARK  status: ('A' for Active; 'I' for Inactive)
REMARK    1  A    between atoms: C_1  and  C_2
REMARK    2  A    between atoms: C_2  and  C_3
REMARK    3  A    between atoms: C_2  and  O_4
REMARK    4  A    between atoms: O_4  and  P_5
REMARK    5  A    between atoms: P_5  and  O_7
REMARK    6  A    between atoms: P_5  and  C_11
REMARK    7  A    between atoms: O_7  and  C_8
REMARK    8  A    between atoms: C_8  and  C_9
REMARK    9  A    between atoms: C_8  and  C_10
REMARK   10  A    between atoms: C_12  and  C_13
REMARK   11  A    between atoms: C_15  and  N_16
REMARK   12  A    between atoms: C_21  and  N_22
REMARK                            x       y       z     vdW  Elec       q    Type
REMARK                         _______ _______ _______ _____ _____    ______ ____
ROOT
ATOM      1  C   UNL     1       3.042   6.155  18.155  0.00  0.00    +0.000 C 
ATOM      2  C   UNL     1       2.412   7.415  18.769  0.00  0.00    +0.000 C 
ATOM      3  C   UNL     1       1.836   7.424  19.996  0.00  0.00    +0.000 C 
ATOM      4  O   UNL     1       1.765   6.301  20.792  0.00  0.00    +0.000 OA
ATOM      5  C   UNL     1       2.361   5.139  20.397  0.00  0.00    +0.000 A 
ATOM      6  C   UNL     1       2.319   4.103  21.342  0.00  0.00    +0.000 A 
ATOM      7  C   UNL     1       2.934   2.879  21.083  0.00  0.00    +0.000 A 
ATOM      8  C   UNL     1       3.560   2.695  19.852  0.00  0.00    +0.000 A 
ATOM      9  C   UNL     1       3.556   3.720  18.888  0.00  0.00    +0.000 A 
ATOM     10  C   UNL     1       2.985   4.981  19.157  0.00  0.00    +0.000 A 
ENDROOT
BRANCH   3  11
ATOM     11  N   UNL     1       1.231   8.509  20.587  0.00  0.00    +0.000 N 
ATOM     12  H   UNL     1       1.823   9.076  21.197  0.00  0.00    +0.000 HD
ATOM     13  H   UNL     1       0.714   9.074  19.915  0.00  0.00    +0.000 HD
ENDBRANCH   3  11
BRANCH   8  14
ATOM     14  N   UNL     1       4.261   1.433  19.567  0.00  0.00    +0.000 N 
ATOM     15  O   UNL     1       5.185   1.106  20.325  0.00  0.00    +0.000 OA
ATOM     16  O   UNL     1       3.897   0.783  18.579  0.00  0.00    +0.000 OA
ENDBRANCH   8  14
BRANCH   1  17
ATOM     17  P   UNL     1       4.746   6.472  17.567  0.00  0.00    +0.000 P 
ATOM     18  O   UNL     1       4.278   7.861  17.111  0.00  0.00    +0.000 OA
BRANCH  17  19
ATOM     19  O   UNL     1       6.357   6.771  17.012  0.00  0.00    +0.000 OA
BRANCH  19  21
ATOM     20  C   UNL     1       8.180   7.537  18.438  0.00  0.00    +0.000 C 
ATOM     21  C   UNL     1       7.351   6.344  17.973  0.00  0.00    +0.000 C 
ATOM     22  C   UNL     1       6.715   5.643  19.164  0.00  0.00    +0.000 C 
ENDBRANCH  19  21
ENDBRANCH  17  19
BRANCH  17  23
ATOM     23  O   UNL     1       4.561   5.489  16.227  0.00  0.00    +0.000 OA
BRANCH  23  24
ATOM     24  C   UNL     1       5.666   4.733  15.709  0.00  0.00    +0.000 C 
ATOM     25  C   UNL     1       5.709   3.304  16.245  0.00  0.00    +0.000 C 
ATOM     26  C   UNL     1       5.569   4.656  14.180  0.00  0.00    +0.000 C 
ENDBRANCH  23  24
ENDBRANCH  17  23
ENDBRANCH   1  17
BRANCH   2  27
ATOM     27  C   UNL     1       2.316   8.632  18.009  0.00  0.00    +0.000 C 
ATOM     28  N   UNL     1       2.153   9.650  17.487  0.00  0.00    +0.000 NA
ENDBRANCH   2  27
TORSDOF 8
ENDMDL
MODEL 4
REMARK VINA RESULT:      -6.3      3.337      6.504
REMARK  Name = 
REMARK  12 active torsions:
REMARK  status: ('A' for Active; 'I' for Inactive)
REMARK    1  A    between atoms: C_1  and  C_2
REMARK    2  A    between atoms: C_2  and  C_3
REMARK    3  A    between atoms: C_2  and  O_4
REMARK    4  A    between atoms: O_4  and  P_5
REMARK    5  A    between atoms: P_5  and  O_7
REMARK    6  A    between atoms: P_5  and  C_11
REMARK    7  A    between atoms: O_7  and  C_8
REMARK    8  A    between atoms: C_8  and  C_9
REMARK    9  A    between atoms: C_8  and  C_10
REMARK   10  A    between atoms: C_12  and  C_13
REMARK   11  A    between atoms: C_15  and  N_16
REMARK   12  A    between atoms: C_21  and  N_22
REMARK                            x       y       z     vdW  Elec       q    Type
REMARK                         _______ _______ _______ _____ _____    ______ ____
ROOT
ATOM      1  C   UNL     1       5.829   4.029  16.650  0.00  0.00    +0.000 C 
ATOM      2  C   UNL     1       6.541   5.131  17.450  0.00  0.00    +0.000 C 
ATOM      3  C   UNL     1       7.402   6.010  16.882  0.00  0.00    +0.000 C 
ATOM      4  O   UNL     1       7.714   5.985  15.540  0.00  0.00    +0.000 OA
ATOM      5  C   UNL     1       7.086   5.108  14.704  0.00  0.00    +0.000 A 
ATOM      6  C   UNL     1       7.402   5.257  13.346  0.00  0.00    +0.000 A 
ATOM      7  C   UNL     1       6.792   4.456  12.382  0.00  0.00    +0.000 A 
ATOM      8  C   UNL     1       5.888   3.481  12.800  0.00  0.00    +0.000 A 
ATOM      9  C   UNL     1       5.611   3.303  14.168  0.00  0.00    +0.000 A 
ATOM     10  C   UNL     1       6.180   4.141  15.149  0.00  0.00    +0.000 A 
ENDROOT
BRANCH   3  11
ATOM     11  N   UNL     1       8.090   6.998  17.549  0.00  0.00    +0.000 N 
ATOM     12  H   UNL     1       8.121   6.917  18.566  0.00  0.00    +0.000 HD
ATOM     13  H   UNL     1       9.012   7.163  17.146  0.00  0.00    +0.000 HD
ENDBRANCH   3  11
BRANCH   8  14
ATOM     14  N   UNL     1       5.190   2.653  11.804  0.00  0.00    +0.000 N 
ATOM     15  O   UNL     1       5.742   1.606  11.439  0.00  0.00    +0.000 OA
ATOM     16  O   UNL     1       4.100   3.060  11.379  0.00  0.00    +0.000 OA
ENDBRANCH   8  14
BRANCH   1  17
ATOM     17  P   UNL     1       4.021   4.050  16.933  0.00  0.00    +0.000 P 
ATOM     18  O   UNL     1       4.091   5.584  16.944  0.00  0.00    +0.000 OA
BRANCH  17  19
ATOM     19  O   UNL     1       2.312   4.070  17.201  0.00  0.00    +0.000 OA
BRANCH  19  21
ATOM     20  C   UNL     1       1.668   5.650  18.943  0.00  0.00    +0.000 C 
ATOM     21  C   UNL     1       1.984   4.196  18.605  0.00  0.00    +0.000 C 
ATOM     22  C   UNL     1       0.820   3.297  18.992  0.00  0.00    +0.000 C 
ENDBRANCH  19  21
ENDBRANCH  17  19
BRANCH  17  23
ATOM     23  O   UNL     1       4.178   3.597  18.536  0.00  0.00    +0.000 OA
BRANCH  23  24
ATOM     24  C   UNL     1       4.613   2.276  18.889  0.00  0.00    +0.000 C 
ATOM     25  C   UNL     1       4.515   2.001  20.388  0.00  0.00    +0.000 C 
ATOM     26  C   UNL     1       3.749   1.236  18.166  0.00  0.00    +0.000 C 
ENDBRANCH  23  24
ENDBRANCH  17  23
ENDBRANCH   1  17
BRANCH   2  27
ATOM     27  C   UNL     1       6.396   5.209  18.879  0.00  0.00    +0.000 C 
ATOM     28  N   UNL     1       6.397   5.328  20.028  0.00  0.00    +0.000 NA
ENDBRANCH   2  27
TORSDOF 8
ENDMDL
MODEL 5
REMARK VINA RESULT:      -6.3      6.708      9.381
REMARK  Name = 
REMARK  12 active torsions:
REMARK  status: ('A' for Active; 'I' for Inactive)
REMARK    1  A    between atoms: C_1  and  C_2
REMARK    2  A    between atoms: C_2  and  C_3
REMARK    3  A    between atoms: C_2  and  O_4
REMARK    4  A    between atoms: O_4  and  P_5
REMARK    5  A    between atoms: P_5  and  O_7
REMARK    6  A    between atoms: P_5  and  C_11
REMARK    7  A    between atoms: O_7  and  C_8
REMARK    8  A    between atoms: C_8  and  C_9
REMARK    9  A    between atoms: C_8  and  C_10
REMARK   10  A    between atoms: C_12  and  C_13
REMARK   11  A    between atoms: C_15  and  N_16
REMARK   12  A    between atoms: C_21  and  N_22
REMARK                            x       y       z     vdW  Elec       q    Type
REMARK                         _______ _______ _______ _____ _____    ______ ____
ROOT
ATOM      1  C   UNL     1      -1.432  13.121  20.919  0.00  0.00    +0.000 C 
ATOM      2  C   UNL     1      -2.140  13.625  22.186  0.00  0.00    +0.000 C 
ATOM      3  C   UNL     1      -3.490  13.644  22.314  0.00  0.00    +0.000 C 
ATOM      4  O   UNL     1      -4.338  13.216  21.315  0.00  0.00    +0.000 OA
ATOM      5  C   UNL     1      -3.832  12.668  20.172  0.00  0.00    +0.000 A 
ATOM      6  C   UNL     1      -4.794  12.166  19.282  0.00  0.00    +0.000 A 
ATOM      7  C   UNL     1      -4.409  11.536  18.100  0.00  0.00    +0.000 A 
ATOM      8  C   UNL     1      -3.050  11.448  17.804  0.00  0.00    +0.000 A 
ATOM      9  C   UNL     1      -2.092  11.997  18.676  0.00  0.00    +0.000 A 
ATOM     10  C   UNL     1      -2.464  12.589  19.900  0.00  0.00    +0.000 A 
ENDROOT
BRANCH   3  11
ATOM     11  N   UNL     1      -4.183  14.108  23.409  0.00  0.00    +0.000 N 
ATOM     12  H   UNL     1      -4.255  15.122  23.498  0.00  0.00    +0.000 HD
ATOM     13  H   UNL     1      -5.084  13.644  23.517  0.00  0.00    +0.000 HD
ENDBRANCH   3  11
BRANCH   8  14
ATOM     14  N   UNL     1      -2.609  10.746  16.589  0.00  0.00    +0.000 N 
ATOM     15  O   UNL     1      -1.781   9.834  16.722  0.00  0.00    +0.000 OA
ATOM     16  O   UNL     1      -3.077  11.119  15.506  0.00  0.00    +0.000 OA
ENDBRANCH   8  14
BRANCH   1  17
ATOM     17  P   UNL     1      -0.152  11.874  21.313  0.00  0.00    +0.000 P 
ATOM     18  O   UNL     1       0.810  13.029  21.622  0.00  0.00    +0.000 OA
BRANCH  17  19
ATOM     19  O   UNL     1       1.057  10.694  21.685  0.00  0.00    +0.000 OA
BRANCH  19  21
ATOM     20  C   UNL     1      -0.734  10.000  23.187  0.00  0.00    +0.000 C 
ATOM     21  C   UNL     1       0.514   9.572  22.420  0.00  0.00    +0.000 C 
ATOM     22  C   UNL     1       0.197   8.401  21.502  0.00  0.00    +0.000 C 
ENDBRANCH  19  21
ENDBRANCH  17  19
BRANCH  17  23
ATOM     23  O   UNL     1       0.112  11.507  19.703  0.00  0.00    +0.000 OA
BRANCH  23  24
ATOM     24  C   UNL     1       1.421  11.151  19.233  0.00  0.00    +0.000 C 
ATOM     25  C   UNL     1       1.406   9.944  18.298  0.00  0.00    +0.000 C 
ATOM     26  C   UNL     1       2.032  12.329  18.464  0.00  0.00    +0.000 C 
ENDBRANCH  23  24
ENDBRANCH  17  23
ENDBRANCH   1  17
BRANCH   2  27
ATOM     27  C   UNL     1      -1.388  14.202  23.267  0.00  0.00    +0.000 C 
ATOM     28  N   UNL     1      -0.867  14.608  24.215  0.00  0.00    +0.000 NA
ENDBRANCH   2  27
TORSDOF 8
ENDMDL
MODEL 6
REMARK VINA RESULT:      -6.2      7.025      9.751
REMARK  Name = 
REMARK  12 active torsions:
REMARK  status: ('A' for Active; 'I' for Inactive)
REMARK    1  A    between atoms: C_1  and  C_2
REMARK    2  A    between atoms: C_2  and  C_3
REMARK    3  A    between atoms: C_2  and  O_4
REMARK    4  A    between atoms: O_4  and  P_5
REMARK    5  A    between atoms: P_5  and  O_7
REMARK    6  A    between atoms: P_5  and  C_11
REMARK    7  A    between atoms: O_7  and  C_8
REMARK    8  A    between atoms: C_8  and  C_9
REMARK    9  A    between atoms: C_8  and  C_10
REMARK   10  A    between atoms: C_12  and  C_13
REMARK   11  A    between atoms: C_15  and  N_16
REMARK   12  A    between atoms: C_21  and  N_22
REMARK                            x       y       z     vdW  Elec       q    Type
REMARK                         _______ _______ _______ _____ _____    ______ ____
ROOT
ATOM      1  C   UNL     1      -1.481  13.087  21.083  0.00  0.00    +0.000 C 
ATOM      2  C   UNL     1      -2.238  13.621  22.309  0.00  0.00    +0.000 C 
ATOM      3  C   UNL     1      -3.591  13.676  22.369  0.00  0.00    +0.000 C 
ATOM      4  O   UNL     1      -4.399  13.263  21.332  0.00  0.00    +0.000 OA
ATOM      5  C   UNL     1      -3.853  12.691  20.220  0.00  0.00    +0.000 A 
ATOM      6  C   UNL     1      -4.782  12.206  19.287  0.00  0.00    +0.000 A 
ATOM      7  C   UNL     1      -4.355  11.556  18.131  0.00  0.00    +0.000 A 
ATOM      8  C   UNL     1      -2.987  11.429  17.903  0.00  0.00    +0.000 A 
ATOM      9  C   UNL     1      -2.059  11.961  18.818  0.00  0.00    +0.000 A 
ATOM     10  C   UNL     1      -2.475  12.573  20.017  0.00  0.00    +0.000 A 
ENDROOT
BRANCH   3  11
ATOM     11  N   UNL     1      -4.325  14.168  23.424  0.00  0.00    +0.000 N 
ATOM     12  H   UNL     1      -5.157  14.708  23.180  0.00  0.00    +0.000 HD
ATOM     13  H   UNL     1      -4.518  13.453  24.123  0.00  0.00    +0.000 HD
ENDBRANCH   3  11
BRANCH   8  14
ATOM     14  N   UNL     1      -2.504  10.705  16.717  0.00  0.00    +0.000 N 
ATOM     15  O   UNL     1      -2.870  11.115  15.606  0.00  0.00    +0.000 OA
ATOM     16  O   UNL     1      -1.775   9.721  16.900  0.00  0.00    +0.000 OA
ENDBRANCH   8  14
BRANCH   1  17
ATOM     17  P   UNL     1      -0.257  11.809  21.550  0.00  0.00    +0.000 P 
ATOM     18  O   UNL     1      -1.019  11.632  22.870  0.00  0.00    +0.000 OA
BRANCH  17  19
ATOM     19  O   UNL     1       0.900  10.601  21.991  0.00  0.00    +0.000 OA
BRANCH  19  21
ATOM     20  C   UNL     1      -0.269   8.509  21.548  0.00  0.00    +0.000 C 
ATOM     21  C   UNL     1       0.848   9.452  21.113  0.00  0.00    +0.000 C 
ATOM     22  C   UNL     1       0.659   9.864  19.661  0.00  0.00    +0.000 C 
ENDBRANCH  19  21
ENDBRANCH  17  19
BRANCH  17  23
ATOM     23  O   UNL     1       0.929  12.941  21.882  0.00  0.00    +0.000 OA
BRANCH  23  24
ATOM     24  C   UNL     1       1.278  13.947  20.920  0.00  0.00    +0.000 C 
ATOM     25  C   UNL     1       1.896  15.189  21.560  0.00  0.00    +0.000 C 
ATOM     26  C   UNL     1       2.296  13.380  19.923  0.00  0.00    +0.000 C 
ENDBRANCH  23  24
ENDBRANCH  17  23
ENDBRANCH   1  17
BRANCH   2  27
ATOM     27  C   UNL     1      -1.525  14.187  23.422  0.00  0.00    +0.000 C 
ATOM     28  N   UNL     1      -0.930  14.746  24.240  0.00  0.00    +0.000 NA
ENDBRANCH   2  27
TORSDOF 8
ENDMDL
MODEL 7
REMARK VINA RESULT:      -6.0      7.156     10.298
REMARK  Name = 
REMARK  12 active torsions:
REMARK  status: ('A' for Active; 'I' for Inactive)
REMARK    1  A    between atoms: C_1  and  C_2
REMARK    2  A    between atoms: C_2  and  C_3
REMARK    3  A    between atoms: C_2  and  O_4
REMARK    4  A    between atoms: O_4  and  P_5
REMARK    5  A    between atoms: P_5  and  O_7
REMARK    6  A    between atoms: P_5  and  C_11
REMARK    7  A    between atoms: O_7  and  C_8
REMARK    8  A    between atoms: C_8  and  C_9
REMARK    9  A    between atoms: C_8  and  C_10
REMARK   10  A    between atoms: C_12  and  C_13
REMARK   11  A    between atoms: C_15  and  N_16
REMARK   12  A    between atoms: C_21  and  N_22
REMARK                            x       y       z     vdW  Elec       q    Type
REMARK                         _______ _______ _______ _____ _____    ______ ____
ROOT
ATOM      1  C   UNL     1      -2.040  13.267  21.573  0.00  0.00    +0.000 C 
ATOM      2  C   UNL     1      -2.552  13.805  22.918  0.00  0.00    +0.000 C 
ATOM      3  C   UNL     1      -3.871  13.891  23.219  0.00  0.00    +0.000 C 
ATOM      4  O   UNL     1      -4.862  13.505  22.342  0.00  0.00    +0.000 OA
ATOM      5  C   UNL     1      -4.536  12.932  21.147  0.00  0.00    +0.000 A 
ATOM      6  C   UNL     1      -5.628  12.477  20.393  0.00  0.00    +0.000 A 
ATOM      7  C   UNL     1      -5.431  11.829  19.175  0.00  0.00    +0.000 A 
ATOM      8  C   UNL     1      -4.129  11.673  18.705  0.00  0.00    +0.000 A 
ATOM      9  C   UNL     1      -3.040  12.175  19.442  0.00  0.00    +0.000 A 
ATOM     10  C   UNL     1      -3.220  12.785  20.700  0.00  0.00    +0.000 A 
ENDROOT
BRANCH   3  11
ATOM     11  N   UNL     1      -4.393  14.389  24.392  0.00  0.00    +0.000 N 
ATOM     12  H   UNL     1      -5.043  13.779  24.889  0.00  0.00    +0.000 HD
ATOM     13  H   UNL     1      -3.670  14.765  25.004  0.00  0.00    +0.000 HD
ENDBRANCH   3  11
BRANCH   8  14
ATOM     14  N   UNL     1      -3.883  10.950  17.448  0.00  0.00    +0.000 N 
ATOM     15  O   UNL     1      -3.319   9.849  17.520  0.00  0.00    +0.000 OA
ATOM     16  O   UNL     1      -4.239  11.491  16.393  0.00  0.00    +0.000 OA
ENDBRANCH   8  14
BRANCH   1  17
ATOM     17  P   UNL     1      -0.782  11.958  21.807  0.00  0.00    +0.000 P 
ATOM     18  O   UNL     1      -1.410  11.667  23.176  0.00  0.00    +0.000 OA
BRANCH  17  19
ATOM     19  O   UNL     1       0.406  10.720  22.027  0.00  0.00    +0.000 OA
BRANCH  19  21
ATOM     20  C   UNL     1      -0.108   9.908  19.787  0.00  0.00    +0.000 C 
ATOM     21  C   UNL     1       0.108   9.536  21.250  0.00  0.00    +0.000 C 
ATOM     22  C   UNL     1       1.207   8.492  21.375  0.00  0.00    +0.000 C 
ENDBRANCH  19  21
ENDBRANCH  17  19
BRANCH  17  23
ATOM     23  O   UNL     1       0.437  13.061  22.113  0.00  0.00    +0.000 OA
BRANCH  23  24
ATOM     24  C   UNL     1       0.785  14.063  21.147  0.00  0.00    +0.000 C 
ATOM     25  C   UNL     1       1.882  15.005  21.639  0.00  0.00    +0.000 C 
ATOM     26  C   UNL     1       1.287  13.392  19.863  0.00  0.00    +0.000 C 
ENDBRANCH  23  24
ENDBRANCH  17  23
ENDBRANCH   1  17
BRANCH   2  27
ATOM     27  C   UNL     1      -1.639  14.345  23.888  0.00  0.00    +0.000 C 
ATOM     28  N   UNL     1      -0.941  14.896  24.626  0.00  0.00    +0.000 NA
ENDBRANCH   2  27
TORSDOF 8
ENDMDL
MODEL 8
REMARK VINA RESULT:      -6.0      7.966     11.105
REMARK  Name = 
REMARK  12 active torsions:
REMARK  status: ('A' for Active; 'I' for Inactive)
REMARK    1  A    between atoms: C_1  and  C_2
REMARK    2  A    between atoms: C_2  and  C_3
REMARK    3  A    between atoms: C_2  and  O_4
REMARK    4  A    between atoms: O_4  and  P_5
REMARK    5  A    between atoms: P_5  and  O_7
REMARK    6  A    between atoms: P_5  and  C_11
REMARK    7  A    between atoms: O_7  and  C_8
REMARK    8  A    between atoms: C_8  and  C_9
REMARK    9  A    between atoms: C_8  and  C_10
REMARK   10  A    between atoms: C_12  and  C_13
REMARK   11  A    between atoms: C_15  and  N_16
REMARK   12  A    between atoms: C_21  and  N_22
REMARK                            x       y       z     vdW  Elec       q    Type
REMARK                         _______ _______ _______ _____ _____    ______ ____
ROOT
ATOM      1  C   UNL     1      -3.198  13.260  22.087  0.00  0.00    +0.000 C 
ATOM      2  C   UNL     1      -4.054  13.403  23.354  0.00  0.00    +0.000 C 
ATOM      3  C   UNL     1      -5.377  13.107  23.384  0.00  0.00    +0.000 C 
ATOM      4  O   UNL     1      -6.063  12.656  22.277  0.00  0.00    +0.000 OA
ATOM      5  C   UNL     1      -5.400  12.407  21.111  0.00  0.00    +0.000 A 
ATOM      6  C   UNL     1      -6.184  11.843  20.094  0.00  0.00    +0.000 A 
ATOM      7  C   UNL     1      -5.617  11.495  18.869  0.00  0.00    +0.000 A 
ATOM      8  C   UNL     1      -4.264  11.751  18.664  0.00  0.00    +0.000 A 
ATOM      9  C   UNL     1      -3.492  12.362  19.670  0.00  0.00    +0.000 A 
ATOM     10  C   UNL     1      -4.039  12.671  20.932  0.00  0.00    +0.000 A 
ENDROOT
BRANCH   3  11
ATOM     11  N   UNL     1      -6.202  13.241  24.478  0.00  0.00    +0.000 N 
ATOM     12  H   UNL     1      -6.982  12.585  24.535  0.00  0.00    +0.000 HD
ATOM     13  H   UNL     1      -5.677  13.296  25.349  0.00  0.00    +0.000 HD
ENDBRANCH   3  11
BRANCH   8  14
ATOM     14  N   UNL     1      -3.624  11.350  17.401  0.00  0.00    +0.000 N 
ATOM     15  O   UNL     1      -2.388  11.415  17.338  0.00  0.00    +0.000 OA
ATOM     16  O   UNL     1      -4.359  10.989  16.473  0.00  0.00    +0.000 OA
ENDBRANCH   8  14
BRANCH   1  17
ATOM     17  P   UNL     1      -1.686  12.278  22.402  0.00  0.00    +0.000 P 
ATOM     18  O   UNL     1      -2.465  11.516  23.482  0.00  0.00    +0.000 OA
BRANCH  17  19
ATOM     19  O   UNL     1      -0.256  11.351  22.700  0.00  0.00    +0.000 OA
BRANCH  19  21
ATOM     20  C   UNL     1      -0.351  10.262  20.520  0.00  0.00    +0.000 C 
ATOM     21  C   UNL     1      -0.293  10.068  22.032  0.00  0.00    +0.000 C 
ATOM     22  C   UNL     1       0.902   9.204  22.410  0.00  0.00    +0.000 C 
ENDBRANCH  19  21
ENDBRANCH  17  19
BRANCH  17  23
ATOM     23  O   UNL     1      -0.934  13.533  23.213  0.00  0.00    +0.000 OA
BRANCH  23  24
ATOM     24  C   UNL     1      -0.645  14.772  22.548  0.00  0.00    +0.000 C 
ATOM     25  C   UNL     1      -0.421  15.928  23.522  0.00  0.00    +0.000 C 
ATOM     26  C   UNL     1       0.625  14.622  21.703  0.00  0.00    +0.000 C 
ENDBRANCH  23  24
ENDBRANCH  17  23
ENDBRANCH   1  17
BRANCH   2  27
ATOM     27  C   UNL     1      -3.498  13.965  24.556  0.00  0.00    +0.000 C 
ATOM     28  N   UNL     1      -3.172  14.455  25.549  0.00  0.00    +0.000 NA
ENDBRANCH   2  27
TORSDOF 8
ENDMDL
MODEL 9
REMARK VINA RESULT:      -5.9      2.184      5.257
REMARK  Name = 
REMARK  12 active torsions:
REMARK  status: ('A' for Active; 'I' for Inactive)
REMARK    1  A    between atoms: C_1  and  C_2
REMARK    2  A    between atoms: C_2  and  C_3
REMARK    3  A    between atoms: C_2  and  O_4
REMARK    4  A    between atoms: O_4  and  P_5
REMARK    5  A    between atoms: P_5  and  O_7
REMARK    6  A    between atoms: P_5  and  C_11
REMARK    7  A    between atoms: O_7  and  C_8
REMARK    8  A    between atoms: C_8  and  C_9
REMARK    9  A    between atoms: C_8  and  C_10
REMARK   10  A    between atoms: C_12  and  C_13
REMARK   11  A    between atoms: C_15  and  N_16
REMARK   12  A    between atoms: C_21  and  N_22
REMARK                            x       y       z     vdW  Elec       q    Type
REMARK                         _______ _______ _______ _____ _____    ______ ____
ROOT
ATOM      1  C   UNL     1       3.983   4.983  19.504  0.00  0.00    +0.000 C 
ATOM      2  C   UNL     1       3.653   3.748  20.356  0.00  0.00    +0.000 C 
ATOM      3  C   UNL     1       2.611   3.712  21.222  0.00  0.00    +0.000 C 
ATOM      4  O   UNL     1       1.763   4.782  21.412  0.00  0.00    +0.000 OA
ATOM      5  C   UNL     1       1.899   5.909  20.655  0.00  0.00    +0.000 A 
ATOM      6  C   UNL     1       0.908   6.881  20.860  0.00  0.00    +0.000 A 
ATOM      7  C   UNL     1       0.902   8.059  20.114  0.00  0.00    +0.000 A 
ATOM      8  C   UNL     1       1.921   8.266  19.186  0.00  0.00    +0.000 A 
ATOM      9  C   UNL     1       2.940   7.309  19.020  0.00  0.00    +0.000 A 
ATOM     10  C   UNL     1       2.929   6.091  19.728  0.00  0.00    +0.000 A 
ENDROOT
BRANCH   3  11
ATOM     11  N   UNL     1       2.281   2.649  22.032  0.00  0.00    +0.000 N 
ATOM     12  H   UNL     1       1.475   2.783  22.644  0.00  0.00    +0.000 HD
ATOM     13  H   UNL     1       2.232   1.773  21.514  0.00  0.00    +0.000 HD
ENDBRANCH   3  11
BRANCH   8  14
ATOM     14  N   UNL     1       1.916   9.475  18.348  0.00  0.00    +0.000 N 
ATOM     15  O   UNL     1       2.373   9.379  17.201  0.00  0.00    +0.000 OA
ATOM     16  O   UNL     1       1.471  10.518  18.845  0.00  0.00    +0.000 OA
ENDBRANCH   8  14
BRANCH   1  17
ATOM     17  P   UNL     1       4.158   4.553  17.733  0.00  0.00    +0.000 P 
ATOM     18  O   UNL     1       4.523   6.020  17.464  0.00  0.00    +0.000 OA
BRANCH  17  19
ATOM     19  O   UNL     1       4.323   4.147  16.060  0.00  0.00    +0.000 OA
BRANCH  19  21
ATOM     20  C   UNL     1       6.740   4.237  16.364  0.00  0.00    +0.000 C 
ATOM     21  C   UNL     1       5.556   4.653  15.497  0.00  0.00    +0.000 C 
ATOM     22  C   UNL     1       5.755   4.179  14.065  0.00  0.00    +0.000 C 
ENDBRANCH  19  21
ENDBRANCH  17  19
BRANCH  17  23
ATOM     23  O   UNL     1       2.504   4.468  17.500  0.00  0.00    +0.000 OA
BRANCH  23  24
ATOM     24  C   UNL     1       1.842   3.200  17.370  0.00  0.00    +0.000 C 
ATOM     25  C   UNL     1       2.797   2.017  17.512  0.00  0.00    +0.000 C 
ATOM     26  C   UNL     1       0.767   3.065  18.455  0.00  0.00    +0.000 C 
ENDBRANCH  23  24
ENDBRANCH  17  23
ENDBRANCH   1  17
BRANCH   2  27
ATOM     27  C   UNL     1       4.514   2.596  20.343  0.00  0.00    +0.000 C 
ATOM     28  N   UNL     1       5.186   1.664  20.461  0.00  0.00    +0.000 NA
ENDBRANCH   2  27
TORSDOF 8
ENDMDL
