MODEL 1
REMARK VINA RESULT:      -7.8      0.000      0.000
REMARK  Name = 
REMARK  6 active torsions:
REMARK  status: ('A' for Active; 'I' for Inactive)
REMARK    1  A    between atoms: C_8  and  C_9
REMARK    2  A    between atoms: C_12  and  C_13
REMARK    3  A    between atoms: N_20  and  C_21
REMARK    4  A    between atoms: C_21  and  C_22
REMARK    5  A    between atoms: C_22  and  C_23
REMARK    6  A    between atoms: C_23  and  O_24
REMARK                            x       y       z     vdW  Elec       q    Type
REMARK                         _______ _______ _______ _____ _____    ______ ____
ROOT
ATOM      1  C   UNL     1      -0.010  10.676  19.246  0.00  0.00    +0.000 A 
ATOM      2  C   UNL     1       0.042  10.090  20.493  0.00  0.00    +0.000 A 
ATOM      3  C   UNL     1       0.900   8.955  20.523  0.00  0.00    +0.000 A 
ATOM      4  C   UNL     1       1.487   8.686  19.299  0.00  0.00    +0.000 A 
ATOM      5  S   UNL     1       0.981   9.831  18.127  0.00  0.00    +0.000 S 
ENDROOT
BRANCH   1  13
ATOM      6  O   UNL     1       2.093  12.820  19.765  0.00  0.00    +0.000 OA
ATOM      7  C   UNL     1       1.158  13.502  19.396  0.00  0.00    +0.000 C 
ATOM      8  N   UNL     1       1.124  14.870  19.308  0.00  0.00    +0.000 N 
ATOM      9  C   UNL     1      -0.077  15.308  18.821  0.00  0.00    +0.000 C 
ATOM     10  S   UNL     1      -0.510  16.878  18.576  0.00  0.00    +0.000 S 
ATOM     11  N   UNL     1      -0.873  14.207  18.572  0.00  0.00    +0.000 N 
ATOM     12  C   UNL     1      -0.198  13.061  18.919  0.00  0.00    +0.000 C 
ATOM     13  C   UNL     1      -0.718  11.833  18.834  0.00  0.00    +0.000 C 
ATOM     14  H   UNL     1       1.897  15.460  19.567  0.00  0.00    +0.000 HD
ATOM     15  H   UNL     1      -1.819  14.258  18.221  0.00  0.00    +0.000 HD
ENDBRANCH   1  13
BRANCH   4  16
ATOM     16  C   UNL     1       2.418   7.592  18.966  0.00  0.00    +0.000 A 
ATOM     17  C   UNL     1       2.484   6.469  19.830  0.00  0.00    +0.000 A 
ATOM     18  C   UNL     1       3.414   5.447  19.635  0.00  0.00    +0.000 A 
ATOM     19  C   UNL     1       4.263   5.567  18.557  0.00  0.00    +0.000 A 
ATOM     20  C   UNL     1       4.209   6.638  17.668  0.00  0.00    +0.000 A 
ATOM     21  C   UNL     1       3.287   7.659  17.858  0.00  0.00    +0.000 A 
ATOM     22  C   UNL     1       5.256   6.478  16.615  0.00  0.00    +0.000 C 
ATOM     23  N   UNL     1       5.918   5.245  17.019  0.00  0.00    +0.000 N 
ATOM     24  C   UNL     1       5.350   4.675  18.145  0.00  0.00    +0.000 C 
ATOM     25  O   UNL     1       5.664   3.649  18.716  0.00  0.00    +0.000 OA
BRANCH  23  26
ATOM     26  C   UNL     1       6.989   4.630  16.261  0.00  0.00    +0.000 C 
BRANCH  26  27
ATOM     27  C   UNL     1       6.856   4.815  14.754  0.00  0.00    +0.000 C 
BRANCH  27  28
ATOM     28  C   UNL     1       5.784   3.927  14.137  0.00  0.00    +0.000 C 
BRANCH  28  29
ATOM     29  O   UNL     1       6.347   3.203  13.047  0.00  0.00    +0.000 OA
ATOM     30  H   UNL     1       5.649   3.083  12.381  0.00  0.00    +0.000 HD
ENDBRANCH  28  29
ENDBRANCH  27  28
ENDBRANCH  26  27
ENDBRANCH  23  26
ENDBRANCH   4  16
TORSDOF 6
ENDMDL
MODEL 2
REMARK VINA RESULT:      -7.6      1.860      1.963
REMARK  Name = 
REMARK  6 active torsions:
REMARK  status: ('A' for Active; 'I' for Inactive)
REMARK    1  A    between atoms: C_8  and  C_9
REMARK    2  A    between atoms: C_12  and  C_13
REMARK    3  A    between atoms: N_20  and  C_21
REMARK    4  A    between atoms: C_21  and  C_22
REMARK    5  A    between atoms: C_22  and  C_23
REMARK    6  A    between atoms: C_23  and  O_24
REMARK                            x       y       z     vdW  Elec       q    Type
REMARK                         _______ _______ _______ _____ _____    ______ ____
ROOT
ATOM      1  C   UNL     1      -0.213  10.636  20.029  0.00  0.00    +0.000 A 
ATOM      2  C   UNL     1      -0.192  10.690  18.651  0.00  0.00    +0.000 A 
ATOM      3  C   UNL     1       0.668   9.708  18.084  0.00  0.00    +0.000 A 
ATOM      4  C   UNL     1       1.294   8.920  19.034  0.00  0.00    +0.000 A 
ATOM      5  S   UNL     1       0.819   9.394  20.612  0.00  0.00    +0.000 S 
ENDROOT
BRANCH   1  13
ATOM      6  O   UNL     1       1.670  13.003  20.402  0.00  0.00    +0.000 OA
ATOM      7  C   UNL     1       0.778  13.296  21.174  0.00  0.00    +0.000 C 
ATOM      8  N   UNL     1       0.729  14.395  21.992  0.00  0.00    +0.000 N 
ATOM      9  C   UNL     1      -0.438  14.434  22.704  0.00  0.00    +0.000 C 
ATOM     10  S   UNL     1      -0.869  15.588  23.798  0.00  0.00    +0.000 S 
ATOM     11  N   UNL     1      -1.196  13.333  22.356  0.00  0.00    +0.000 N 
ATOM     12  C   UNL     1      -0.513  12.573  21.439  0.00  0.00    +0.000 C 
ATOM     13  C   UNL     1      -0.966  11.419  20.938  0.00  0.00    +0.000 C 
ATOM     14  H   UNL     1       1.465  15.080  22.043  0.00  0.00    +0.000 HD
ATOM     15  H   UNL     1      -2.100  13.119  22.754  0.00  0.00    +0.000 HD
ENDBRANCH   1  13
BRANCH   4  16
ATOM     16  C   UNL     1       2.248   7.819  18.807  0.00  0.00    +0.000 A 
ATOM     17  C   UNL     1       2.348   6.793  19.781  0.00  0.00    +0.000 A 
ATOM     18  C   UNL     1       3.300   5.777  19.684  0.00  0.00    +0.000 A 
ATOM     19  C   UNL     1       4.137   5.805  18.591  0.00  0.00    +0.000 A 
ATOM     20  C   UNL     1       4.051   6.776  17.596  0.00  0.00    +0.000 A 
ATOM     21  C   UNL     1       3.107   7.791  17.689  0.00  0.00    +0.000 A 
ATOM     22  C   UNL     1       5.094   6.532  16.555  0.00  0.00    +0.000 C 
ATOM     23  N   UNL     1       5.788   5.362  17.077  0.00  0.00    +0.000 N 
ATOM     24  C   UNL     1       5.241   4.900  18.261  0.00  0.00    +0.000 C 
ATOM     25  O   UNL     1       5.583   3.945  18.932  0.00  0.00    +0.000 OA
BRANCH  23  26
ATOM     26  C   UNL     1       6.866   4.696  16.376  0.00  0.00    +0.000 C 
BRANCH  26  27
ATOM     27  C   UNL     1       6.390   3.679  15.345  0.00  0.00    +0.000 C 
BRANCH  27  28
ATOM     28  C   UNL     1       6.447   4.207  13.917  0.00  0.00    +0.000 C 
BRANCH  28  29
ATOM     29  O   UNL     1       6.268   3.123  13.011  0.00  0.00    +0.000 OA
ATOM     30  H   UNL     1       5.892   2.379  13.511  0.00  0.00    +0.000 HD
ENDBRANCH  28  29
ENDBRANCH  27  28
ENDBRANCH  26  27
ENDBRANCH  23  26
ENDBRANCH   4  16
TORSDOF 6
ENDMDL
MODEL 3
REMARK VINA RESULT:      -7.4      3.468      4.678
REMARK  Name = 
REMARK  6 active torsions:
REMARK  status: ('A' for Active; 'I' for Inactive)
REMARK    1  A    between atoms: C_8  and  C_9
REMARK    2  A    between atoms: C_12  and  C_13
REMARK    3  A    between atoms: N_20  and  C_21
REMARK    4  A    between atoms: C_21  and  C_22
REMARK    5  A    between atoms: C_22  and  C_23
REMARK    6  A    between atoms: C_23  and  O_24
REMARK                            x       y       z     vdW  Elec       q    Type
REMARK                         _______ _______ _______ _____ _____    ______ ____
ROOT
ATOM      1  C   UNL     1      -1.082  12.049  20.170  0.00  0.00    +0.000 A 
ATOM      2  C   UNL     1       0.174  12.617  20.226  0.00  0.00    +0.000 A 
ATOM      3  C   UNL     1       1.203  11.688  19.907  0.00  0.00    +0.000 A 
ATOM      4  C   UNL     1       0.722  10.423  19.617  0.00  0.00    +0.000 A 
ATOM      5  S   UNL     1      -0.988  10.390  19.736  0.00  0.00    +0.000 S 
ENDROOT
BRANCH   1  13
ATOM      6  O   UNL     1      -1.488  11.432  23.127  0.00  0.00    +0.000 OA
ATOM      7  C   UNL     1      -2.536  11.988  22.863  0.00  0.00    +0.000 C 
ATOM      8  N   UNL     1      -3.589  12.200  23.715  0.00  0.00    +0.000 N 
ATOM      9  C   UNL     1      -4.597  12.888  23.098  0.00  0.00    +0.000 C 
ATOM     10  S   UNL     1      -6.030  13.329  23.780  0.00  0.00    +0.000 S 
ATOM     11  N   UNL     1      -4.214  13.147  21.796  0.00  0.00    +0.000 N 
ATOM     12  C   UNL     1      -2.971  12.609  21.565  0.00  0.00    +0.000 C 
ATOM     13  C   UNL     1      -2.344  12.656  20.386  0.00  0.00    +0.000 C 
ATOM     14  H   UNL     1      -3.598  11.889  24.672  0.00  0.00    +0.000 HD
ATOM     15  H   UNL     1      -4.790  13.631  21.121  0.00  0.00    +0.000 HD
ENDBRANCH   1  13
BRANCH   4  16
ATOM     16  C   UNL     1       1.499   9.223  19.254  0.00  0.00    +0.000 A 
ATOM     17  C   UNL     1       2.084   9.156  17.964  0.00  0.00    +0.000 A 
ATOM     18  C   UNL     1       2.744   8.011  17.514  0.00  0.00    +0.000 A 
ATOM     19  C   UNL     1       2.814   6.946  18.384  0.00  0.00    +0.000 A 
ATOM     20  C   UNL     1       2.281   6.983  19.671  0.00  0.00    +0.000 A 
ATOM     21  C   UNL     1       1.621   8.119  20.122  0.00  0.00    +0.000 A 
ATOM     22  C   UNL     1       2.518   5.678  20.358  0.00  0.00    +0.000 C 
ATOM     23  N   UNL     1       3.197   4.903  19.328  0.00  0.00    +0.000 N 
ATOM     24  C   UNL     1       3.402   5.622  18.164  0.00  0.00    +0.000 C 
ATOM     25  O   UNL     1       3.946   5.264  17.137  0.00  0.00    +0.000 OA
BRANCH  23  26
ATOM     26  C   UNL     1       3.695   3.559  19.540  0.00  0.00    +0.000 C 
BRANCH  26  27
ATOM     27  C   UNL     1       2.670   2.617  20.159  0.00  0.00    +0.000 C 
BRANCH  27  28
ATOM     28  C   UNL     1       1.410   2.472  19.316  0.00  0.00    +0.000 C 
BRANCH  28  29
ATOM     29  O   UNL     1       0.307   3.031  20.023  0.00  0.00    +0.000 OA
ATOM     30  H   UNL     1      -0.504   2.628  19.671  0.00  0.00    +0.000 HD
ENDBRANCH  28  29
ENDBRANCH  27  28
ENDBRANCH  26  27
ENDBRANCH  23  26
ENDBRANCH   4  16
TORSDOF 6
ENDMDL
MODEL 4
REMARK VINA RESULT:      -7.4      1.183      1.351
REMARK  Name = 
REMARK  6 active torsions:
REMARK  status: ('A' for Active; 'I' for Inactive)
REMARK    1  A    between atoms: C_8  and  C_9
REMARK    2  A    between atoms: C_12  and  C_13
REMARK    3  A    between atoms: N_20  and  C_21
REMARK    4  A    between atoms: C_21  and  C_22
REMARK    5  A    between atoms: C_22  and  C_23
REMARK    6  A    between atoms: C_23  and  O_24
REMARK                            x       y       z     vdW  Elec       q    Type
REMARK                         _______ _______ _______ _____ _____    ______ ____
ROOT
ATOM      1  C   UNL     1      -0.316  11.377  20.295  0.00  0.00    +0.000 A 
ATOM      2  C   UNL     1       0.135  10.989  21.539  0.00  0.00    +0.000 A 
ATOM      3  C   UNL     1       0.864   9.767  21.494  0.00  0.00    +0.000 A 
ATOM      4  C   UNL     1       0.955   9.236  20.220  0.00  0.00    +0.000 A 
ATOM      5  S   UNL     1       0.149  10.244  19.091  0.00  0.00    +0.000 S 
ENDROOT
BRANCH   1  13
ATOM      6  O   UNL     1       1.969  13.193  19.419  0.00  0.00    +0.000 OA
ATOM      7  C   UNL     1       1.021  13.943  19.297  0.00  0.00    +0.000 C 
ATOM      8  N   UNL     1       1.059  15.257  18.907  0.00  0.00    +0.000 N 
ATOM      9  C   UNL     1      -0.197  15.794  18.843  0.00  0.00    +0.000 C 
ATOM     10  S   UNL     1      -0.571  17.342  18.423  0.00  0.00    +0.000 S 
ATOM     11  N   UNL     1      -1.106  14.816  19.197  0.00  0.00    +0.000 N 
ATOM     12  C   UNL     1      -0.439  13.657  19.511  0.00  0.00    +0.000 C 
ATOM     13  C   UNL     1      -1.040  12.540  19.933  0.00  0.00    +0.000 C 
ATOM     14  H   UNL     1       1.912  15.746  18.693  0.00  0.00    +0.000 HD
ATOM     15  H   UNL     1      -2.105  14.961  19.245  0.00  0.00    +0.000 HD
ENDBRANCH   1  13
BRANCH   4  16
ATOM     16  C   UNL     1       1.626   7.989  19.808  0.00  0.00    +0.000 A 
ATOM     17  C   UNL     1       1.541   6.857  20.659  0.00  0.00    +0.000 A 
ATOM     18  C   UNL     1       2.235   5.678  20.386  0.00  0.00    +0.000 A 
ATOM     19  C   UNL     1       3.003   5.653  19.243  0.00  0.00    +0.000 A 
ATOM     20  C   UNL     1       3.088   6.730  18.365  0.00  0.00    +0.000 A 
ATOM     21  C   UNL     1       2.402   7.908  18.633  0.00  0.00    +0.000 A 
ATOM     22  C   UNL     1       3.998   6.391  17.230  0.00  0.00    +0.000 C 
ATOM     23  N   UNL     1       4.437   5.045  17.574  0.00  0.00    +0.000 N 
ATOM     24  C   UNL     1       3.859   4.575  18.740  0.00  0.00    +0.000 C 
ATOM     25  O   UNL     1       4.011   3.497  19.280  0.00  0.00    +0.000 OA
BRANCH  23  26
ATOM     26  C   UNL     1       5.303   4.249  16.729  0.00  0.00    +0.000 C 
BRANCH  26  27
ATOM     27  C   UNL     1       5.543   4.857  15.352  0.00  0.00    +0.000 C 
BRANCH  27  28
ATOM     28  C   UNL     1       6.806   4.333  14.681  0.00  0.00    +0.000 C 
BRANCH  28  29
ATOM     29  O   UNL     1       7.694   5.421  14.444  0.00  0.00    +0.000 OA
ATOM     30  H   UNL     1       8.055   5.700  15.303  0.00  0.00    +0.000 HD
ENDBRANCH  28  29
ENDBRANCH  27  28
ENDBRANCH  26  27
ENDBRANCH  23  26
ENDBRANCH   4  16
TORSDOF 6
ENDMDL
MODEL 5
REMARK VINA RESULT:      -7.3      3.238      4.276
REMARK  Name = 
REMARK  6 active torsions:
REMARK  status: ('A' for Active; 'I' for Inactive)
REMARK    1  A    between atoms: C_8  and  C_9
REMARK    2  A    between atoms: C_12  and  C_13
REMARK    3  A    between atoms: N_20  and  C_21
REMARK    4  A    between atoms: C_21  and  C_22
REMARK    5  A    between atoms: C_22  and  C_23
REMARK    6  A    between atoms: C_23  and  O_24
REMARK                            x       y       z     vdW  Elec       q    Type
REMARK                         _______ _______ _______ _____ _____    ______ ____
ROOT
ATOM      1  C   UNL     1      -1.169  12.021  19.778  0.00  0.00    +0.000 A 
ATOM      2  C   UNL     1       0.065  12.638  19.805  0.00  0.00    +0.000 A 
ATOM      3  C   UNL     1       1.129  11.730  19.549  0.00  0.00    +0.000 A 
ATOM      4  C   UNL     1       0.697  10.432  19.335  0.00  0.00    +0.000 A 
ATOM      5  S   UNL     1      -1.011  10.344  19.448  0.00  0.00    +0.000 S 
ENDROOT
BRANCH   1  13
ATOM      6  O   UNL     1      -1.547  11.626  22.777  0.00  0.00    +0.000 OA
ATOM      7  C   UNL     1      -2.616  12.117  22.474  0.00  0.00    +0.000 C 
ATOM      8  N   UNL     1      -3.676  12.355  23.311  0.00  0.00    +0.000 N 
ATOM      9  C   UNL     1      -4.712  12.951  22.645  0.00  0.00    +0.000 C 
ATOM     10  S   UNL     1      -6.160  13.388  23.296  0.00  0.00    +0.000 S 
ATOM     11  N   UNL     1      -4.340  13.121  21.326  0.00  0.00    +0.000 N 
ATOM     12  C   UNL     1      -3.078  12.616  21.133  0.00  0.00    +0.000 C 
ATOM     13  C   UNL     1      -2.454  12.594  19.951  0.00  0.00    +0.000 C 
ATOM     14  H   UNL     1      -3.672  12.121  24.290  0.00  0.00    +0.000 HD
ATOM     15  H   UNL     1      -4.936  13.526  20.617  0.00  0.00    +0.000 HD
ENDBRANCH   1  13
BRANCH   4  16
ATOM     16  C   UNL     1       1.521   9.243  19.050  0.00  0.00    +0.000 A 
ATOM     17  C   UNL     1       2.159   9.143  17.787  0.00  0.00    +0.000 A 
ATOM     18  C   UNL     1       2.866   8.001  17.409  0.00  0.00    +0.000 A 
ATOM     19  C   UNL     1       2.930   6.972  18.323  0.00  0.00    +0.000 A 
ATOM     20  C   UNL     1       2.346   7.043  19.585  0.00  0.00    +0.000 A 
ATOM     21  C   UNL     1       1.637   8.176  19.965  0.00  0.00    +0.000 A 
ATOM     22  C   UNL     1       2.589   5.773  20.331  0.00  0.00    +0.000 C 
ATOM     23  N   UNL     1       3.330   4.978  19.360  0.00  0.00    +0.000 N 
ATOM     24  C   UNL     1       3.562   5.658  18.177  0.00  0.00    +0.000 C 
ATOM     25  O   UNL     1       4.156   5.277  17.188  0.00  0.00    +0.000 OA
BRANCH  23  26
ATOM     26  C   UNL     1       3.856   3.659  19.645  0.00  0.00    +0.000 C 
BRANCH  26  27
ATOM     27  C   UNL     1       2.848   2.538  19.420  0.00  0.00    +0.000 C 
BRANCH  27  28
ATOM     28  C   UNL     1       3.069   1.793  18.109  0.00  0.00    +0.000 C 
BRANCH  28  29
ATOM     29  O   UNL     1       3.966   0.710  18.332  0.00  0.00    +0.000 OA
ATOM     30  H   UNL     1       4.610   0.994  19.002  0.00  0.00    +0.000 HD
ENDBRANCH  28  29
ENDBRANCH  27  28
ENDBRANCH  26  27
ENDBRANCH  23  26
ENDBRANCH   4  16
TORSDOF 6
ENDMDL
MODEL 6
REMARK VINA RESULT:      -7.3      2.752      3.296
REMARK  Name = 
REMARK  6 active torsions:
REMARK  status: ('A' for Active; 'I' for Inactive)
REMARK    1  A    between atoms: C_8  and  C_9
REMARK    2  A    between atoms: C_12  and  C_13
REMARK    3  A    between atoms: N_20  and  C_21
REMARK    4  A    between atoms: C_21  and  C_22
REMARK    5  A    between atoms: C_22  and  C_23
REMARK    6  A    between atoms: C_23  and  O_24
REMARK                            x       y       z     vdW  Elec       q    Type
REMARK                         _______ _______ _______ _____ _____    ______ ____
ROOT
ATOM      1  C   UNL     1      -0.556  11.491  19.729  0.00  0.00    +0.000 A 
ATOM      2  C   UNL     1       0.464  11.978  18.939  0.00  0.00    +0.000 A 
ATOM      3  C   UNL     1       1.406  10.970  18.590  0.00  0.00    +0.000 A 
ATOM      4  C   UNL     1       1.097   9.730  19.120  0.00  0.00    +0.000 A 
ATOM      5  S   UNL     1      -0.349   9.815  20.039  0.00  0.00    +0.000 S 
ENDROOT
BRANCH   1  13
ATOM      6  O   UNL     1      -2.613  10.843  17.574  0.00  0.00    +0.000 OA
ATOM      7  C   UNL     1      -3.261  11.574  18.298  0.00  0.00    +0.000 C 
ATOM      8  N   UNL     1      -4.555  11.985  18.102  0.00  0.00    +0.000 N 
ATOM      9  C   UNL     1      -4.986  12.776  19.131  0.00  0.00    +0.000 C 
ATOM     10  S   UNL     1      -6.474  13.471  19.262  0.00  0.00    +0.000 S 
ATOM     11  N   UNL     1      -3.958  12.900  20.045  0.00  0.00    +0.000 N 
ATOM     12  C   UNL     1      -2.858  12.211  19.598  0.00  0.00    +0.000 C 
ATOM     13  C   UNL     1      -1.687  12.174  20.243  0.00  0.00    +0.000 C 
ATOM     14  H   UNL     1      -5.103  11.722  17.300  0.00  0.00    +0.000 HD
ATOM     15  H   UNL     1      -4.016  13.448  20.892  0.00  0.00    +0.000 HD
ENDBRANCH   1  13
BRANCH   4  16
ATOM     16  C   UNL     1       1.849   8.470  18.969  0.00  0.00    +0.000 A 
ATOM     17  C   UNL     1       1.815   7.526  20.028  0.00  0.00    +0.000 A 
ATOM     18  C   UNL     1       2.585   6.363  19.999  0.00  0.00    +0.000 A 
ATOM     19  C   UNL     1       3.375   6.160  18.889  0.00  0.00    +0.000 A 
ATOM     20  C   UNL     1       3.412   7.046  17.815  0.00  0.00    +0.000 A 
ATOM     21  C   UNL     1       2.651   8.208  17.840  0.00  0.00    +0.000 A 
ATOM     22  C   UNL     1       4.363   6.548  16.777  0.00  0.00    +0.000 C 
ATOM     23  N   UNL     1       4.875   5.326  17.384  0.00  0.00    +0.000 N 
ATOM     24  C   UNL     1       4.304   5.061  18.616  0.00  0.00    +0.000 C 
ATOM     25  O   UNL     1       4.510   4.122  19.361  0.00  0.00    +0.000 OA
BRANCH  23  26
ATOM     26  C   UNL     1       5.805   4.435  16.721  0.00  0.00    +0.000 C 
BRANCH  26  27
ATOM     27  C   UNL     1       7.267   4.762  16.994  0.00  0.00    +0.000 C 
BRANCH  27  28
ATOM     28  C   UNL     1       7.455   6.087  17.721  0.00  0.00    +0.000 C 
BRANCH  28  29
ATOM     29  O   UNL     1       7.805   7.093  16.776  0.00  0.00    +0.000 OA
ATOM     30  H   UNL     1       8.138   6.647  15.979  0.00  0.00    +0.000 HD
ENDBRANCH  28  29
ENDBRANCH  27  28
ENDBRANCH  26  27
ENDBRANCH  23  26
ENDBRANCH   4  16
TORSDOF 6
ENDMDL
MODEL 7
REMARK VINA RESULT:      -7.2      2.386      2.779
REMARK  Name = 
REMARK  6 active torsions:
REMARK  status: ('A' for Active; 'I' for Inactive)
REMARK    1  A    between atoms: C_8  and  C_9
REMARK    2  A    between atoms: C_12  and  C_13
REMARK    3  A    between atoms: N_20  and  C_21
REMARK    4  A    between atoms: C_21  and  C_22
REMARK    5  A    between atoms: C_22  and  C_23
REMARK    6  A    between atoms: C_23  and  O_24
REMARK                            x       y       z     vdW  Elec       q    Type
REMARK                         _______ _______ _______ _____ _____    ______ ____
ROOT
ATOM      1  C   UNL     1      -0.226  11.316  20.315  0.00  0.00    +0.000 A 
ATOM      2  C   UNL     1       0.592  11.764  19.298  0.00  0.00    +0.000 A 
ATOM      3  C   UNL     1       1.433  10.737  18.787  0.00  0.00    +0.000 A 
ATOM      4  C   UNL     1       1.251   9.520  19.421  0.00  0.00    +0.000 A 
ATOM      5  S   UNL     1       0.048   9.651  20.635  0.00  0.00    +0.000 S 
ENDROOT
BRANCH   1  13
ATOM      6  O   UNL     1      -2.486  11.358  18.270  0.00  0.00    +0.000 OA
ATOM      7  C   UNL     1      -2.977  12.013  19.168  0.00  0.00    +0.000 C 
ATOM      8  N   UNL     1      -4.209  12.616  19.165  0.00  0.00    +0.000 N 
ATOM      9  C   UNL     1      -4.458  13.244  20.354  0.00  0.00    +0.000 C 
ATOM     10  S   UNL     1      -5.821  14.085  20.739  0.00  0.00    +0.000 S 
ATOM     11  N   UNL     1      -3.367  13.060  21.180  0.00  0.00    +0.000 N 
ATOM     12  C   UNL     1      -2.406  12.334  20.521  0.00  0.00    +0.000 C 
ATOM     13  C   UNL     1      -1.213  12.026  21.042  0.00  0.00    +0.000 C 
ATOM     14  H   UNL     1      -4.839  12.583  18.381  0.00  0.00    +0.000 HD
ATOM     15  H   UNL     1      -3.292  13.439  22.114  0.00  0.00    +0.000 HD
ENDBRANCH   1  13
BRANCH   4  16
ATOM     16  C   UNL     1       1.952   8.250  19.154  0.00  0.00    +0.000 A 
ATOM     17  C   UNL     1       1.839   7.199  20.100  0.00  0.00    +0.000 A 
ATOM     18  C   UNL     1       2.557   6.010  19.966  0.00  0.00    +0.000 A 
ATOM     19  C   UNL     1       3.377   5.892  18.865  0.00  0.00    +0.000 A 
ATOM     20  C   UNL     1       3.490   6.887  17.897  0.00  0.00    +0.000 A 
ATOM     21  C   UNL     1       2.781   8.074  18.027  0.00  0.00    +0.000 A 
ATOM     22  C   UNL     1       4.454   6.460  16.839  0.00  0.00    +0.000 C 
ATOM     23  N   UNL     1       4.890   5.157  17.323  0.00  0.00    +0.000 N 
ATOM     24  C   UNL     1       4.265   4.786  18.500  0.00  0.00    +0.000 C 
ATOM     25  O   UNL     1       4.402   3.763  19.142  0.00  0.00    +0.000 OA
BRANCH  23  26
ATOM     26  C   UNL     1       5.802   4.300  16.593  0.00  0.00    +0.000 C 
BRANCH  26  27
ATOM     27  C   UNL     1       6.854   5.062  15.797  0.00  0.00    +0.000 C 
BRANCH  27  28
ATOM     28  C   UNL     1       6.842   4.720  14.313  0.00  0.00    +0.000 C 
BRANCH  28  29
ATOM     29  O   UNL     1       6.180   3.472  14.126  0.00  0.00    +0.000 OA
ATOM     30  H   UNL     1       6.714   2.787  14.563  0.00  0.00    +0.000 HD
ENDBRANCH  28  29
ENDBRANCH  27  28
ENDBRANCH  26  27
ENDBRANCH  23  26
ENDBRANCH   4  16
TORSDOF 6
ENDMDL
MODEL 8
REMARK VINA RESULT:      -7.2      1.307      1.373
REMARK  Name = 
REMARK  6 active torsions:
REMARK  status: ('A' for Active; 'I' for Inactive)
REMARK    1  A    between atoms: C_8  and  C_9
REMARK    2  A    between atoms: C_12  and  C_13
REMARK    3  A    between atoms: N_20  and  C_21
REMARK    4  A    between atoms: C_21  and  C_22
REMARK    5  A    between atoms: C_22  and  C_23
REMARK    6  A    between atoms: C_23  and  O_24
REMARK                            x       y       z     vdW  Elec       q    Type
REMARK                         _______ _______ _______ _____ _____    ______ ____
ROOT
ATOM      1  C   UNL     1      -0.310  10.677  20.541  0.00  0.00    +0.000 A 
ATOM      2  C   UNL     1      -0.234   9.945  21.708  0.00  0.00    +0.000 A 
ATOM      3  C   UNL     1       0.550   8.767  21.558  0.00  0.00    +0.000 A 
ATOM      4  C   UNL     1       1.058   8.612  20.280  0.00  0.00    +0.000 A 
ATOM      5  S   UNL     1       0.569   9.915  19.278  0.00  0.00    +0.000 S 
ENDROOT
BRANCH   1  13
ATOM      6  O   UNL     1       1.918  12.622  21.278  0.00  0.00    +0.000 OA
ATOM      7  C   UNL     1       1.013  13.393  21.029  0.00  0.00    +0.000 C 
ATOM      8  N   UNL     1       1.052  14.761  21.123  0.00  0.00    +0.000 N 
ATOM      9  C   UNL     1      -0.133  15.320  20.733  0.00  0.00    +0.000 C 
ATOM     10  S   UNL     1      -0.486  16.929  20.710  0.00  0.00    +0.000 S 
ATOM     11  N   UNL     1      -0.993  14.305  20.364  0.00  0.00    +0.000 N 
ATOM     12  C   UNL     1      -0.375  13.090  20.537  0.00  0.00    +0.000 C 
ATOM     13  C   UNL     1      -0.963  11.912  20.306  0.00  0.00    +0.000 C 
ATOM     14  H   UNL     1       1.861  15.271  21.436  0.00  0.00    +0.000 HD
ATOM     15  H   UNL     1      -1.943  14.451  20.050  0.00  0.00    +0.000 HD
ENDBRANCH   1  13
BRANCH   4  16
ATOM     16  C   UNL     1       1.901   7.513  19.771  0.00  0.00    +0.000 A 
ATOM     17  C   UNL     1       1.951   6.299  20.503  0.00  0.00    +0.000 A 
ATOM     18  C   UNL     1       2.805   5.257  20.139  0.00  0.00    +0.000 A 
ATOM     19  C   UNL     1       3.594   5.451  19.027  0.00  0.00    +0.000 A 
ATOM     20  C   UNL     1       3.551   6.615  18.263  0.00  0.00    +0.000 A 
ATOM     21  C   UNL     1       2.705   7.657  18.622  0.00  0.00    +0.000 A 
ATOM     22  C   UNL     1       4.522   6.518  17.133  0.00  0.00    +0.000 C 
ATOM     23  N   UNL     1       5.132   5.214  17.358  0.00  0.00    +0.000 N 
ATOM     24  C   UNL     1       4.599   4.554  18.451  0.00  0.00    +0.000 C 
ATOM     25  O   UNL     1       4.884   3.456  18.887  0.00  0.00    +0.000 OA
BRANCH  23  26
ATOM     26  C   UNL     1       6.117   4.631  16.469  0.00  0.00    +0.000 C 
BRANCH  26  27
ATOM     27  C   UNL     1       5.549   4.206  15.121  0.00  0.00    +0.000 C 
BRANCH  27  28
ATOM     28  C   UNL     1       6.538   4.381  13.976  0.00  0.00    +0.000 C 
BRANCH  28  29
ATOM     29  O   UNL     1       7.600   5.230  14.401  0.00  0.00    +0.000 OA
ATOM     30  H   UNL     1       8.417   4.704  14.399  0.00  0.00    +0.000 HD
ENDBRANCH  28  29
ENDBRANCH  27  28
ENDBRANCH  26  27
ENDBRANCH  23  26
ENDBRANCH   4  16
TORSDOF 6
ENDMDL
MODEL 9
REMARK VINA RESULT:      -7.2      3.246      4.280
REMARK  Name = 
REMARK  6 active torsions:
REMARK  status: ('A' for Active; 'I' for Inactive)
REMARK    1  A    between atoms: C_8  and  C_9
REMARK    2  A    between atoms: C_12  and  C_13
REMARK    3  A    between atoms: N_20  and  C_21
REMARK    4  A    between atoms: C_21  and  C_22
REMARK    5  A    between atoms: C_22  and  C_23
REMARK    6  A    between atoms: C_23  and  O_24
REMARK                            x       y       z     vdW  Elec       q    Type
REMARK                         _______ _______ _______ _____ _____    ______ ____
ROOT
ATOM      1  C   UNL     1      -0.627  12.079  20.351  0.00  0.00    +0.000 A 
ATOM      2  C   UNL     1       0.247  12.566  19.401  0.00  0.00    +0.000 A 
ATOM      3  C   UNL     1       1.116  11.558  18.898  0.00  0.00    +0.000 A 
ATOM      4  C   UNL     1       0.899  10.318  19.471  0.00  0.00    +0.000 A 
ATOM      5  S   UNL     1      -0.371  10.403  20.620  0.00  0.00    +0.000 S 
ENDROOT
BRANCH   1  13
ATOM      6  O   UNL     1      -2.982  11.583  18.479  0.00  0.00    +0.000 OA
ATOM      7  C   UNL     1      -3.501  12.292  19.318  0.00  0.00    +0.000 C 
ATOM      8  N   UNL     1      -4.796  12.742  19.324  0.00  0.00    +0.000 N 
ATOM      9  C   UNL     1      -5.058  13.492  20.438  0.00  0.00    +0.000 C 
ATOM     10  S   UNL     1      -6.491  14.214  20.807  0.00  0.00    +0.000 S 
ATOM     11  N   UNL     1      -3.910  13.548  21.203  0.00  0.00    +0.000 N 
ATOM     12  C   UNL     1      -2.902  12.856  20.576  0.00  0.00    +0.000 C 
ATOM     13  C   UNL     1      -1.655  12.761  21.048  0.00  0.00    +0.000 C 
ATOM     14  H   UNL     1      -5.459  12.531  18.596  0.00  0.00    +0.000 HD
ATOM     15  H   UNL     1      -3.833  14.056  22.074  0.00  0.00    +0.000 HD
ENDBRANCH   1  13
BRANCH   4  16
ATOM     16  C   UNL     1       1.615   9.058  19.195  0.00  0.00    +0.000 A 
ATOM     17  C   UNL     1       2.294   8.919  17.957  0.00  0.00    +0.000 A 
ATOM     18  C   UNL     1       2.903   7.720  17.584  0.00  0.00    +0.000 A 
ATOM     19  C   UNL     1       2.828   6.674  18.477  0.00  0.00    +0.000 A 
ATOM     20  C   UNL     1       2.199   6.780  19.715  0.00  0.00    +0.000 A 
ATOM     21  C   UNL     1       1.589   7.970  20.090  0.00  0.00    +0.000 A 
ATOM     22  C   UNL     1       2.287   5.479  20.443  0.00  0.00    +0.000 C 
ATOM     23  N   UNL     1       2.989   4.633  19.486  0.00  0.00    +0.000 N 
ATOM     24  C   UNL     1       3.335   5.307  18.329  0.00  0.00    +0.000 C 
ATOM     25  O   UNL     1       3.931   4.887  17.357  0.00  0.00    +0.000 OA
BRANCH  23  26
ATOM     26  C   UNL     1       3.371   3.263  19.763  0.00  0.00    +0.000 C 
BRANCH  26  27
ATOM     27  C   UNL     1       2.187   2.322  19.943  0.00  0.00    +0.000 C 
BRANCH  27  28
ATOM     28  C   UNL     1       1.270   2.280  18.727  0.00  0.00    +0.000 C 
BRANCH  28  29
ATOM     29  O   UNL     1       2.025   1.888  17.585  0.00  0.00    +0.000 OA
ATOM     30  H   UNL     1       1.811   0.959  17.394  0.00  0.00    +0.000 HD
ENDBRANCH  28  29
ENDBRANCH  27  28
ENDBRANCH  26  27
ENDBRANCH  23  26
ENDBRANCH   4  16
TORSDOF 6
ENDMDL
