MODEL 1
REMARK VINA RESULT:      -6.8      0.000      0.000
REMARK  Name = 
REMARK  5 active torsions:
REMARK  status: ('A' for Active; 'I' for Inactive)
REMARK    1  A    between atoms: C_1  and  C_2
REMARK    2  A    between atoms: C_5  and  C_6
REMARK    3  A    between atoms: N_7  and  C_8
REMARK    4  A    between atoms: CA_13  and  C_14
REMARK    5  A    between atoms: C_14  and  OXT_16
REMARK                            x       y       z     vdW  Elec       q    Type
REMARK                         _______ _______ _______ _____ _____    ______ ____
ROOT
ATOM      1  C   UNL     1       5.213   4.896  17.470  0.00  0.00    +0.000 A 
ATOM      2  C   UNL     1       4.855   4.256  16.274  0.00  0.00    +0.000 A 
ATOM      3  C   UNL     1       5.799   4.029  15.270  0.00  0.00    +0.000 A 
ATOM      4  C   UNL     1       7.074   4.522  15.442  0.00  0.00    +0.000 A 
ATOM      5  N   UNL     1       7.460   5.190  16.546  0.00  0.00    +0.000 NA
ATOM      6  CA  UNL     1       6.541   5.302  17.566  0.00  0.00    +0.000 A 
ENDROOT
BRANCH   1  13
ATOM      7  C   UNL     1       4.342   2.813  19.648  0.00  0.00    +0.000 C 
ATOM      8  C   UNL     1       3.790   4.189  19.437  0.00  0.00    +0.000 A 
ATOM      9  C   UNL     1       2.832   4.780  20.235  0.00  0.00    +0.000 A 
ATOM     10  C   UNL     1       2.612   6.074  19.755  0.00  0.00    +0.000 A 
ATOM     11  C   UNL     1       3.405   6.255  18.636  0.00  0.00    +0.000 A 
ATOM     12  C   UNL     1       3.313   7.428  17.718  0.00  0.00    +0.000 C 
ATOM     13  N   UNL     1       4.217   5.120  18.479  0.00  0.00    +0.000 N 
ENDBRANCH   1  13
BRANCH   6  14
ATOM     14  C   UNL     1       7.202   5.779  18.819  0.00  0.00    +0.000 C 
ATOM     15  O   UNL     1       7.091   5.281  19.923  0.00  0.00    +0.000 OA
BRANCH  14  16
ATOM     16  OXT UNL     1       7.964   6.873  18.542  0.00  0.00    +0.000 OA
ATOM     17  HXT UNL     1       8.890   6.588  18.365  0.00  0.00    +0.000 HD
ENDBRANCH  14  16
ENDBRANCH   6  14
TORSDOF 3
ENDMDL
MODEL 2
REMARK VINA RESULT:      -6.7      0.121      2.037
REMARK  Name = 
REMARK  5 active torsions:
REMARK  status: ('A' for Active; 'I' for Inactive)
REMARK    1  A    between atoms: C_1  and  C_2
REMARK    2  A    between atoms: C_5  and  C_6
REMARK    3  A    between atoms: N_7  and  C_8
REMARK    4  A    between atoms: CA_13  and  C_14
REMARK    5  A    between atoms: C_14  and  OXT_16
REMARK                            x       y       z     vdW  Elec       q    Type
REMARK                         _______ _______ _______ _____ _____    ______ ____
ROOT
ATOM      1  C   UNL     1       5.173   4.827  17.385  0.00  0.00    +0.000 A 
ATOM      2  C   UNL     1       4.847   4.179  16.184  0.00  0.00    +0.000 A 
ATOM      3  C   UNL     1       5.808   3.980  15.190  0.00  0.00    +0.000 A 
ATOM      4  C   UNL     1       7.067   4.508  15.377  0.00  0.00    +0.000 A 
ATOM      5  N   UNL     1       7.422   5.184  16.486  0.00  0.00    +0.000 NA
ATOM      6  CA  UNL     1       6.488   5.269  17.496  0.00  0.00    +0.000 A 
ENDROOT
BRANCH   1  13
ATOM      7  C   UNL     1       3.497   7.449  17.778  0.00  0.00    +0.000 C 
ATOM      8  C   UNL     1       3.427   6.197  18.597  0.00  0.00    +0.000 A 
ATOM      9  C   UNL     1       2.544   5.989  19.635  0.00  0.00    +0.000 A 
ATOM     10  C   UNL     1       2.748   4.693  20.118  0.00  0.00    +0.000 A 
ATOM     11  C   UNL     1       3.787   4.129  19.402  0.00  0.00    +0.000 A 
ATOM     12  C   UNL     1       4.443   2.832  19.744  0.00  0.00    +0.000 C 
ATOM     13  N   UNL     1       4.161   5.021  18.383  0.00  0.00    +0.000 N 
ENDBRANCH   1  13
BRANCH   6  14
ATOM     14  C   UNL     1       7.123   5.760  18.758  0.00  0.00    +0.000 C 
ATOM     15  O   UNL     1       7.014   5.256  19.859  0.00  0.00    +0.000 OA
BRANCH  14  16
ATOM     16  OXT UNL     1       7.855   6.877  18.491  0.00  0.00    +0.000 OA
ATOM     17  HXT UNL     1       8.514   6.673  17.789  0.00  0.00    +0.000 HD
ENDBRANCH  14  16
ENDBRANCH   6  14
TORSDOF 3
ENDMDL
MODEL 3
REMARK VINA RESULT:      -6.6      1.507      2.572
REMARK  Name = 
REMARK  5 active torsions:
REMARK  status: ('A' for Active; 'I' for Inactive)
REMARK    1  A    between atoms: C_1  and  C_2
REMARK    2  A    between atoms: C_5  and  C_6
REMARK    3  A    between atoms: N_7  and  C_8
REMARK    4  A    between atoms: CA_13  and  C_14
REMARK    5  A    between atoms: C_14  and  OXT_16
REMARK                            x       y       z     vdW  Elec       q    Type
REMARK                         _______ _______ _______ _____ _____    ______ ____
ROOT
ATOM      1  C   UNL     1       4.870   4.609  16.767  0.00  0.00    +0.000 A 
ATOM      2  C   UNL     1       5.009   4.494  15.375  0.00  0.00    +0.000 A 
ATOM      3  C   UNL     1       6.272   4.445  14.781  0.00  0.00    +0.000 A 
ATOM      4  C   UNL     1       7.383   4.597  15.582  0.00  0.00    +0.000 A 
ATOM      5  N   UNL     1       7.309   4.763  16.916  0.00  0.00    +0.000 NA
ATOM      6  CA  UNL     1       6.057   4.696  17.489  0.00  0.00    +0.000 A 
ENDROOT
BRANCH   1  13
ATOM      7  C   UNL     1       3.452   7.209  17.800  0.00  0.00    +0.000 C 
ATOM      8  C   UNL     1       2.924   5.809  17.846  0.00  0.00    +0.000 A 
ATOM      9  C   UNL     1       1.671   5.459  18.306  0.00  0.00    +0.000 A 
ATOM     10  C   UNL     1       1.525   4.078  18.145  0.00  0.00    +0.000 A 
ATOM     11  C   UNL     1       2.708   3.582  17.628  0.00  0.00    +0.000 A 
ATOM     12  C   UNL     1       3.028   2.129  17.498  0.00  0.00    +0.000 C 
ATOM     13  N   UNL     1       3.559   4.663  17.346  0.00  0.00    +0.000 N 
ENDBRANCH   1  13
BRANCH   6  14
ATOM     14  C   UNL     1       6.165   4.581  18.975  0.00  0.00    +0.000 C 
ATOM     15  O   UNL     1       6.684   5.389  19.722  0.00  0.00    +0.000 OA
BRANCH  14  16
ATOM     16  OXT UNL     1       5.588   3.417  19.383  0.00  0.00    +0.000 OA
ATOM     17  HXT UNL     1       4.839   3.198  18.783  0.00  0.00    +0.000 HD
ENDBRANCH  14  16
ENDBRANCH   6  14
TORSDOF 3
ENDMDL
MODEL 4
REMARK VINA RESULT:      -6.5      2.216      3.557
REMARK  Name = 
REMARK  5 active torsions:
REMARK  status: ('A' for Active; 'I' for Inactive)
REMARK    1  A    between atoms: C_1  and  C_2
REMARK    2  A    between atoms: C_5  and  C_6
REMARK    3  A    between atoms: N_7  and  C_8
REMARK    4  A    between atoms: CA_13  and  C_14
REMARK    5  A    between atoms: C_14  and  OXT_16
REMARK                            x       y       z     vdW  Elec       q    Type
REMARK                         _______ _______ _______ _____ _____    ______ ____
ROOT
ATOM      1  C   UNL     1       5.232   4.764  18.111  0.00  0.00    +0.000 A 
ATOM      2  C   UNL     1       5.751   5.224  19.331  0.00  0.00    +0.000 A 
ATOM      3  C   UNL     1       7.114   5.493  19.477  0.00  0.00    +0.000 A 
ATOM      4  C   UNL     1       7.956   5.217  18.422  0.00  0.00    +0.000 A 
ATOM      5  N   UNL     1       7.522   4.726  17.246  0.00  0.00    +0.000 NA
ATOM      6  CA  UNL     1       6.161   4.575  17.091  0.00  0.00    +0.000 A 
ENDROOT
BRANCH   1  13
ATOM      7  C   UNL     1       2.972   6.934  17.964  0.00  0.00    +0.000 C 
ATOM      8  C   UNL     1       2.802   5.446  17.965  0.00  0.00    +0.000 A 
ATOM      9  C   UNL     1       1.592   4.796  17.834  0.00  0.00    +0.000 A 
ATOM     10  C   UNL     1       1.843   3.421  17.831  0.00  0.00    +0.000 A 
ATOM     11  C   UNL     1       3.202   3.234  18.005  0.00  0.00    +0.000 A 
ATOM     12  C   UNL     1       3.847   1.911  18.257  0.00  0.00    +0.000 C 
ATOM     13  N   UNL     1       3.829   4.491  17.995  0.00  0.00    +0.000 N 
ENDBRANCH   1  13
BRANCH   6  14
ATOM     14  C   UNL     1       5.819   4.328  15.657  0.00  0.00    +0.000 C 
ATOM     15  O   UNL     1       5.408   5.154  14.865  0.00  0.00    +0.000 OA
BRANCH  14  16
ATOM     16  OXT UNL     1       6.039   3.018  15.358  0.00  0.00    +0.000 OA
ATOM     17  HXT UNL     1       5.900   2.877  14.393  0.00  0.00    +0.000 HD
ENDBRANCH  14  16
ENDBRANCH   6  14
TORSDOF 3
ENDMDL
MODEL 5
REMARK VINA RESULT:      -6.4      2.174      3.452
REMARK  Name = 
REMARK  5 active torsions:
REMARK  status: ('A' for Active; 'I' for Inactive)
REMARK    1  A    between atoms: C_1  and  C_2
REMARK    2  A    between atoms: C_5  and  C_6
REMARK    3  A    between atoms: N_7  and  C_8
REMARK    4  A    between atoms: CA_13  and  C_14
REMARK    5  A    between atoms: C_14  and  OXT_16
REMARK                            x       y       z     vdW  Elec       q    Type
REMARK                         _______ _______ _______ _____ _____    ______ ____
ROOT
ATOM      1  C   UNL     1       5.110   5.076  18.016  0.00  0.00    +0.000 A 
ATOM      2  C   UNL     1       5.710   5.194  19.279  0.00  0.00    +0.000 A 
ATOM      3  C   UNL     1       7.065   5.509  19.406  0.00  0.00    +0.000 A 
ATOM      4  C   UNL     1       7.824   5.619  18.261  0.00  0.00    +0.000 A 
ATOM      5  N   UNL     1       7.314   5.464  17.025  0.00  0.00    +0.000 NA
ATOM      6  CA  UNL     1       5.954   5.265  16.925  0.00  0.00    +0.000 A 
ENDROOT
BRANCH   1  13
ATOM      7  C   UNL     1       2.748   7.137  18.128  0.00  0.00    +0.000 C 
ATOM      8  C   UNL     1       2.647   5.648  18.005  0.00  0.00    +0.000 A 
ATOM      9  C   UNL     1       1.465   4.953  17.855  0.00  0.00    +0.000 A 
ATOM     10  C   UNL     1       1.779   3.597  17.725  0.00  0.00    +0.000 A 
ATOM     11  C   UNL     1       3.150   3.463  17.840  0.00  0.00    +0.000 A 
ATOM     12  C   UNL     1       3.864   2.157  17.956  0.00  0.00    +0.000 C 
ATOM     13  N   UNL     1       3.717   4.746  17.921  0.00  0.00    +0.000 N 
ENDBRANCH   1  13
BRANCH   6  14
ATOM     14  C   UNL     1       5.501   5.426  15.510  0.00  0.00    +0.000 C 
ATOM     15  O   UNL     1       5.390   4.539  14.686  0.00  0.00    +0.000 OA
BRANCH  14  16
ATOM     16  OXT UNL     1       5.225   6.738  15.270  0.00  0.00    +0.000 OA
ATOM     17  HXT UNL     1       6.063   7.255  15.287  0.00  0.00    +0.000 HD
ENDBRANCH  14  16
ENDBRANCH   6  14
TORSDOF 3
ENDMDL
MODEL 6
REMARK VINA RESULT:      -6.4      1.130      1.145
REMARK  Name = 
REMARK  5 active torsions:
REMARK  status: ('A' for Active; 'I' for Inactive)
REMARK    1  A    between atoms: C_1  and  C_2
REMARK    2  A    between atoms: C_5  and  C_6
REMARK    3  A    between atoms: N_7  and  C_8
REMARK    4  A    between atoms: CA_13  and  C_14
REMARK    5  A    between atoms: C_14  and  OXT_16
REMARK                            x       y       z     vdW  Elec       q    Type
REMARK                         _______ _______ _______ _____ _____    ______ ____
ROOT
ATOM      1  C   UNL     1       5.013   4.672  16.817  0.00  0.00    +0.000 A 
ATOM      2  C   UNL     1       4.796   4.450  15.448  0.00  0.00    +0.000 A 
ATOM      3  C   UNL     1       5.861   4.434  14.545  0.00  0.00    +0.000 A 
ATOM      4  C   UNL     1       7.124   4.724  15.011  0.00  0.00    +0.000 A 
ATOM      5  N   UNL     1       7.385   4.997  16.304  0.00  0.00    +0.000 NA
ATOM      6  CA  UNL     1       6.335   4.896  17.191  0.00  0.00    +0.000 A 
ENDROOT
BRANCH   1  13
ATOM      7  C   UNL     1       3.569   2.131  17.956  0.00  0.00    +0.000 C 
ATOM      8  C   UNL     1       3.217   3.564  18.209  0.00  0.00    +0.000 A 
ATOM      9  C   UNL     1       2.213   3.986  19.056  0.00  0.00    +0.000 A 
ATOM     10  C   UNL     1       2.222   5.384  19.068  0.00  0.00    +0.000 A 
ATOM     11  C   UNL     1       3.202   5.812  18.192  0.00  0.00    +0.000 A 
ATOM     12  C   UNL     1       3.395   7.231  17.769  0.00  0.00    +0.000 C 
ATOM     13  N   UNL     1       3.897   4.688  17.718  0.00  0.00    +0.000 N 
ENDBRANCH   1  13
BRANCH   6  14
ATOM     14  C   UNL     1       6.835   4.914  18.600  0.00  0.00    +0.000 C 
ATOM     15  O   UNL     1       6.191   5.216  19.587  0.00  0.00    +0.000 OA
BRANCH  14  16
ATOM     16  OXT UNL     1       8.143   4.536  18.622  0.00  0.00    +0.000 OA
ATOM     17  HXT UNL     1       8.712   5.325  18.467  0.00  0.00    +0.000 HD
ENDBRANCH  14  16
ENDBRANCH   6  14
TORSDOF 3
ENDMDL
MODEL 7
REMARK VINA RESULT:      -6.4      1.133      2.268
REMARK  Name = 
REMARK  5 active torsions:
REMARK  status: ('A' for Active; 'I' for Inactive)
REMARK    1  A    between atoms: C_1  and  C_2
REMARK    2  A    between atoms: C_5  and  C_6
REMARK    3  A    between atoms: N_7  and  C_8
REMARK    4  A    between atoms: CA_13  and  C_14
REMARK    5  A    between atoms: C_14  and  OXT_16
REMARK                            x       y       z     vdW  Elec       q    Type
REMARK                         _______ _______ _______ _____ _____    ______ ____
ROOT
ATOM      1  C   UNL     1       5.040   4.724  16.583  0.00  0.00    +0.000 A 
ATOM      2  C   UNL     1       4.924   4.426  15.217  0.00  0.00    +0.000 A 
ATOM      3  C   UNL     1       6.049   4.399  14.389  0.00  0.00    +0.000 A 
ATOM      4  C   UNL     1       7.268   4.754  14.924  0.00  0.00    +0.000 A 
ATOM      5  N   UNL     1       7.431   5.099  16.215  0.00  0.00    +0.000 NA
ATOM      6  CA  UNL     1       6.326   5.010  17.034  0.00  0.00    +0.000 A 
ENDROOT
BRANCH   1  13
ATOM      7  C   UNL     1       3.613   7.316  17.622  0.00  0.00    +0.000 C 
ATOM      8  C   UNL     1       3.234   5.897  17.909  0.00  0.00    +0.000 A 
ATOM      9  C   UNL     1       2.131   5.513  18.642  0.00  0.00    +0.000 A 
ATOM     10  C   UNL     1       2.085   4.116  18.649  0.00  0.00    +0.000 A 
ATOM     11  C   UNL     1       3.187   3.649  17.956  0.00  0.00    +0.000 A 
ATOM     12  C   UNL     1       3.608   2.218  17.906  0.00  0.00    +0.000 C 
ATOM     13  N   UNL     1       3.864   4.749  17.405  0.00  0.00    +0.000 N 
ENDBRANCH   1  13
BRANCH   6  14
ATOM     14  C   UNL     1       6.726   5.115  18.470  0.00  0.00    +0.000 C 
ATOM     15  O   UNL     1       6.324   4.417  19.381  0.00  0.00    +0.000 OA
BRANCH  14  16
ATOM     16  OXT UNL     1       7.625   6.128  18.616  0.00  0.00    +0.000 OA
ATOM     17  HXT UNL     1       8.013   6.348  17.738  0.00  0.00    +0.000 HD
ENDBRANCH  14  16
ENDBRANCH   6  14
TORSDOF 3
ENDMDL
MODEL 8
REMARK VINA RESULT:      -6.3      2.152      2.833
REMARK  Name = 
REMARK  5 active torsions:
REMARK  status: ('A' for Active; 'I' for Inactive)
REMARK    1  A    between atoms: C_1  and  C_2
REMARK    2  A    between atoms: C_5  and  C_6
REMARK    3  A    between atoms: N_7  and  C_8
REMARK    4  A    between atoms: CA_13  and  C_14
REMARK    5  A    between atoms: C_14  and  OXT_16
REMARK                            x       y       z     vdW  Elec       q    Type
REMARK                         _______ _______ _______ _____ _____    ______ ____
ROOT
ATOM      1  C   UNL     1       5.131   5.123  18.077  0.00  0.00    +0.000 A 
ATOM      2  C   UNL     1       5.757   5.249  19.327  0.00  0.00    +0.000 A 
ATOM      3  C   UNL     1       7.127   5.501  19.423  0.00  0.00    +0.000 A 
ATOM      4  C   UNL     1       7.872   5.540  18.264  0.00  0.00    +0.000 A 
ATOM      5  N   UNL     1       7.335   5.374  17.041  0.00  0.00    +0.000 NA
ATOM      6  CA  UNL     1       5.966   5.238  16.968  0.00  0.00    +0.000 A 
ENDROOT
BRANCH   1  13
ATOM      7  C   UNL     1       3.837   2.288  17.721  0.00  0.00    +0.000 C 
ATOM      8  C   UNL     1       3.127   3.603  17.818  0.00  0.00    +0.000 A 
ATOM      9  C   UNL     1       1.756   3.755  17.827  0.00  0.00    +0.000 A 
ATOM     10  C   UNL     1       1.476   5.116  17.979  0.00  0.00    +0.000 A 
ATOM     11  C   UNL     1       2.679   5.798  18.017  0.00  0.00    +0.000 A 
ATOM     12  C   UNL     1       2.809   7.284  17.968  0.00  0.00    +0.000 C 
ATOM     13  N   UNL     1       3.723   4.858  18.012  0.00  0.00    +0.000 N 
ENDBRANCH   1  13
BRANCH   6  14
ATOM     14  C   UNL     1       5.498   5.379  15.555  0.00  0.00    +0.000 C 
ATOM     15  O   UNL     1       5.345   4.475  14.756  0.00  0.00    +0.000 OA
BRANCH  14  16
ATOM     16  OXT UNL     1       5.262   6.693  15.285  0.00  0.00    +0.000 OA
ATOM     17  HXT UNL     1       5.680   6.928  14.425  0.00  0.00    +0.000 HD
ENDBRANCH  14  16
ENDBRANCH   6  14
TORSDOF 3
ENDMDL
MODEL 9
REMARK VINA RESULT:      -6.2      2.104      4.373
REMARK  Name = 
REMARK  5 active torsions:
REMARK  status: ('A' for Active; 'I' for Inactive)
REMARK    1  A    between atoms: C_1  and  C_2
REMARK    2  A    between atoms: C_5  and  C_6
REMARK    3  A    between atoms: N_7  and  C_8
REMARK    4  A    between atoms: CA_13  and  C_14
REMARK    5  A    between atoms: C_14  and  OXT_16
REMARK                            x       y       z     vdW  Elec       q    Type
REMARK                         _______ _______ _______ _____ _____    ______ ____
ROOT
ATOM      1  C   UNL     1       2.975   4.202  18.117  0.00  0.00    +0.000 A 
ATOM      2  C   UNL     1       1.599   4.094  17.862  0.00  0.00    +0.000 A 
ATOM      3  C   UNL     1       0.847   3.048  18.402  0.00  0.00    +0.000 A 
ATOM      4  C   UNL     1       1.500   2.073  19.124  0.00  0.00    +0.000 A 
ATOM      5  N   UNL     1       2.827   2.096  19.356  0.00  0.00    +0.000 NA
ATOM      6  CA  UNL     1       3.524   3.196  18.907  0.00  0.00    +0.000 A 
ENDROOT
BRANCH   1  13
ATOM      7  C   UNL     1       2.572   7.237  18.797  0.00  0.00    +0.000 C 
ATOM      8  C   UNL     1       3.529   6.649  17.807  0.00  0.00    +0.000 A 
ATOM      9  C   UNL     1       4.443   7.377  17.073  0.00  0.00    +0.000 A 
ATOM     10  C   UNL     1       5.186   6.478  16.302  0.00  0.00    +0.000 A 
ATOM     11  C   UNL     1       4.693   5.208  16.532  0.00  0.00    +0.000 A 
ATOM     12  C   UNL     1       5.082   3.997  15.751  0.00  0.00    +0.000 C 
ATOM     13  N   UNL     1       3.719   5.285  17.542  0.00  0.00    +0.000 N 
ENDBRANCH   1  13
BRANCH   6  14
ATOM     14  C   UNL     1       4.895   3.228  19.504  0.00  0.00    +0.000 C 
ATOM     15  O   UNL     1       5.647   4.184  19.523  0.00  0.00    +0.000 OA
BRANCH  14  16
ATOM     16  OXT UNL     1       5.187   2.008  20.034  0.00  0.00    +0.000 OA
ATOM     17  HXT UNL     1       6.059   2.052  20.488  0.00  0.00    +0.000 HD
ENDBRANCH  14  16
ENDBRANCH   6  14
TORSDOF 3
ENDMDL
