MODEL 1
REMARK VINA RESULT:      -7.5      0.000      0.000
REMARK  Name = 
REMARK  5 active torsions:
REMARK  status: ('A' for Active; 'I' for Inactive)
REMARK    1  A    between atoms: C_2  and  C_14
REMARK    2  A    between atoms: N_3  and  C_4
REMARK    3  A    between atoms: C_7  and  N_8
REMARK    4  A    between atoms: C_18  and  N_19
REMARK    5  A    between atoms: C_22  and  O_23
REMARK                            x       y       z     vdW  Elec       q    Type
REMARK                         _______ _______ _______ _____ _____    ______ ____
ROOT
ATOM      1  O   UNL     1       2.454   9.019  17.060  0.00  0.00    +0.000 OA
ATOM      2  C   UNL     1       2.171   8.536  18.154  0.00  0.00    +0.000 C 
ATOM      3  N   UNL     1       2.710   7.367  18.648  0.00  0.00    +0.000 N 
ATOM      4  H   UNL     1       2.198   6.917  19.407  0.00  0.00    +0.000 HD
ENDROOT
BRANCH   3   5
ATOM      5  C   UNL     1       3.688   6.593  17.988  0.00  0.00    +0.000 A 
ATOM      6  C   UNL     1       4.956   7.113  17.697  0.00  0.00    +0.000 A 
ATOM      7  C   UNL     1       5.915   6.334  17.043  0.00  0.00    +0.000 A 
ATOM      8  C   UNL     1       5.593   5.028  16.661  0.00  0.00    +0.000 A 
ATOM      9  C   UNL     1       4.331   4.490  16.943  0.00  0.00    +0.000 A 
ATOM     10  C   UNL     1       3.393   5.269  17.624  0.00  0.00    +0.000 A 
ATOM     11 CL   UNL     1       1.833   4.586  17.933  0.00  0.00    +0.000 Cl
BRANCH   8  12
ATOM     12  N   UNL     1       6.585   4.208  15.962  0.00  0.00    +0.000 N 
ATOM     13  O   UNL     1       7.760   4.260  16.361  0.00  0.00    +0.000 OA
ATOM     14  O   UNL     1       6.198   3.508  15.017  0.00  0.00    +0.000 OA
ENDBRANCH   8  12
ENDBRANCH   3   5
BRANCH   2  15
ATOM     15  C   UNL     1       1.141   9.225  18.996  0.00  0.00    +0.000 A 
ATOM     16  C   UNL     1       0.312  10.138  18.314  0.00  0.00    +0.000 A 
ATOM     17  C   UNL     1      -0.693  10.840  18.977  0.00  0.00    +0.000 A 
ATOM     18  C   UNL     1      -0.891  10.636  20.338  0.00  0.00    +0.000 A 
ATOM     19  C   UNL     1      -0.078   9.726  21.035  0.00  0.00    +0.000 A 
ATOM     20  C   UNL     1       0.949   9.019  20.375  0.00  0.00    +0.000 A 
BRANCH  19  21
ATOM     21  N   UNL     1      -0.339   9.528  22.467  0.00  0.00    +0.000 N 
ATOM     22  O   UNL     1      -0.763   8.428  22.838  0.00  0.00    +0.000 OA
ATOM     23  O   UNL     1      -0.111  10.489  23.219  0.00  0.00    +0.000 OA
ENDBRANCH  19  21
BRANCH  20  24
ATOM     24  O   UNL     1       1.769   8.118  21.016  0.00  0.00    +0.000 OA
ATOM     25  H   UNL     1       2.708   8.261  20.758  0.00  0.00    +0.000 HD
ENDBRANCH  20  24
ENDBRANCH   2  15
TORSDOF 5
ENDMDL
MODEL 2
REMARK VINA RESULT:      -7.5      4.720      8.822
REMARK  Name = 
REMARK  5 active torsions:
REMARK  status: ('A' for Active; 'I' for Inactive)
REMARK    1  A    between atoms: C_2  and  C_14
REMARK    2  A    between atoms: N_3  and  C_4
REMARK    3  A    between atoms: C_7  and  N_8
REMARK    4  A    between atoms: C_18  and  N_19
REMARK    5  A    between atoms: C_22  and  O_23
REMARK                            x       y       z     vdW  Elec       q    Type
REMARK                         _______ _______ _______ _____ _____    ______ ____
ROOT
ATOM      1  O   UNL     1       6.483   4.211  17.202  0.00  0.00    +0.000 OA
ATOM      2  C   UNL     1       5.682   4.035  16.287  0.00  0.00    +0.000 C 
ATOM      3  N   UNL     1       4.364   3.675  16.469  0.00  0.00    +0.000 N 
ATOM      4  H   UNL     1       3.887   3.278  15.659  0.00  0.00    +0.000 HD
ENDROOT
BRANCH   3   5
ATOM      5  C   UNL     1       3.745   3.503  17.725  0.00  0.00    +0.000 A 
ATOM      6  C   UNL     1       3.510   2.227  18.254  0.00  0.00    +0.000 A 
ATOM      7  C   UNL     1       2.896   2.073  19.500  0.00  0.00    +0.000 A 
ATOM      8  C   UNL     1       2.495   3.208  20.213  0.00  0.00    +0.000 A 
ATOM      9  C   UNL     1       2.721   4.491  19.700  0.00  0.00    +0.000 A 
ATOM     10  C   UNL     1       3.363   4.632  18.469  0.00  0.00    +0.000 A 
ATOM     11 CL   UNL     1       3.602   6.230  17.849  0.00  0.00    +0.000 Cl
BRANCH   8  12
ATOM     12  N   UNL     1       1.837   3.056  21.513  0.00  0.00    +0.000 N 
ATOM     13  O   UNL     1       2.438   3.475  22.516  0.00  0.00    +0.000 OA
ATOM     14  O   UNL     1       0.720   2.525  21.539  0.00  0.00    +0.000 OA
ENDBRANCH   8  12
ENDBRANCH   3   5
BRANCH   2  15
ATOM     15  C   UNL     1       6.167   4.172  14.876  0.00  0.00    +0.000 A 
ATOM     16  C   UNL     1       5.553   3.321  13.937  0.00  0.00    +0.000 A 
ATOM     17  C   UNL     1       5.905   3.352  12.589  0.00  0.00    +0.000 A 
ATOM     18  C   UNL     1       6.878   4.244  12.154  0.00  0.00    +0.000 A 
ATOM     19  C   UNL     1       7.501   5.106  13.074  0.00  0.00    +0.000 A 
ATOM     20  C   UNL     1       7.158   5.073  14.442  0.00  0.00    +0.000 A 
BRANCH  19  21
ATOM     21  N   UNL     1       8.507   6.045  12.563  0.00  0.00    +0.000 N 
ATOM     22  O   UNL     1       8.248   6.678  11.534  0.00  0.00    +0.000 OA
ATOM     23  O   UNL     1       9.563   6.145  13.208  0.00  0.00    +0.000 OA
ENDBRANCH  19  21
BRANCH  20  24
ATOM     24  O   UNL     1       7.739   5.898  15.378  0.00  0.00    +0.000 OA
ATOM     25  H   UNL     1       7.998   6.755  14.971  0.00  0.00    +0.000 HD
ENDBRANCH  20  24
ENDBRANCH   2  15
TORSDOF 5
ENDMDL
MODEL 3
REMARK VINA RESULT:      -7.4      1.687      2.243
REMARK  Name = 
REMARK  5 active torsions:
REMARK  status: ('A' for Active; 'I' for Inactive)
REMARK    1  A    between atoms: C_2  and  C_14
REMARK    2  A    between atoms: N_3  and  C_4
REMARK    3  A    between atoms: C_7  and  N_8
REMARK    4  A    between atoms: C_18  and  N_19
REMARK    5  A    between atoms: C_22  and  O_23
REMARK                            x       y       z     vdW  Elec       q    Type
REMARK                         _______ _______ _______ _____ _____    ______ ____
ROOT
ATOM      1  O   UNL     1       2.473   8.966  17.336  0.00  0.00    +0.000 OA
ATOM      2  C   UNL     1       2.259   8.359  18.383  0.00  0.00    +0.000 C 
ATOM      3  N   UNL     1       2.834   7.149  18.710  0.00  0.00    +0.000 N 
ATOM      4  H   UNL     1       2.371   6.611  19.442  0.00  0.00    +0.000 HD
ENDROOT
BRANCH   3   5
ATOM      5  C   UNL     1       3.775   6.466  17.911  0.00  0.00    +0.000 A 
ATOM      6  C   UNL     1       4.964   7.082  17.497  0.00  0.00    +0.000 A 
ATOM      7  C   UNL     1       5.887   6.392  16.706  0.00  0.00    +0.000 A 
ATOM      8  C   UNL     1       5.607   5.080  16.310  0.00  0.00    +0.000 A 
ATOM      9  C   UNL     1       4.424   4.448  16.714  0.00  0.00    +0.000 A 
ATOM     10  C   UNL     1       3.525   5.138  17.530  0.00  0.00    +0.000 A 
ATOM     11 CL   UNL     1       2.060   4.339  17.990  0.00  0.00    +0.000 Cl
BRANCH   8  12
ATOM     12  N   UNL     1       6.561   4.354  15.469  0.00  0.00    +0.000 N 
ATOM     13  O   UNL     1       6.101   3.616  14.581  0.00  0.00    +0.000 OA
ATOM     14  O   UNL     1       7.768   4.517  15.686  0.00  0.00    +0.000 OA
ENDBRANCH   8  12
ENDBRANCH   3   5
BRANCH   2  15
ATOM     15  C   UNL     1       1.277   8.937  19.357  0.00  0.00    +0.000 A 
ATOM     16  C   UNL     1       1.356   8.434  20.670  0.00  0.00    +0.000 A 
ATOM     17  C   UNL     1       0.506   8.892  21.675  0.00  0.00    +0.000 A 
ATOM     18  C   UNL     1      -0.437   9.870  21.384  0.00  0.00    +0.000 A 
ATOM     19  C   UNL     1      -0.529  10.389  20.081  0.00  0.00    +0.000 A 
ATOM     20  C   UNL     1       0.320   9.923  19.054  0.00  0.00    +0.000 A 
BRANCH  19  21
ATOM     21  N   UNL     1      -1.527  11.437  19.827  0.00  0.00    +0.000 N 
ATOM     22  O   UNL     1      -1.620  12.365  20.638  0.00  0.00    +0.000 OA
ATOM     23  O   UNL     1      -2.216  11.321  18.801  0.00  0.00    +0.000 OA
ENDBRANCH  19  21
BRANCH  20  24
ATOM     24  O   UNL     1       0.266  10.402  17.765  0.00  0.00    +0.000 OA
ATOM     25  H   UNL     1      -0.589  10.859  17.601  0.00  0.00    +0.000 HD
ENDBRANCH  20  24
ENDBRANCH   2  15
TORSDOF 5
ENDMDL
MODEL 4
REMARK VINA RESULT:      -7.2      2.067      8.057
REMARK  Name = 
REMARK  5 active torsions:
REMARK  status: ('A' for Active; 'I' for Inactive)
REMARK    1  A    between atoms: C_2  and  C_14
REMARK    2  A    between atoms: N_3  and  C_4
REMARK    3  A    between atoms: C_7  and  N_8
REMARK    4  A    between atoms: C_18  and  N_19
REMARK    5  A    between atoms: C_22  and  O_23
REMARK                            x       y       z     vdW  Elec       q    Type
REMARK                         _______ _______ _______ _____ _____    ______ ____
ROOT
ATOM      1  O   UNL     1       1.834   5.333  20.226  0.00  0.00    +0.000 OA
ATOM      2  C   UNL     1       2.526   5.935  19.408  0.00  0.00    +0.000 C 
ATOM      3  N   UNL     1       2.497   7.301  19.223  0.00  0.00    +0.000 N 
ATOM      4  H   UNL     1       2.878   7.648  18.343  0.00  0.00    +0.000 HD
ENDROOT
BRANCH   3   5
ATOM      5  C   UNL     1       1.705   8.196  19.974  0.00  0.00    +0.000 A 
ATOM      6  C   UNL     1       1.487   8.003  21.345  0.00  0.00    +0.000 A 
ATOM      7  C   UNL     1       0.701   8.898  22.076  0.00  0.00    +0.000 A 
ATOM      8  C   UNL     1       0.111   9.985  21.422  0.00  0.00    +0.000 A 
ATOM      9  C   UNL     1       0.317  10.194  20.052  0.00  0.00    +0.000 A 
ATOM     10  C   UNL     1       1.130   9.310  19.341  0.00  0.00    +0.000 A 
ATOM     11 CL   UNL     1       1.342   9.579  17.645  0.00  0.00    +0.000 Cl
BRANCH   8  12
ATOM     12  N   UNL     1      -0.728  10.921  22.176  0.00  0.00    +0.000 N 
ATOM     13  O   UNL     1      -0.729  10.825  23.414  0.00  0.00    +0.000 OA
ATOM     14  O   UNL     1      -1.383  11.755  21.538  0.00  0.00    +0.000 OA
ENDBRANCH   8  12
ENDBRANCH   3   5
BRANCH   2  15
ATOM     15  C   UNL     1       3.430   5.142  18.515  0.00  0.00    +0.000 A 
ATOM     16  C   UNL     1       2.785   4.250  17.636  0.00  0.00    +0.000 A 
ATOM     17  C   UNL     1       3.508   3.457  16.746  0.00  0.00    +0.000 A 
ATOM     18  C   UNL     1       4.895   3.550  16.715  0.00  0.00    +0.000 A 
ATOM     19  C   UNL     1       5.558   4.437  17.581  0.00  0.00    +0.000 A 
ATOM     20  C   UNL     1       4.834   5.235  18.493  0.00  0.00    +0.000 A 
BRANCH  19  21
ATOM     21  N   UNL     1       7.022   4.515  17.497  0.00  0.00    +0.000 N 
ATOM     22  O   UNL     1       7.541   4.579  16.377  0.00  0.00    +0.000 OA
ATOM     23  O   UNL     1       7.649   4.513  18.568  0.00  0.00    +0.000 OA
ENDBRANCH  19  21
BRANCH  20  24
ATOM     24  O   UNL     1       5.439   6.118  19.358  0.00  0.00    +0.000 OA
ATOM     25  H   UNL     1       6.019   6.742  18.865  0.00  0.00    +0.000 HD
ENDBRANCH  20  24
ENDBRANCH   2  15
TORSDOF 5
ENDMDL
MODEL 5
REMARK VINA RESULT:      -7.1      2.817      8.091
REMARK  Name = 
REMARK  5 active torsions:
REMARK  status: ('A' for Active; 'I' for Inactive)
REMARK    1  A    between atoms: C_2  and  C_14
REMARK    2  A    between atoms: N_3  and  C_4
REMARK    3  A    between atoms: C_7  and  N_8
REMARK    4  A    between atoms: C_18  and  N_19
REMARK    5  A    between atoms: C_22  and  O_23
REMARK                            x       y       z     vdW  Elec       q    Type
REMARK                         _______ _______ _______ _____ _____    ______ ____
ROOT
ATOM      1  O   UNL     1       1.060   5.816  20.833  0.00  0.00    +0.000 OA
ATOM      2  C   UNL     1       1.923   6.278  20.091  0.00  0.00    +0.000 C 
ATOM      3  N   UNL     1       2.099   7.624  19.849  0.00  0.00    +0.000 N 
ATOM      4  H   UNL     1       2.631   7.869  19.014  0.00  0.00    +0.000 HD
ENDROOT
BRANCH   3   5
ATOM      5  C   UNL     1       1.343   8.653  20.451  0.00  0.00    +0.000 A 
ATOM      6  C   UNL     1       1.213   8.743  21.843  0.00  0.00    +0.000 A 
ATOM      7  C   UNL     1       0.462   9.768  22.425  0.00  0.00    +0.000 A 
ATOM      8  C   UNL     1      -0.181  10.700  21.603  0.00  0.00    +0.000 A 
ATOM      9  C   UNL     1      -0.063  10.626  20.209  0.00  0.00    +0.000 A 
ATOM     10  C   UNL     1       0.717   9.615  19.642  0.00  0.00    +0.000 A 
ATOM     11 CL   UNL     1       0.820   9.534  17.917  0.00  0.00    +0.000 Cl
BRANCH   8  12
ATOM     12  N   UNL     1      -0.983  11.769  22.202  0.00  0.00    +0.000 N 
ATOM     13  O   UNL     1      -1.477  12.615  21.439  0.00  0.00    +0.000 OA
ATOM     14  O   UNL     1      -1.126  11.767  23.431  0.00  0.00    +0.000 OA
ENDBRANCH   8  12
ENDBRANCH   3   5
BRANCH   2  15
ATOM     15  C   UNL     1       2.821   5.327  19.359  0.00  0.00    +0.000 A 
ATOM     16  C   UNL     1       3.393   5.825  18.172  0.00  0.00    +0.000 A 
ATOM     17  C   UNL     1       4.253   5.046  17.399  0.00  0.00    +0.000 A 
ATOM     18  C   UNL     1       4.562   3.754  17.806  0.00  0.00    +0.000 A 
ATOM     19  C   UNL     1       4.005   3.240  18.991  0.00  0.00    +0.000 A 
ATOM     20  C   UNL     1       3.125   4.017  19.773  0.00  0.00    +0.000 A 
BRANCH  19  21
ATOM     21  N   UNL     1       4.378   1.877  19.390  0.00  0.00    +0.000 N 
ATOM     22  O   UNL     1       5.050   1.732  20.417  0.00  0.00    +0.000 OA
ATOM     23  O   UNL     1       3.987   0.950  18.664  0.00  0.00    +0.000 OA
ENDBRANCH  19  21
BRANCH  20  24
ATOM     24  O   UNL     1       2.557   3.557  20.939  0.00  0.00    +0.000 OA
ATOM     25  H   UNL     1       3.149   2.905  21.378  0.00  0.00    +0.000 HD
ENDBRANCH  20  24
ENDBRANCH   2  15
TORSDOF 5
ENDMDL
MODEL 6
REMARK VINA RESULT:      -7.1      1.963      8.100
REMARK  Name = 
REMARK  5 active torsions:
REMARK  status: ('A' for Active; 'I' for Inactive)
REMARK    1  A    between atoms: C_2  and  C_14
REMARK    2  A    between atoms: N_3  and  C_4
REMARK    3  A    between atoms: C_7  and  N_8
REMARK    4  A    between atoms: C_18  and  N_19
REMARK    5  A    between atoms: C_22  and  O_23
REMARK                            x       y       z     vdW  Elec       q    Type
REMARK                         _______ _______ _______ _____ _____    ______ ____
ROOT
ATOM      1  O   UNL     1       1.748   5.679  20.500  0.00  0.00    +0.000 OA
ATOM      2  C   UNL     1       2.286   6.274  19.570  0.00  0.00    +0.000 C 
ATOM      3  N   UNL     1       2.178   7.630  19.350  0.00  0.00    +0.000 N 
ATOM      4  H   UNL     1       2.409   7.958  18.412  0.00  0.00    +0.000 HD
ENDROOT
BRANCH   3   5
ATOM      5  C   UNL     1       1.474   8.525  20.185  0.00  0.00    +0.000 A 
ATOM      6  C   UNL     1       1.498   8.393  21.580  0.00  0.00    +0.000 A 
ATOM      7  C   UNL     1       0.796   9.287  22.393  0.00  0.00    +0.000 A 
ATOM      8  C   UNL     1       0.047  10.310  21.802  0.00  0.00    +0.000 A 
ATOM      9  C   UNL     1       0.010  10.457  20.410  0.00  0.00    +0.000 A 
ATOM     10  C   UNL     1       0.742   9.576  19.610  0.00  0.00    +0.000 A 
ATOM     11 CL   UNL     1       0.654   9.767  17.892  0.00  0.00    +0.000 Cl
BRANCH   8  12
ATOM     12  N   UNL     1      -0.705  11.243  22.645  0.00  0.00    +0.000 N 
ATOM     13  O   UNL     1      -0.400  12.446  22.587  0.00  0.00    +0.000 OA
ATOM     14  O   UNL     1      -1.601  10.782  23.363  0.00  0.00    +0.000 OA
ENDBRANCH   8  12
ENDBRANCH   3   5
BRANCH   2  15
ATOM     15  C   UNL     1       3.076   5.479  18.575  0.00  0.00    +0.000 A 
ATOM     16  C   UNL     1       2.850   4.089  18.591  0.00  0.00    +0.000 A 
ATOM     17  C   UNL     1       3.513   3.235  17.712  0.00  0.00    +0.000 A 
ATOM     18  C   UNL     1       4.414   3.761  16.792  0.00  0.00    +0.000 A 
ATOM     19  C   UNL     1       4.650   5.146  16.756  0.00  0.00    +0.000 A 
ATOM     20  C   UNL     1       3.991   6.017  17.650  0.00  0.00    +0.000 A 
BRANCH  19  21
ATOM     21  N   UNL     1       5.594   5.656  15.753  0.00  0.00    +0.000 N 
ATOM     22  O   UNL     1       5.332   6.727  15.195  0.00  0.00    +0.000 OA
ATOM     23  O   UNL     1       6.606   4.972  15.533  0.00  0.00    +0.000 OA
ENDBRANCH  19  21
BRANCH  20  24
ATOM     24  O   UNL     1       4.190   7.378  17.651  0.00  0.00    +0.000 OA
ATOM     25  H   UNL     1       4.477   7.685  18.541  0.00  0.00    +0.000 HD
ENDBRANCH  20  24
ENDBRANCH   2  15
TORSDOF 5
ENDMDL
MODEL 7
REMARK VINA RESULT:      -6.9      2.837      8.367
REMARK  Name = 
REMARK  5 active torsions:
REMARK  status: ('A' for Active; 'I' for Inactive)
REMARK    1  A    between atoms: C_2  and  C_14
REMARK    2  A    between atoms: N_3  and  C_4
REMARK    3  A    between atoms: C_7  and  N_8
REMARK    4  A    between atoms: C_18  and  N_19
REMARK    5  A    between atoms: C_22  and  O_23
REMARK                            x       y       z     vdW  Elec       q    Type
REMARK                         _______ _______ _______ _____ _____    ______ ____
ROOT
ATOM      1  O   UNL     1       0.772   7.030  21.223  0.00  0.00    +0.000 OA
ATOM      2  C   UNL     1       1.428   7.722  20.447  0.00  0.00    +0.000 C 
ATOM      3  N   UNL     1       1.276   9.085  20.305  0.00  0.00    +0.000 N 
ATOM      4  H   UNL     1       1.649   9.495  19.449  0.00  0.00    +0.000 HD
ENDROOT
BRANCH   3   5
ATOM      5  C   UNL     1       0.383   9.876  21.058  0.00  0.00    +0.000 A 
ATOM      6  C   UNL     1       0.182   9.647  22.426  0.00  0.00    +0.000 A 
ATOM      7  C   UNL     1      -0.707  10.439  23.159  0.00  0.00    +0.000 A 
ATOM      8  C   UNL     1      -1.414  11.457  22.511  0.00  0.00    +0.000 A 
ATOM      9  C   UNL     1      -1.226  11.701  21.144  0.00  0.00    +0.000 A 
ATOM     10  C   UNL     1      -0.312  10.922  20.431  0.00  0.00    +0.000 A 
ATOM     11 CL   UNL     1      -0.123  11.229  18.738  0.00  0.00    +0.000 Cl
BRANCH   8  12
ATOM     12  N   UNL     1      -2.358  12.284  23.267  0.00  0.00    +0.000 N 
ATOM     13  O   UNL     1      -2.095  13.491  23.393  0.00  0.00    +0.000 OA
ATOM     14  O   UNL     1      -3.365  11.735  23.733  0.00  0.00    +0.000 OA
ENDBRANCH   8  12
ENDBRANCH   3   5
BRANCH   2  15
ATOM     15  C   UNL     1       2.428   7.046  19.558  0.00  0.00    +0.000 A 
ATOM     16  C   UNL     1       2.748   7.735  18.372  0.00  0.00    +0.000 A 
ATOM     17  C   UNL     1       3.670   7.222  17.461  0.00  0.00    +0.000 A 
ATOM     18  C   UNL     1       4.295   6.009  17.726  0.00  0.00    +0.000 A 
ATOM     19  C   UNL     1       3.994   5.308  18.907  0.00  0.00    +0.000 A 
ATOM     20  C   UNL     1       3.053   5.815  19.830  0.00  0.00    +0.000 A 
BRANCH  19  21
ATOM     21  N   UNL     1       4.696   4.042  19.154  0.00  0.00    +0.000 N 
ATOM     22  O   UNL     1       4.020   3.034  19.386  0.00  0.00    +0.000 OA
ATOM     23  O   UNL     1       5.936   4.068  19.108  0.00  0.00    +0.000 OA
ENDBRANCH  19  21
BRANCH  20  24
ATOM     24  O   UNL     1       2.727   5.165  20.998  0.00  0.00    +0.000 OA
ATOM     25  H   UNL     1       2.187   5.748  21.579  0.00  0.00    +0.000 HD
ENDBRANCH  20  24
ENDBRANCH   2  15
TORSDOF 5
ENDMDL
MODEL 8
REMARK VINA RESULT:      -6.9      2.055      8.068
REMARK  Name = 
REMARK  5 active torsions:
REMARK  status: ('A' for Active; 'I' for Inactive)
REMARK    1  A    between atoms: C_2  and  C_14
REMARK    2  A    between atoms: N_3  and  C_4
REMARK    3  A    between atoms: C_7  and  N_8
REMARK    4  A    between atoms: C_18  and  N_19
REMARK    5  A    between atoms: C_22  and  O_23
REMARK                            x       y       z     vdW  Elec       q    Type
REMARK                         _______ _______ _______ _____ _____    ______ ____
ROOT
ATOM      1  O   UNL     1       1.457   5.373  20.741  0.00  0.00    +0.000 OA
ATOM      2  C   UNL     1       2.096   5.810  19.787  0.00  0.00    +0.000 C 
ATOM      3  N   UNL     1       2.184   7.146  19.460  0.00  0.00    +0.000 N 
ATOM      4  H   UNL     1       2.483   7.361  18.509  0.00  0.00    +0.000 HD
ENDROOT
BRANCH   3   5
ATOM      5  C   UNL     1       1.594   8.194  20.198  0.00  0.00    +0.000 A 
ATOM      6  C   UNL     1       1.531   8.156  21.597  0.00  0.00    +0.000 A 
ATOM      7  C   UNL     1       0.943   9.202  22.314  0.00  0.00    +0.000 A 
ATOM      8  C   UNL     1       0.394  10.286  21.621  0.00  0.00    +0.000 A 
ATOM      9  C   UNL     1       0.447  10.342  20.222  0.00  0.00    +0.000 A 
ATOM     10  C   UNL     1       1.066   9.305  19.520  0.00  0.00    +0.000 A 
ATOM     11 CL   UNL     1       1.090   9.389  17.792  0.00  0.00    +0.000 Cl
BRANCH   8  12
ATOM     12  N   UNL     1      -0.238  11.380  22.362  0.00  0.00    +0.000 N 
ATOM     13  O   UNL     1       0.015  12.542  22.003  0.00  0.00    +0.000 OA
ATOM     14  O   UNL     1      -0.990  11.087  23.300  0.00  0.00    +0.000 OA
ENDBRANCH   8  12
ENDBRANCH   3   5
BRANCH   2  15
ATOM     15  C   UNL     1       2.790   4.836  18.885  0.00  0.00    +0.000 A 
ATOM     16  C   UNL     1       2.068   3.664  18.586  0.00  0.00    +0.000 A 
ATOM     17  C   UNL     1       2.594   2.679  17.753  0.00  0.00    +0.000 A 
ATOM     18  C   UNL     1       3.855   2.854  17.195  0.00  0.00    +0.000 A 
ATOM     19  C   UNL     1       4.591   4.019  17.476  0.00  0.00    +0.000 A 
ATOM     20  C   UNL     1       4.070   5.016  18.328  0.00  0.00    +0.000 A 
BRANCH  19  21
ATOM     21  N   UNL     1       5.909   4.168  16.846  0.00  0.00    +0.000 N 
ATOM     22  O   UNL     1       6.879   4.417  17.571  0.00  0.00    +0.000 OA
ATOM     23  O   UNL     1       5.964   4.027  15.615  0.00  0.00    +0.000 OA
ENDBRANCH  19  21
BRANCH  20  24
ATOM     24  O   UNL     1       4.753   6.171  18.631  0.00  0.00    +0.000 OA
ATOM     25  H   UNL     1       4.701   6.361  19.595  0.00  0.00    +0.000 HD
ENDBRANCH  20  24
ENDBRANCH   2  15
TORSDOF 5
ENDMDL
MODEL 9
REMARK VINA RESULT:      -6.9      2.477      8.130
REMARK  Name = 
REMARK  5 active torsions:
REMARK  status: ('A' for Active; 'I' for Inactive)
REMARK    1  A    between atoms: C_2  and  C_14
REMARK    2  A    between atoms: N_3  and  C_4
REMARK    3  A    between atoms: C_7  and  N_8
REMARK    4  A    between atoms: C_18  and  N_19
REMARK    5  A    between atoms: C_22  and  O_23
REMARK                            x       y       z     vdW  Elec       q    Type
REMARK                         _______ _______ _______ _____ _____    ______ ____
ROOT
ATOM      1  O   UNL     1       0.667   5.660  20.524  0.00  0.00    +0.000 OA
ATOM      2  C   UNL     1       1.828   6.028  20.362  0.00  0.00    +0.000 C 
ATOM      3  N   UNL     1       2.247   7.338  20.451  0.00  0.00    +0.000 N 
ATOM      4  H   UNL     1       3.144   7.557  20.018  0.00  0.00    +0.000 HD
ENDROOT
BRANCH   3   5
ATOM      5  C   UNL     1       1.412   8.426  20.783  0.00  0.00    +0.000 A 
ATOM      6  C   UNL     1       1.019   8.668  22.105  0.00  0.00    +0.000 A 
ATOM      7  C   UNL     1       0.191   9.750  22.418  0.00  0.00    +0.000 A 
ATOM      8  C   UNL     1      -0.261  10.587  21.392  0.00  0.00    +0.000 A 
ATOM      9  C   UNL     1       0.121  10.361  20.064  0.00  0.00    +0.000 A 
ATOM     10  C   UNL     1       0.973   9.295  19.770  0.00  0.00    +0.000 A 
ATOM     11 CL   UNL     1       1.405   9.025  18.116  0.00  0.00    +0.000 Cl
BRANCH   8  12
ATOM     12  N   UNL     1      -1.141  11.715  21.707  0.00  0.00    +0.000 N 
ATOM     13  O   UNL     1      -1.084  12.187  22.854  0.00  0.00    +0.000 OA
ATOM     14  O   UNL     1      -1.886  12.137  20.813  0.00  0.00    +0.000 OA
ENDBRANCH   8  12
ENDBRANCH   3   5
BRANCH   2  15
ATOM     15  C   UNL     1       2.858   5.002  19.998  0.00  0.00    +0.000 A 
ATOM     16  C   UNL     1       2.711   3.747  20.621  0.00  0.00    +0.000 A 
ATOM     17  C   UNL     1       3.596   2.701  20.364  0.00  0.00    +0.000 A 
ATOM     18  C   UNL     1       4.644   2.892  19.471  0.00  0.00    +0.000 A 
ATOM     19  C   UNL     1       4.805   4.135  18.835  0.00  0.00    +0.000 A 
ATOM     20  C   UNL     1       3.921   5.203  19.097  0.00  0.00    +0.000 A 
BRANCH  19  21
ATOM     21  N   UNL     1       5.914   4.282  17.883  0.00  0.00    +0.000 N 
ATOM     22  O   UNL     1       7.065   4.340  18.330  0.00  0.00    +0.000 OA
ATOM     23  O   UNL     1       5.619   4.335  16.679  0.00  0.00    +0.000 OA
ENDBRANCH  19  21
BRANCH  20  24
ATOM     24  O   UNL     1       4.038   6.436  18.498  0.00  0.00    +0.000 OA
ATOM     25  H   UNL     1       4.036   7.151  19.175  0.00  0.00    +0.000 HD
ENDBRANCH  20  24
ENDBRANCH   2  15
TORSDOF 5
ENDMDL
