MODEL 1
REMARK VINA RESULT:      -7.5      0.000      0.000
REMARK  Name = 
REMARK  4 active torsions:
REMARK  status: ('A' for Active; 'I' for Inactive)
REMARK    1  A    between atoms: C_2  and  C_15
REMARK    2  A    between atoms: N_3  and  C_4
REMARK    3  A    between atoms: C_4  and  C_5
REMARK    4  A    between atoms: C_20  and  C_22
REMARK                            x       y       z     vdW  Elec       q    Type
REMARK                         _______ _______ _______ _____ _____    ______ ____
ROOT
ATOM      1  O   UNL     1       2.174   6.020  17.723  0.00  0.00    +0.000 OA
ATOM      2  C   UNL     1       2.815   6.983  18.114  0.00  0.00    +0.000 C 
ATOM      3  N   UNL     1       4.054   7.351  17.590  0.00  0.00    +0.000 N 
ATOM      4  H   UNL     1       4.284   8.320  17.677  0.00  0.00    +0.000 HD
ENDROOT
BRANCH   2   5
ATOM      5  C   UNL     1       2.414   7.831  19.350  0.00  0.00    +0.000 C 
ATOM      6  C   UNL     1       1.859   6.852  20.402  0.00  0.00    +0.000 C 
ATOM      7  C   UNL     1       1.173   7.748  21.410  0.00  0.00    +0.000 C 
ATOM      8  C   UNL     1       0.685   8.918  20.588  0.00  0.00    +0.000 C 
ATOM      9  N   UNL     1       1.350   8.838  19.296  0.00  0.00    +0.000 N 
ATOM     10  C   UNL     1       1.404   9.907  18.392  0.00  0.00    +0.000 C 
ATOM     11  O   UNL     1       2.127   9.796  17.396  0.00  0.00    +0.000 OA
BRANCH  10  12
ATOM     12  C   UNL     1       0.677  11.146  18.714  0.00  0.00    +0.000 A 
ATOM     13  C   UNL     1      -0.657  11.510  18.590  0.00  0.00    +0.000 A 
ATOM     14  C   UNL     1      -0.978  12.728  19.259  0.00  0.00    +0.000 A 
ATOM     15  C   UNL     1       0.146  13.334  19.761  0.00  0.00    +0.000 A 
ATOM     16  S   UNL     1       1.561  12.433  19.450  0.00  0.00    +0.000 S 
ENDBRANCH  10  12
ENDBRANCH   2   5
BRANCH   3  17
ATOM     17  C   UNL     1       4.623   6.674  16.423  0.00  0.00    +0.000 C 
BRANCH  17  18
ATOM     18  C   UNL     1       5.390   5.361  16.689  0.00  0.00    +0.000 C 
ATOM     19  C   UNL     1       6.915   5.495  16.713  0.00  0.00    +0.000 C 
ATOM     20  O   UNL     1       7.457   5.832  15.434  0.00  0.00    +0.000 OA
ATOM     21  C   UNL     1       6.946   5.026  14.455  0.00  0.00    +0.000 A 
ATOM     22  C   UNL     1       7.665   4.947  13.259  0.00  0.00    +0.000 A 
ATOM     23  C   UNL     1       7.178   4.171  12.207  0.00  0.00    +0.000 A 
ATOM     24  C   UNL     1       5.982   3.467  12.347  0.00  0.00    +0.000 A 
ATOM     25  C   UNL     1       5.269   3.544  13.546  0.00  0.00    +0.000 A 
ATOM     26  C   UNL     1       5.745   4.330  14.597  0.00  0.00    +0.000 A 
ATOM     27  O   UNL     1       4.980   4.369  15.728  0.00  0.00    +0.000 OA
ENDBRANCH  17  18
ENDBRANCH   3  17
TORSDOF 4
ENDMDL
MODEL 2
REMARK VINA RESULT:      -7.4      2.546      4.220
REMARK  Name = 
REMARK  4 active torsions:
REMARK  status: ('A' for Active; 'I' for Inactive)
REMARK    1  A    between atoms: C_2  and  C_15
REMARK    2  A    between atoms: N_3  and  C_4
REMARK    3  A    between atoms: C_4  and  C_5
REMARK    4  A    between atoms: C_20  and  C_22
REMARK                            x       y       z     vdW  Elec       q    Type
REMARK                         _______ _______ _______ _____ _____    ______ ____
ROOT
ATOM      1  O   UNL     1       1.681   6.628  17.723  0.00  0.00    +0.000 OA
ATOM      2  C   UNL     1       2.511   7.162  18.443  0.00  0.00    +0.000 C 
ATOM      3  N   UNL     1       3.873   6.866  18.404  0.00  0.00    +0.000 N 
ATOM      4  H   UNL     1       4.479   7.600  18.709  0.00  0.00    +0.000 HD
ENDROOT
BRANCH   2   5
ATOM      5  C   UNL     1       2.142   8.123  19.604  0.00  0.00    +0.000 C 
ATOM      6  C   UNL     1       1.464   7.269  20.693  0.00  0.00    +0.000 C 
ATOM      7  C   UNL     1       0.825   8.287  21.611  0.00  0.00    +0.000 C 
ATOM      8  C   UNL     1       0.473   9.437  20.696  0.00  0.00    +0.000 C 
ATOM      9  N   UNL     1       1.175   9.213  19.441  0.00  0.00    +0.000 N 
ATOM     10  C   UNL     1       1.357  10.209  18.473  0.00  0.00    +0.000 C 
ATOM     11  O   UNL     1       2.102   9.969  17.518  0.00  0.00    +0.000 OA
BRANCH  10  12
ATOM     12  C   UNL     1       0.732  11.526  18.684  0.00  0.00    +0.000 A 
ATOM     13  C   UNL     1      -0.571  11.981  18.532  0.00  0.00    +0.000 A 
ATOM     14  C   UNL     1      -0.789  13.275  19.089  0.00  0.00    +0.000 A 
ATOM     15  C   UNL     1       0.384  13.834  19.530  0.00  0.00    +0.000 A 
ATOM     16  S   UNL     1       1.721  12.800  19.298  0.00  0.00    +0.000 S 
ENDBRANCH  10  12
ENDBRANCH   2   5
BRANCH   3  17
ATOM     17  C   UNL     1       4.433   5.973  17.388  0.00  0.00    +0.000 C 
BRANCH  17  18
ATOM     18  C   UNL     1       4.831   4.557  17.852  0.00  0.00    +0.000 C 
ATOM     19  C   UNL     1       4.292   3.414  16.987  0.00  0.00    +0.000 C 
ATOM     20  O   UNL     1       2.869   3.295  17.059  0.00  0.00    +0.000 OA
ATOM     21  C   UNL     1       2.438   3.314  18.357  0.00  0.00    +0.000 A 
ATOM     22  C   UNL     1       1.164   2.799  18.609  0.00  0.00    +0.000 A 
ATOM     23  C   UNL     1       0.651   2.822  19.906  0.00  0.00    +0.000 A 
ATOM     24  C   UNL     1       1.408   3.348  20.953  0.00  0.00    +0.000 A 
ATOM     25  C   UNL     1       2.685   3.856  20.697  0.00  0.00    +0.000 A 
ATOM     26  C   UNL     1       3.196   3.848  19.399  0.00  0.00    +0.000 A 
ATOM     27  O   UNL     1       4.443   4.381  19.228  0.00  0.00    +0.000 OA
ENDBRANCH  17  18
ENDBRANCH   3  17
TORSDOF 4
ENDMDL
MODEL 3
REMARK VINA RESULT:      -7.3      2.205      3.027
REMARK  Name = 
REMARK  4 active torsions:
REMARK  status: ('A' for Active; 'I' for Inactive)
REMARK    1  A    between atoms: C_2  and  C_15
REMARK    2  A    between atoms: N_3  and  C_4
REMARK    3  A    between atoms: C_4  and  C_5
REMARK    4  A    between atoms: C_20  and  C_22
REMARK                            x       y       z     vdW  Elec       q    Type
REMARK                         _______ _______ _______ _____ _____    ______ ____
ROOT
ATOM      1  O   UNL     1       3.289   7.345  17.593  0.00  0.00    +0.000 OA
ATOM      2  C   UNL     1       2.568   7.061  18.538  0.00  0.00    +0.000 C 
ATOM      3  N   UNL     1       1.883   5.851  18.651  0.00  0.00    +0.000 N 
ATOM      4  H   UNL     1       1.673   5.565  19.585  0.00  0.00    +0.000 HD
ENDROOT
BRANCH   2   5
ATOM      5  C   UNL     1       2.193   8.067  19.658  0.00  0.00    +0.000 C 
ATOM      6  C   UNL     1       1.604   7.243  20.819  0.00  0.00    +0.000 C 
ATOM      7  C   UNL     1       0.946   8.278  21.705  0.00  0.00    +0.000 C 
ATOM      8  C   UNL     1       0.499   9.353  20.743  0.00  0.00    +0.000 C 
ATOM      9  N   UNL     1       1.163   9.094  19.475  0.00  0.00    +0.000 N 
ATOM     10  C   UNL     1       1.255  10.042  18.447  0.00  0.00    +0.000 C 
ATOM     11  O   UNL     1       1.975   9.786  17.477  0.00  0.00    +0.000 OA
BRANCH  10  12
ATOM     12  C   UNL     1       0.568  11.334  18.610  0.00  0.00    +0.000 A 
ATOM     13  C   UNL     1      -0.769  11.702  18.541  0.00  0.00    +0.000 A 
ATOM     14  C   UNL     1      -1.019  13.023  19.013  0.00  0.00    +0.000 A 
ATOM     15  C   UNL     1       0.150  13.682  19.302  0.00  0.00    +0.000 A 
ATOM     16  S   UNL     1       1.525  12.708  19.032  0.00  0.00    +0.000 S 
ENDBRANCH  10  12
ENDBRANCH   2   5
BRANCH   3  17
ATOM     17  C   UNL     1       2.087   4.765  17.691  0.00  0.00    +0.000 C 
BRANCH  17  18
ATOM     18  C   UNL     1       2.957   3.580  18.160  0.00  0.00    +0.000 C 
ATOM     19  C   UNL     1       3.435   3.661  19.612  0.00  0.00    +0.000 C 
ATOM     20  O   UNL     1       4.357   4.732  19.828  0.00  0.00    +0.000 OA
ATOM     21  C   UNL     1       5.340   4.735  18.877  0.00  0.00    +0.000 A 
ATOM     22  C   UNL     1       6.513   5.431  19.179  0.00  0.00    +0.000 A 
ATOM     23  C   UNL     1       7.539   5.503  18.237  0.00  0.00    +0.000 A 
ATOM     24  C   UNL     1       7.402   4.876  16.998  0.00  0.00    +0.000 A 
ATOM     25  C   UNL     1       6.230   4.176  16.702  0.00  0.00    +0.000 A 
ATOM     26  C   UNL     1       5.195   4.113  17.637  0.00  0.00    +0.000 A 
ATOM     27  O   UNL     1       4.073   3.426  17.263  0.00  0.00    +0.000 OA
ENDBRANCH  17  18
ENDBRANCH   3  17
TORSDOF 4
ENDMDL
MODEL 4
REMARK VINA RESULT:      -7.2      3.254      4.912
REMARK  Name = 
REMARK  4 active torsions:
REMARK  status: ('A' for Active; 'I' for Inactive)
REMARK    1  A    between atoms: C_2  and  C_15
REMARK    2  A    between atoms: N_3  and  C_4
REMARK    3  A    between atoms: C_4  and  C_5
REMARK    4  A    between atoms: C_20  and  C_22
REMARK                            x       y       z     vdW  Elec       q    Type
REMARK                         _______ _______ _______ _____ _____    ______ ____
ROOT
ATOM      1  O   UNL     1       2.020  10.391  17.643  0.00  0.00    +0.000 OA
ATOM      2  C   UNL     1       1.309   9.580  18.218  0.00  0.00    +0.000 C 
ATOM      3  N   UNL     1       1.601   8.218  18.300  0.00  0.00    +0.000 N 
ATOM      4  H   UNL     1       1.210   7.744  19.088  0.00  0.00    +0.000 HD
ENDROOT
BRANCH   2   5
ATOM      5  C   UNL     1      -0.089   9.926  18.795  0.00  0.00    +0.000 C 
ATOM      6  C   UNL     1      -1.063   9.984  17.602  0.00  0.00    +0.000 C 
ATOM      7  C   UNL     1      -2.293  10.659  18.167  0.00  0.00    +0.000 C 
ATOM      8  C   UNL     1      -1.748  11.588  19.226  0.00  0.00    +0.000 C 
ATOM      9  N   UNL     1      -0.365  11.202  19.462  0.00  0.00    +0.000 N 
ATOM     10  C   UNL     1       0.366  11.610  20.586  0.00  0.00    +0.000 C 
ATOM     11  O   UNL     1       1.475  11.101  20.779  0.00  0.00    +0.000 OA
BRANCH  10  12
ATOM     12  C   UNL     1      -0.254  12.551  21.533  0.00  0.00    +0.000 A 
ATOM     13  C   UNL     1      -1.109  12.370  22.611  0.00  0.00    +0.000 A 
ATOM     14  C   UNL     1      -1.268  13.538  23.412  0.00  0.00    +0.000 A 
ATOM     15  C   UNL     1      -0.639  14.621  22.849  0.00  0.00    +0.000 A 
ATOM     16  S   UNL     1       0.151  14.224  21.390  0.00  0.00    +0.000 S 
ENDBRANCH  10  12
ENDBRANCH   2   5
BRANCH   3  17
ATOM     17  C   UNL     1       2.869   7.676  17.807  0.00  0.00    +0.000 C 
BRANCH  17  18
ATOM     18  C   UNL     1       3.668   6.787  18.781  0.00  0.00    +0.000 C 
ATOM     19  C   UNL     1       4.550   5.727  18.116  0.00  0.00    +0.000 C 
ATOM     20  O   UNL     1       3.788   4.719  17.446  0.00  0.00    +0.000 OA
ATOM     21  C   UNL     1       2.788   4.243  18.249  0.00  0.00    +0.000 A 
ATOM     22  C   UNL     1       2.241   3.003  17.912  0.00  0.00    +0.000 A 
ATOM     23  C   UNL     1       1.193   2.478  18.668  0.00  0.00    +0.000 A 
ATOM     24  C   UNL     1       0.696   3.183  19.765  0.00  0.00    +0.000 A 
ATOM     25  C   UNL     1       1.250   4.421  20.102  0.00  0.00    +0.000 A 
ATOM     26  C   UNL     1       2.289   4.955  19.339  0.00  0.00    +0.000 A 
ATOM     27  O   UNL     1       2.763   6.179  19.722  0.00  0.00    +0.000 OA
ENDBRANCH  17  18
ENDBRANCH   3  17
TORSDOF 4
ENDMDL
MODEL 5
REMARK VINA RESULT:      -7.1      2.866      4.468
REMARK  Name = 
REMARK  4 active torsions:
REMARK  status: ('A' for Active; 'I' for Inactive)
REMARK    1  A    between atoms: C_2  and  C_15
REMARK    2  A    between atoms: N_3  and  C_4
REMARK    3  A    between atoms: C_4  and  C_5
REMARK    4  A    between atoms: C_20  and  C_22
REMARK                            x       y       z     vdW  Elec       q    Type
REMARK                         _______ _______ _______ _____ _____    ______ ____
ROOT
ATOM      1  O   UNL     1       1.603   9.770  17.935  0.00  0.00    +0.000 OA
ATOM      2  C   UNL     1       0.950   9.502  18.932  0.00  0.00    +0.000 C 
ATOM      3  N   UNL     1       1.266   8.461  19.805  0.00  0.00    +0.000 N 
ATOM      4  H   UNL     1       0.944   8.579  20.744  0.00  0.00    +0.000 HD
ENDROOT
BRANCH   2   5
ATOM      5  C   UNL     1      -0.403  10.180  19.275  0.00  0.00    +0.000 C 
ATOM      6  C   UNL     1      -1.131  10.424  17.939  0.00  0.00    +0.000 C 
ATOM      7  C   UNL     1      -2.245  11.381  18.299  0.00  0.00    +0.000 C 
ATOM      8  C   UNL     1      -1.678  12.192  19.441  0.00  0.00    +0.000 C 
ATOM      9  N   UNL     1      -0.479  11.504  19.898  0.00  0.00    +0.000 N 
ATOM     10  C   UNL     1       0.136  11.766  21.129  0.00  0.00    +0.000 C 
ATOM     11  O   UNL     1       1.049  11.021  21.498  0.00  0.00    +0.000 OA
BRANCH  10  12
ATOM     12  C   UNL     1      -0.393  12.854  21.969  0.00  0.00    +0.000 A 
ATOM     13  C   UNL     1      -1.329  12.877  22.994  0.00  0.00    +0.000 A 
ATOM     14  C   UNL     1      -1.359  14.111  23.707  0.00  0.00    +0.000 A 
ATOM     15  C   UNL     1      -0.544  15.047  23.122  0.00  0.00    +0.000 A 
ATOM     16  S   UNL     1       0.264  14.435  21.750  0.00  0.00    +0.000 S 
ENDBRANCH  10  12
ENDBRANCH   2   5
BRANCH   3  17
ATOM     17  C   UNL     1       2.498   7.685  19.657  0.00  0.00    +0.000 C 
BRANCH  17  18
ATOM     18  C   UNL     1       2.512   6.609  18.551  0.00  0.00    +0.000 C 
ATOM     19  C   UNL     1       2.727   5.175  19.044  0.00  0.00    +0.000 C 
ATOM     20  O   UNL     1       4.033   4.972  19.589  0.00  0.00    +0.000 OA
ATOM     21  C   UNL     1       4.997   5.465  18.754  0.00  0.00    +0.000 A 
ATOM     22  C   UNL     1       6.297   4.984  18.932  0.00  0.00    +0.000 A 
ATOM     23  C   UNL     1       7.333   5.474  18.138  0.00  0.00    +0.000 A 
ATOM     24  C   UNL     1       7.075   6.435  17.160  0.00  0.00    +0.000 A 
ATOM     25  C   UNL     1       5.773   6.909  16.981  0.00  0.00    +0.000 A 
ATOM     26  C   UNL     1       4.736   6.432  17.783  0.00  0.00    +0.000 A 
ATOM     27  O   UNL     1       3.495   6.960  17.559  0.00  0.00    +0.000 OA
ENDBRANCH  17  18
ENDBRANCH   3  17
TORSDOF 4
ENDMDL
MODEL 6
REMARK VINA RESULT:      -7.1      2.033      3.348
REMARK  Name = 
REMARK  4 active torsions:
REMARK  status: ('A' for Active; 'I' for Inactive)
REMARK    1  A    between atoms: C_2  and  C_15
REMARK    2  A    between atoms: N_3  and  C_4
REMARK    3  A    between atoms: C_4  and  C_5
REMARK    4  A    between atoms: C_20  and  C_22
REMARK                            x       y       z     vdW  Elec       q    Type
REMARK                         _______ _______ _______ _____ _____    ______ ____
ROOT
ATOM      1  O   UNL     1       4.378   3.184  17.505  0.00  0.00    +0.000 OA
ATOM      2  C   UNL     1       4.736   4.029  18.311  0.00  0.00    +0.000 C 
ATOM      3  N   UNL     1       5.955   4.704  18.233  0.00  0.00    +0.000 N 
ATOM      4  H   UNL     1       5.972   5.606  18.662  0.00  0.00    +0.000 HD
ENDROOT
BRANCH   2   5
ATOM      5  C   UNL     1       3.958   4.352  19.614  0.00  0.00    +0.000 C 
ATOM      6  C   UNL     1       3.305   3.036  20.081  0.00  0.00    +0.000 C 
ATOM      7  C   UNL     1       2.298   3.476  21.121  0.00  0.00    +0.000 C 
ATOM      8  C   UNL     1       1.868   4.848  20.656  0.00  0.00    +0.000 C 
ATOM      9  N   UNL     1       2.816   5.270  19.636  0.00  0.00    +0.000 N 
ATOM     10  C   UNL     1       2.940   6.597  19.203  0.00  0.00    +0.000 C 
ATOM     11  O   UNL     1       3.880   6.883  18.455  0.00  0.00    +0.000 OA
BRANCH  10  12
ATOM     12  C   UNL     1       2.007   7.606  19.732  0.00  0.00    +0.000 A 
ATOM     13  C   UNL     1       1.430   7.787  20.982  0.00  0.00    +0.000 A 
ATOM     14  C   UNL     1       0.776   9.045  21.129  0.00  0.00    +0.000 A 
ATOM     15  C   UNL     1       0.750   9.737  19.943  0.00  0.00    +0.000 A 
ATOM     16  S   UNL     1       1.526   8.890  18.682  0.00  0.00    +0.000 S 
ENDBRANCH  10  12
ENDBRANCH   2   5
BRANCH   3  17
ATOM     17  C   UNL     1       6.849   4.538  17.085  0.00  0.00    +0.000 C 
BRANCH  17  18
ATOM     18  C   UNL     1       6.797   5.634  16.002  0.00  0.00    +0.000 C 
ATOM     19  C   UNL     1       5.390   6.050  15.565  0.00  0.00    +0.000 C 
ATOM     20  O   UNL     1       4.697   5.005  14.878  0.00  0.00    +0.000 OA
ATOM     21  C   UNL     1       5.482   4.450  13.906  0.00  0.00    +0.000 A 
ATOM     22  C   UNL     1       4.831   3.732  12.898  0.00  0.00    +0.000 A 
ATOM     23  C   UNL     1       5.577   3.111  11.897  0.00  0.00    +0.000 A 
ATOM     24  C   UNL     1       6.969   3.210  11.892  0.00  0.00    +0.000 A 
ATOM     25  C   UNL     1       7.615   3.934  12.898  0.00  0.00    +0.000 A 
ATOM     26  C   UNL     1       6.873   4.546  13.909  0.00  0.00    +0.000 A 
ATOM     27  O   UNL     1       7.581   5.218  14.867  0.00  0.00    +0.000 OA
ENDBRANCH  17  18
ENDBRANCH   3  17
TORSDOF 4
ENDMDL
MODEL 7
REMARK VINA RESULT:      -7.1      2.361      3.959
REMARK  Name = 
REMARK  4 active torsions:
REMARK  status: ('A' for Active; 'I' for Inactive)
REMARK    1  A    between atoms: C_2  and  C_15
REMARK    2  A    between atoms: N_3  and  C_4
REMARK    3  A    between atoms: C_4  and  C_5
REMARK    4  A    between atoms: C_20  and  C_22
REMARK                            x       y       z     vdW  Elec       q    Type
REMARK                         _______ _______ _______ _____ _____    ______ ____
ROOT
ATOM      1  O   UNL     1       1.854   9.754  17.532  0.00  0.00    +0.000 OA
ATOM      2  C   UNL     1       1.225   9.324  18.487  0.00  0.00    +0.000 C 
ATOM      3  N   UNL     1       1.587   8.181  19.200  0.00  0.00    +0.000 N 
ATOM      4  H   UNL     1       1.275   8.153  20.149  0.00  0.00    +0.000 HD
ENDROOT
BRANCH   2   5
ATOM      5  C   UNL     1      -0.145   9.899  18.935  0.00  0.00    +0.000 C 
ATOM      6  C   UNL     1      -0.955  10.174  17.653  0.00  0.00    +0.000 C 
ATOM      7  C   UNL     1      -2.102  11.040  18.124  0.00  0.00    +0.000 C 
ATOM      8  C   UNL     1      -1.522  11.818  19.282  0.00  0.00    +0.000 C 
ATOM      9  N   UNL     1      -0.264  11.179  19.638  0.00  0.00    +0.000 N 
ATOM     10  C   UNL     1       0.399  11.408  20.851  0.00  0.00    +0.000 C 
ATOM     11  O   UNL     1       1.372  10.700  21.129  0.00  0.00    +0.000 OA
BRANCH  10  12
ATOM     12  C   UNL     1      -0.147  12.413  21.779  0.00  0.00    +0.000 A 
ATOM     13  C   UNL     1       0.062  13.779  21.911  0.00  0.00    +0.000 A 
ATOM     14  C   UNL     1      -0.865  14.413  22.789  0.00  0.00    +0.000 A 
ATOM     15  C   UNL     1      -1.672  13.495  23.412  0.00  0.00    +0.000 A 
ATOM     16  S   UNL     1      -1.331  11.896  22.924  0.00  0.00    +0.000 S 
ENDBRANCH  10  12
ENDBRANCH   2   5
BRANCH   3  17
ATOM     17  C   UNL     1       2.842   7.478  18.931  0.00  0.00    +0.000 C 
BRANCH  17  18
ATOM     18  C   UNL     1       2.760   5.944  18.783  0.00  0.00    +0.000 C 
ATOM     19  C   UNL     1       3.525   5.149  19.845  0.00  0.00    +0.000 C 
ATOM     20  O   UNL     1       4.941   5.321  19.746  0.00  0.00    +0.000 OA
ATOM     21  C   UNL     1       5.368   5.158  18.458  0.00  0.00    +0.000 A 
ATOM     22  C   UNL     1       6.726   4.883  18.269  0.00  0.00    +0.000 A 
ATOM     23  C   UNL     1       7.233   4.742  16.978  0.00  0.00    +0.000 A 
ATOM     24  C   UNL     1       6.388   4.865  15.874  0.00  0.00    +0.000 A 
ATOM     25  C   UNL     1       5.030   5.134  16.066  0.00  0.00    +0.000 A 
ATOM     26  C   UNL     1       4.522   5.289  17.357  0.00  0.00    +0.000 A 
ATOM     27  O   UNL     1       3.188   5.570  17.460  0.00  0.00    +0.000 OA
ENDBRANCH  17  18
ENDBRANCH   3  17
TORSDOF 4
ENDMDL
MODEL 8
REMARK VINA RESULT:      -7.1      2.802      8.549
REMARK  Name = 
REMARK  4 active torsions:
REMARK  status: ('A' for Active; 'I' for Inactive)
REMARK    1  A    between atoms: C_2  and  C_15
REMARK    2  A    between atoms: N_3  and  C_4
REMARK    3  A    between atoms: C_4  and  C_5
REMARK    4  A    between atoms: C_20  and  C_22
REMARK                            x       y       z     vdW  Elec       q    Type
REMARK                         _______ _______ _______ _____ _____    ______ ____
ROOT
ATOM      1  O   UNL     1       1.988   7.540  21.521  0.00  0.00    +0.000 OA
ATOM      2  C   UNL     1       1.901   7.239  20.339  0.00  0.00    +0.000 C 
ATOM      3  N   UNL     1       1.428   8.107  19.354  0.00  0.00    +0.000 N 
ATOM      4  H   UNL     1       1.766   7.929  18.431  0.00  0.00    +0.000 HD
ENDROOT
BRANCH   2   5
ATOM      5  C   UNL     1       2.151   5.806  19.802  0.00  0.00    +0.000 C 
ATOM      6  C   UNL     1       1.960   4.844  20.990  0.00  0.00    +0.000 C 
ATOM      7  C   UNL     1       2.552   3.539  20.504  0.00  0.00    +0.000 C 
ATOM      8  C   UNL     1       3.653   3.965  19.562  0.00  0.00    +0.000 C 
ATOM      9  N   UNL     1       3.456   5.381  19.287  0.00  0.00    +0.000 N 
ATOM     10  C   UNL     1       4.072   6.050  18.221  0.00  0.00    +0.000 C 
ATOM     11  O   UNL     1       3.717   7.207  17.974  0.00  0.00    +0.000 OA
BRANCH  10  12
ATOM     12  C   UNL     1       5.040   5.318  17.388  0.00  0.00    +0.000 A 
ATOM     13  C   UNL     1       4.898   4.549  16.241  0.00  0.00    +0.000 A 
ATOM     14  C   UNL     1       6.139   4.228  15.616  0.00  0.00    +0.000 A 
ATOM     15  C   UNL     1       7.204   4.642  16.376  0.00  0.00    +0.000 A 
ATOM     16  S   UNL     1       6.712   5.429  17.807  0.00  0.00    +0.000 S 
ENDBRANCH  10  12
ENDBRANCH   2   5
BRANCH   3  17
ATOM     17  C   UNL     1       1.123   9.508  19.652  0.00  0.00    +0.000 C 
BRANCH  17  18
ATOM     18  C   UNL     1       0.950  10.452  18.444  0.00  0.00    +0.000 C 
ATOM     19  C   UNL     1       0.720  11.923  18.797  0.00  0.00    +0.000 C 
ATOM     20  O   UNL     1      -0.533  12.142  19.451  0.00  0.00    +0.000 OA
ATOM     21  C   UNL     1      -1.552  11.526  18.780  0.00  0.00    +0.000 A 
ATOM     22  C   UNL     1      -2.848  11.979  19.040  0.00  0.00    +0.000 A 
ATOM     23  C   UNL     1      -3.936  11.368  18.416  0.00  0.00    +0.000 A 
ATOM     24  C   UNL     1      -3.734  10.312  17.527  0.00  0.00    +0.000 A 
ATOM     25  C   UNL     1      -2.436   9.866  17.265  0.00  0.00    +0.000 A 
ATOM     26  C   UNL     1      -1.346  10.466  17.897  0.00  0.00    +0.000 A 
ATOM     27  O   UNL     1      -0.111   9.958  17.603  0.00  0.00    +0.000 OA
ENDBRANCH  17  18
ENDBRANCH   3  17
TORSDOF 4
ENDMDL
MODEL 9
REMARK VINA RESULT:      -7.1      2.055      3.434
REMARK  Name = 
REMARK  4 active torsions:
REMARK  status: ('A' for Active; 'I' for Inactive)
REMARK    1  A    between atoms: C_2  and  C_15
REMARK    2  A    between atoms: N_3  and  C_4
REMARK    3  A    between atoms: C_4  and  C_5
REMARK    4  A    between atoms: C_20  and  C_22
REMARK                            x       y       z     vdW  Elec       q    Type
REMARK                         _______ _______ _______ _____ _____    ______ ____
ROOT
ATOM      1  O   UNL     1       2.010   6.120  17.940  0.00  0.00    +0.000 OA
ATOM      2  C   UNL     1       2.679   7.063  18.335  0.00  0.00    +0.000 C 
ATOM      3  N   UNL     1       3.955   7.359  17.855  0.00  0.00    +0.000 N 
ATOM      4  H   UNL     1       4.227   8.318  17.928  0.00  0.00    +0.000 HD
ENDROOT
BRANCH   2   5
ATOM      5  C   UNL     1       2.268   7.961  19.531  0.00  0.00    +0.000 C 
ATOM      6  C   UNL     1       1.609   7.040  20.576  0.00  0.00    +0.000 C 
ATOM      7  C   UNL     1       0.928   7.996  21.529  0.00  0.00    +0.000 C 
ATOM      8  C   UNL     1       0.547   9.171  20.660  0.00  0.00    +0.000 C 
ATOM      9  N   UNL     1       1.266   9.024  19.404  0.00  0.00    +0.000 N 
ATOM     10  C   UNL     1       1.424  10.066  18.480  0.00  0.00    +0.000 C 
ATOM     11  O   UNL     1       2.186   9.891  17.524  0.00  0.00    +0.000 OA
BRANCH  10  12
ATOM     12  C   UNL     1       0.753  11.351  18.740  0.00  0.00    +0.000 A 
ATOM     13  C   UNL     1       1.216  12.574  19.205  0.00  0.00    +0.000 A 
ATOM     14  C   UNL     1       0.267  13.629  19.069  0.00  0.00    +0.000 A 
ATOM     15  C   UNL     1      -0.945  13.159  18.631  0.00  0.00    +0.000 A 
ATOM     16  S   UNL     1      -0.928  11.474  18.365  0.00  0.00    +0.000 S 
ENDBRANCH  10  12
ENDBRANCH   2   5
BRANCH   3  17
ATOM     17  C   UNL     1       4.539   6.624  16.731  0.00  0.00    +0.000 C 
BRANCH  17  18
ATOM     18  C   UNL     1       5.588   5.547  17.076  0.00  0.00    +0.000 C 
ATOM     19  C   UNL     1       5.638   4.358  16.113  0.00  0.00    +0.000 C 
ATOM     20  O   UNL     1       4.453   3.560  16.164  0.00  0.00    +0.000 OA
ATOM     21  C   UNL     1       4.113   3.266  17.455  0.00  0.00    +0.000 A 
ATOM     22  C   UNL     1       3.256   2.180  17.654  0.00  0.00    +0.000 A 
ATOM     23  C   UNL     1       2.841   1.850  18.944  0.00  0.00    +0.000 A 
ATOM     24  C   UNL     1       3.286   2.594  20.038  0.00  0.00    +0.000 A 
ATOM     25  C   UNL     1       4.148   3.675  19.835  0.00  0.00    +0.000 A 
ATOM     26  C   UNL     1       4.555   4.017  18.544  0.00  0.00    +0.000 A 
ATOM     27  O   UNL     1       5.382   5.099  18.429  0.00  0.00    +0.000 OA
ENDBRANCH  17  18
ENDBRANCH   3  17
TORSDOF 4
ENDMDL
