MODEL 1
REMARK VINA RESULT:      -8.3      0.000      0.000
REMARK  Name = 
REMARK  8 active torsions:
REMARK  status: ('A' for Active; 'I' for Inactive)
REMARK    1  A    between atoms: C_1  and  N_2
REMARK    2  A    between atoms: N_2  and  C_3
REMARK    3  A    between atoms: N_2  and  S_10
REMARK    4  A    between atoms: S_10  and  C_13
REMARK    5  A    between atoms: C_17  and  C_18
REMARK    6  A    between atoms: N_20  and  C_21
REMARK    7  A    between atoms: C_24  and  S_25
REMARK    8  A    between atoms: S_25  and  C_26
REMARK                            x       y       z     vdW  Elec       q    Type
REMARK                         _______ _______ _______ _____ _____    ______ ____
ROOT
ATOM      1  C   UNL     1       6.367   6.381  17.530  0.00  0.00    +0.000 A 
ATOM      2  C   UNL     1       7.015   5.425  18.322  0.00  0.00    +0.000 A 
ATOM      3  C   UNL     1       8.116   5.799  19.086  0.00  0.00    +0.000 A 
ATOM      4  C   UNL     1       8.568   7.117  19.048  0.00  0.00    +0.000 A 
ATOM      5  C   UNL     1       7.938   8.081  18.240  0.00  0.00    +0.000 A 
ATOM      6  C   UNL     1       6.833   7.707  17.468  0.00  0.00    +0.000 A 
ENDROOT
BRANCH   5   7
ATOM      7  C   UNL     1       8.479   9.470  18.319  0.00  0.00    +0.000 C 
ATOM      8  O   UNL     1       8.121  10.245  17.434  0.00  0.00    +0.000 OA
ATOM      9  N   UNL     1       9.345   9.782  19.356  0.00  0.00    +0.000 N 
ATOM     10  H   UNL     1       9.641   9.049  19.985  0.00  0.00    +0.000 HD
BRANCH   9  11
ATOM     11  C   UNL     1       9.897  11.067  19.598  0.00  0.00    +0.000 A 
ATOM     12  C   UNL     1       9.621  11.812  20.748  0.00  0.00    +0.000 A 
ATOM     13  C   UNL     1      10.158  13.089  20.930  0.00  0.00    +0.000 A 
ATOM     14  C   UNL     1      11.005  13.643  19.972  0.00  0.00    +0.000 A 
ATOM     15  C   UNL     1      11.298  12.900  18.823  0.00  0.00    +0.000 A 
ATOM     16  C   UNL     1      10.760  11.616  18.643  0.00  0.00    +0.000 A 
BRANCH  14  17
ATOM     17  S   UNL     1      11.649  15.318  20.197  0.00  0.00    +0.000 S 
ATOM     18  C   UNL     1      10.711  16.136  18.882  0.00  0.00    +0.000 C 
ATOM     19  O   UNL     1      11.100  15.845  21.571  0.00  0.00    +0.000 OA
ENDBRANCH  14  17
ENDBRANCH   9  11
ENDBRANCH   5   7
BRANCH   1  20
ATOM     20  S   UNL     1       5.033   5.857  16.463  0.00  0.00    +0.000 S 
ATOM     21  O   UNL     1       5.130   4.420  16.329  0.00  0.00    +0.000 OA
ATOM     22  O   UNL     1       5.099   6.714  15.296  0.00  0.00    +0.000 OA
BRANCH  20  24
ATOM     23  C   UNL     1       3.136   7.626  17.286  0.00  0.00    +0.000 C 
ATOM     24  N   UNL     1       3.631   6.248  17.317  0.00  0.00    +0.000 N 
BRANCH  24  25
ATOM     25  C   UNL     1       3.103   5.349  18.288  0.00  0.00    +0.000 A 
ATOM     26  C   UNL     1       3.510   5.381  19.622  0.00  0.00    +0.000 A 
ATOM     27  C   UNL     1       2.892   4.540  20.557  0.00  0.00    +0.000 A 
ATOM     28  C   UNL     1       1.867   3.682  20.154  0.00  0.00    +0.000 A 
ATOM     29 CL   UNL     1       1.089   2.674  21.310  0.00  0.00    +0.000 Cl
ATOM     30  C   UNL     1       1.459   3.648  18.822  0.00  0.00    +0.000 A 
ATOM     31  C   UNL     1       2.081   4.482  17.890  0.00  0.00    +0.000 A 
ENDBRANCH  24  25
ENDBRANCH  20  24
ENDBRANCH   1  20
TORSDOF 6
ENDMDL
MODEL 2
REMARK VINA RESULT:      -8.1      0.402      1.196
REMARK  Name = 
REMARK  8 active torsions:
REMARK  status: ('A' for Active; 'I' for Inactive)
REMARK    1  A    between atoms: C_1  and  N_2
REMARK    2  A    between atoms: N_2  and  C_3
REMARK    3  A    between atoms: N_2  and  S_10
REMARK    4  A    between atoms: S_10  and  C_13
REMARK    5  A    between atoms: C_17  and  C_18
REMARK    6  A    between atoms: N_20  and  C_21
REMARK    7  A    between atoms: C_24  and  S_25
REMARK    8  A    between atoms: S_25  and  C_26
REMARK                            x       y       z     vdW  Elec       q    Type
REMARK                         _______ _______ _______ _____ _____    ______ ____
ROOT
ATOM      1  C   UNL     1       6.289   6.401  17.571  0.00  0.00    +0.000 A 
ATOM      2  C   UNL     1       6.913   5.460  18.398  0.00  0.00    +0.000 A 
ATOM      3  C   UNL     1       8.023   5.834  19.148  0.00  0.00    +0.000 A 
ATOM      4  C   UNL     1       8.508   7.137  19.061  0.00  0.00    +0.000 A 
ATOM      5  C   UNL     1       7.903   8.087  18.217  0.00  0.00    +0.000 A 
ATOM      6  C   UNL     1       6.789   7.711  17.458  0.00  0.00    +0.000 A 
ENDROOT
BRANCH   5   7
ATOM      7  C   UNL     1       8.480   9.463  18.243  0.00  0.00    +0.000 C 
ATOM      8  O   UNL     1       8.199  10.189  17.291  0.00  0.00    +0.000 OA
ATOM      9  N   UNL     1       9.290   9.818  19.311  0.00  0.00    +0.000 N 
ATOM     10  H   UNL     1       9.525   9.119  20.001  0.00  0.00    +0.000 HD
BRANCH   9  11
ATOM     11  C   UNL     1       9.864  11.101  19.508  0.00  0.00    +0.000 A 
ATOM     12  C   UNL     1      11.233  11.352  19.377  0.00  0.00    +0.000 A 
ATOM     13  C   UNL     1      11.762  12.624  19.615  0.00  0.00    +0.000 A 
ATOM     14  C   UNL     1      10.926  13.682  19.968  0.00  0.00    +0.000 A 
ATOM     15  C   UNL     1       9.553  13.444  20.089  0.00  0.00    +0.000 A 
ATOM     16  C   UNL     1       9.023  12.166  19.847  0.00  0.00    +0.000 A 
BRANCH  14  17
ATOM     17  S   UNL     1      11.632  15.309  20.324  0.00  0.00    +0.000 S 
ATOM     18  C   UNL     1      10.794  16.246  19.021  0.00  0.00    +0.000 C 
ATOM     19  O   UNL     1      11.044  15.778  21.701  0.00  0.00    +0.000 OA
ENDBRANCH  14  17
ENDBRANCH   9  11
ENDBRANCH   5   7
BRANCH   1  20
ATOM     20  S   UNL     1       4.942   5.872  16.523  0.00  0.00    +0.000 S 
ATOM     21  O   UNL     1       4.967   4.425  16.490  0.00  0.00    +0.000 OA
ATOM     22  O   UNL     1       5.064   6.640  15.301  0.00  0.00    +0.000 OA
BRANCH  20  24
ATOM     23  C   UNL     1       3.201   7.812  17.301  0.00  0.00    +0.000 C 
ATOM     24  N   UNL     1       3.553   6.391  17.328  0.00  0.00    +0.000 N 
BRANCH  24  25
ATOM     25  C   UNL     1       2.897   5.537  18.260  0.00  0.00    +0.000 A 
ATOM     26  C   UNL     1       1.952   4.592  17.857  0.00  0.00    +0.000 A 
ATOM     27  C   UNL     1       1.405   3.711  18.799  0.00  0.00    +0.000 A 
ATOM     28  C   UNL     1       1.812   3.774  20.133  0.00  0.00    +0.000 A 
ATOM     29 CL   UNL     1       1.163   2.670  21.281  0.00  0.00    +0.000 Cl
ATOM     30  C   UNL     1       2.755   4.717  20.538  0.00  0.00    +0.000 A 
ATOM     31  C   UNL     1       3.294   5.600  19.599  0.00  0.00    +0.000 A 
ENDBRANCH  24  25
ENDBRANCH  20  24
ENDBRANCH   1  20
TORSDOF 6
ENDMDL
MODEL 3
REMARK VINA RESULT:      -7.9      1.459      2.162
REMARK  Name = 
REMARK  8 active torsions:
REMARK  status: ('A' for Active; 'I' for Inactive)
REMARK    1  A    between atoms: C_1  and  N_2
REMARK    2  A    between atoms: N_2  and  C_3
REMARK    3  A    between atoms: N_2  and  S_10
REMARK    4  A    between atoms: S_10  and  C_13
REMARK    5  A    between atoms: C_17  and  C_18
REMARK    6  A    between atoms: N_20  and  C_21
REMARK    7  A    between atoms: C_24  and  S_25
REMARK    8  A    between atoms: S_25  and  C_26
REMARK                            x       y       z     vdW  Elec       q    Type
REMARK                         _______ _______ _______ _____ _____    ______ ____
ROOT
ATOM      1  C   UNL     1       6.540   6.119  17.424  0.00  0.00    +0.000 A 
ATOM      2  C   UNL     1       7.081   5.248  18.379  0.00  0.00    +0.000 A 
ATOM      3  C   UNL     1       8.042   5.716  19.268  0.00  0.00    +0.000 A 
ATOM      4  C   UNL     1       8.465   7.042  19.194  0.00  0.00    +0.000 A 
ATOM      5  C   UNL     1       7.945   7.921  18.226  0.00  0.00    +0.000 A 
ATOM      6  C   UNL     1       6.980   7.452  17.328  0.00  0.00    +0.000 A 
ENDROOT
BRANCH   5   7
ATOM      7  C   UNL     1       8.436   9.329  18.274  0.00  0.00    +0.000 C 
ATOM      8  O   UNL     1       8.011  10.084  17.402  0.00  0.00    +0.000 OA
ATOM      9  N   UNL     1       9.334   9.680  19.272  0.00  0.00    +0.000 N 
ATOM     10  H   UNL     1       9.685   8.962  19.890  0.00  0.00    +0.000 HD
BRANCH   9  11
ATOM     11  C   UNL     1       9.848  10.986  19.484  0.00  0.00    +0.000 A 
ATOM     12  C   UNL     1      10.970  11.482  18.815  0.00  0.00    +0.000 A 
ATOM     13  C   UNL     1      11.464  12.763  19.080  0.00  0.00    +0.000 A 
ATOM     14  C   UNL     1      10.829  13.586  20.008  0.00  0.00    +0.000 A 
ATOM     15  C   UNL     1       9.697  13.104  20.674  0.00  0.00    +0.000 A 
ATOM     16  C   UNL     1       9.201  11.818  20.404  0.00  0.00    +0.000 A 
BRANCH  14  17
ATOM     17  S   UNL     1      11.512  15.220  20.379  0.00  0.00    +0.000 S 
ATOM     18  C   UNL     1      10.750  16.135  19.014  0.00  0.00    +0.000 C 
ATOM     19  O   UNL     1      10.843  15.710  21.712  0.00  0.00    +0.000 OA
ENDBRANCH  14  17
ENDBRANCH   9  11
ENDBRANCH   5   7
BRANCH   1  20
ATOM     20  S   UNL     1       5.398   5.471  16.213  0.00  0.00    +0.000 S 
ATOM     21  O   UNL     1       5.984   4.264  15.672  0.00  0.00    +0.000 OA
ATOM     22  O   UNL     1       5.065   6.583  15.346  0.00  0.00    +0.000 OA
BRANCH  20  24
ATOM     23  C   UNL     1       3.298   3.839  16.791  0.00  0.00    +0.000 C 
ATOM     24  N   UNL     1       4.019   5.075  17.103  0.00  0.00    +0.000 N 
BRANCH  24  25
ATOM     25  C   UNL     1       3.391   6.048  17.932  0.00  0.00    +0.000 A 
ATOM     26  C   UNL     1       3.143   7.347  17.485  0.00  0.00    +0.000 A 
ATOM     27  C   UNL     1       2.437   8.239  18.303  0.00  0.00    +0.000 A 
ATOM     28  C   UNL     1       1.977   7.825  19.554  0.00  0.00    +0.000 A 
ATOM     29 CL   UNL     1       1.083   8.913  20.543  0.00  0.00    +0.000 Cl
ATOM     30  C   UNL     1       2.224   6.529  20.002  0.00  0.00    +0.000 A 
ATOM     31  C   UNL     1       2.934   5.642  19.188  0.00  0.00    +0.000 A 
ENDBRANCH  24  25
ENDBRANCH  20  24
ENDBRANCH   1  20
TORSDOF 6
ENDMDL
MODEL 4
REMARK VINA RESULT:      -7.8      1.055      1.541
REMARK  Name = 
REMARK  8 active torsions:
REMARK  status: ('A' for Active; 'I' for Inactive)
REMARK    1  A    between atoms: C_1  and  N_2
REMARK    2  A    between atoms: N_2  and  C_3
REMARK    3  A    between atoms: N_2  and  S_10
REMARK    4  A    between atoms: S_10  and  C_13
REMARK    5  A    between atoms: C_17  and  C_18
REMARK    6  A    between atoms: N_20  and  C_21
REMARK    7  A    between atoms: C_24  and  S_25
REMARK    8  A    between atoms: S_25  and  C_26
REMARK                            x       y       z     vdW  Elec       q    Type
REMARK                         _______ _______ _______ _____ _____    ______ ____
ROOT
ATOM      1  C   UNL     1       6.439   6.827  17.411  0.00  0.00    +0.000 A 
ATOM      2  C   UNL     1       7.068   5.855  18.199  0.00  0.00    +0.000 A 
ATOM      3  C   UNL     1       8.166   6.207  18.977  0.00  0.00    +0.000 A 
ATOM      4  C   UNL     1       8.634   7.520  18.958  0.00  0.00    +0.000 A 
ATOM      5  C   UNL     1       8.023   8.500  18.154  0.00  0.00    +0.000 A 
ATOM      6  C   UNL     1       6.922   8.147  17.367  0.00  0.00    +0.000 A 
ENDROOT
BRANCH   5   7
ATOM      7  C   UNL     1       8.580   9.882  18.252  0.00  0.00    +0.000 C 
ATOM      8  O   UNL     1       8.119  10.712  17.471  0.00  0.00    +0.000 OA
ATOM      9  N   UNL     1       9.572  10.127  19.190  0.00  0.00    +0.000 N 
ATOM     10  H   UNL     1       9.940   9.355  19.728  0.00  0.00    +0.000 HD
BRANCH   9  11
ATOM     11  C   UNL     1      10.160  11.394  19.442  0.00  0.00    +0.000 A 
ATOM     12  C   UNL     1       9.550  12.375  20.228  0.00  0.00    +0.000 A 
ATOM     13  C   UNL     1      10.148  13.623  20.422  0.00  0.00    +0.000 A 
ATOM     14  C   UNL     1      11.385  13.910  19.849  0.00  0.00    +0.000 A 
ATOM     15  C   UNL     1      12.011  12.931  19.070  0.00  0.00    +0.000 A 
ATOM     16  C   UNL     1      11.410  11.676  18.879  0.00  0.00    +0.000 A 
BRANCH  14  17
ATOM     17  S   UNL     1      12.121  15.549  20.065  0.00  0.00    +0.000 S 
ATOM     18  C   UNL     1      11.331  16.375  18.660  0.00  0.00    +0.000 C 
ATOM     19  O   UNL     1      11.513  16.160  21.378  0.00  0.00    +0.000 OA
ENDBRANCH  14  17
ENDBRANCH   9  11
ENDBRANCH   5   7
BRANCH   1  20
ATOM     20  S   UNL     1       5.110   6.330  16.325  0.00  0.00    +0.000 S 
ATOM     21  O   UNL     1       5.614   6.397  14.970  0.00  0.00    +0.000 OA
ATOM     22  O   UNL     1       3.958   7.114  16.724  0.00  0.00    +0.000 OA
BRANCH  20  24
ATOM     23  C   UNL     1       5.380   3.655  15.906  0.00  0.00    +0.000 C 
ATOM     24  N   UNL     1       4.811   4.720  16.734  0.00  0.00    +0.000 N 
BRANCH  24  25
ATOM     25  C   UNL     1       3.792   4.391  17.674  0.00  0.00    +0.000 A 
ATOM     26  C   UNL     1       2.549   3.900  17.272  0.00  0.00    +0.000 A 
ATOM     27  C   UNL     1       1.615   3.502  18.238  0.00  0.00    +0.000 A 
ATOM     28  C   UNL     1       1.933   3.588  19.594  0.00  0.00    +0.000 A 
ATOM     29 CL   UNL     1       0.797   3.069  20.776  0.00  0.00    +0.000 Cl
ATOM     30  C   UNL     1       3.173   4.079  19.997  0.00  0.00    +0.000 A 
ATOM     31  C   UNL     1       4.101   4.483  19.034  0.00  0.00    +0.000 A 
ENDBRANCH  24  25
ENDBRANCH  20  24
ENDBRANCH   1  20
TORSDOF 6
ENDMDL
MODEL 5
REMARK VINA RESULT:      -7.7      6.932      8.787
REMARK  Name = 
REMARK  8 active torsions:
REMARK  status: ('A' for Active; 'I' for Inactive)
REMARK    1  A    between atoms: C_1  and  N_2
REMARK    2  A    between atoms: N_2  and  C_3
REMARK    3  A    between atoms: N_2  and  S_10
REMARK    4  A    between atoms: S_10  and  C_13
REMARK    5  A    between atoms: C_17  and  C_18
REMARK    6  A    between atoms: N_20  and  C_21
REMARK    7  A    between atoms: C_24  and  S_25
REMARK    8  A    between atoms: S_25  and  C_26
REMARK                            x       y       z     vdW  Elec       q    Type
REMARK                         _______ _______ _______ _____ _____    ______ ____
ROOT
ATOM      1  C   UNL     1       2.258   7.310  19.352  0.00  0.00    +0.000 A 
ATOM      2  C   UNL     1       2.183   7.812  18.047  0.00  0.00    +0.000 A 
ATOM      3  C   UNL     1       1.608   9.058  17.824  0.00  0.00    +0.000 A 
ATOM      4  C   UNL     1       1.103   9.789  18.898  0.00  0.00    +0.000 A 
ATOM      5  C   UNL     1       1.153   9.286  20.211  0.00  0.00    +0.000 A 
ATOM      6  C   UNL     1       1.728   8.031  20.438  0.00  0.00    +0.000 A 
ENDROOT
BRANCH   5   7
ATOM      7  C   UNL     1       0.627  10.178  21.285  0.00  0.00    +0.000 C 
ATOM      8  O   UNL     1       0.874   9.842  22.442  0.00  0.00    +0.000 OA
ATOM      9  N   UNL     1      -0.104  11.297  20.914  0.00  0.00    +0.000 N 
ATOM     10  H   UNL     1      -0.321  11.439  19.937  0.00  0.00    +0.000 HD
BRANCH   9  11
ATOM     11  C   UNL     1      -0.621  12.267  21.811  0.00  0.00    +0.000 A 
ATOM     12  C   UNL     1      -1.768  12.059  22.583  0.00  0.00    +0.000 A 
ATOM     13  C   UNL     1      -2.263  13.056  23.427  0.00  0.00    +0.000 A 
ATOM     14  C   UNL     1      -1.607  14.281  23.536  0.00  0.00    +0.000 A 
ATOM     15  C   UNL     1      -0.451  14.495  22.777  0.00  0.00    +0.000 A 
ATOM     16  C   UNL     1       0.046  13.491  21.931  0.00  0.00    +0.000 A 
BRANCH  14  17
ATOM     17  S   UNL     1      -2.291  15.579  24.593  0.00  0.00    +0.000 S 
ATOM     18  C   UNL     1      -4.029  15.074  24.532  0.00  0.00    +0.000 C 
ATOM     19  O   UNL     1      -1.770  15.314  26.050  0.00  0.00    +0.000 OA
ENDBRANCH  14  17
ENDBRANCH   9  11
ENDBRANCH   5   7
BRANCH   1  20
ATOM     20  S   UNL     1       2.888   5.657  19.607  0.00  0.00    +0.000 S 
ATOM     21  O   UNL     1       1.981   4.987  20.514  0.00  0.00    +0.000 OA
ATOM     22  O   UNL     1       4.288   5.813  19.943  0.00  0.00    +0.000 OA
BRANCH  20  24
ATOM     23  C   UNL     1       1.636   4.100  17.759  0.00  0.00    +0.000 C 
ATOM     24  N   UNL     1       2.795   4.932  18.085  0.00  0.00    +0.000 N 
BRANCH  24  25
ATOM     25  C   UNL     1       3.942   4.876  17.242  0.00  0.00    +0.000 A 
ATOM     26  C   UNL     1       4.508   3.662  16.847  0.00  0.00    +0.000 A 
ATOM     27  C   UNL     1       5.577   3.657  15.942  0.00  0.00    +0.000 A 
ATOM     28  C   UNL     1       6.065   4.861  15.430  0.00  0.00    +0.000 A 
ATOM     29 CL   UNL     1       7.356   4.850  14.293  0.00  0.00    +0.000 Cl
ATOM     30  C   UNL     1       5.501   6.073  15.822  0.00  0.00    +0.000 A 
ATOM     31  C   UNL     1       4.440   6.078  16.732  0.00  0.00    +0.000 A 
ENDBRANCH  24  25
ENDBRANCH  20  24
ENDBRANCH   1  20
TORSDOF 6
ENDMDL
MODEL 6
REMARK VINA RESULT:      -7.7      5.397      8.001
REMARK  Name = 
REMARK  8 active torsions:
REMARK  status: ('A' for Active; 'I' for Inactive)
REMARK    1  A    between atoms: C_1  and  N_2
REMARK    2  A    between atoms: N_2  and  C_3
REMARK    3  A    between atoms: N_2  and  S_10
REMARK    4  A    between atoms: S_10  and  C_13
REMARK    5  A    between atoms: C_17  and  C_18
REMARK    6  A    between atoms: N_20  and  C_21
REMARK    7  A    between atoms: C_24  and  S_25
REMARK    8  A    between atoms: S_25  and  C_26
REMARK                            x       y       z     vdW  Elec       q    Type
REMARK                         _______ _______ _______ _____ _____    ______ ____
ROOT
ATOM      1  C   UNL     1       5.410   4.663  18.971  0.00  0.00    +0.000 A 
ATOM      2  C   UNL     1       5.112   3.296  19.036  0.00  0.00    +0.000 A 
ATOM      3  C   UNL     1       3.863   2.887  19.492  0.00  0.00    +0.000 A 
ATOM      4  C   UNL     1       2.926   3.840  19.889  0.00  0.00    +0.000 A 
ATOM      5  C   UNL     1       3.222   5.215  19.849  0.00  0.00    +0.000 A 
ATOM      6  C   UNL     1       4.478   5.629  19.394  0.00  0.00    +0.000 A 
ENDROOT
BRANCH   5   7
ATOM      7  C   UNL     1       2.124   6.142  20.251  0.00  0.00    +0.000 C 
ATOM      8  O   UNL     1       1.094   5.618  20.671  0.00  0.00    +0.000 OA
ATOM      9  N   UNL     1       2.330   7.506  20.112  0.00  0.00    +0.000 N 
ATOM     10  H   UNL     1       3.183   7.832  19.679  0.00  0.00    +0.000 HD
BRANCH   9  11
ATOM     11  C   UNL     1       1.409   8.514  20.501  0.00  0.00    +0.000 A 
ATOM     12  C   UNL     1       0.699   9.294  19.584  0.00  0.00    +0.000 A 
ATOM     13  C   UNL     1      -0.173  10.300  20.010  0.00  0.00    +0.000 A 
ATOM     14  C   UNL     1      -0.370  10.534  21.370  0.00  0.00    +0.000 A 
ATOM     15  C   UNL     1       0.326   9.751  22.296  0.00  0.00    +0.000 A 
ATOM     16  C   UNL     1       1.199   8.739  21.866  0.00  0.00    +0.000 A 
BRANCH  14  17
ATOM     17  S   UNL     1      -1.460  11.875  21.904  0.00  0.00    +0.000 S 
ATOM     18  C   UNL     1      -0.212  13.178  22.060  0.00  0.00    +0.000 C 
ATOM     19  O   UNL     1      -2.379  12.240  20.684  0.00  0.00    +0.000 OA
ENDBRANCH  14  17
ENDBRANCH   9  11
ENDBRANCH   5   7
BRANCH   1  20
ATOM     20  S   UNL     1       7.059   5.166  18.500  0.00  0.00    +0.000 S 
ATOM     21  O   UNL     1       7.796   3.966  18.169  0.00  0.00    +0.000 OA
ATOM     22  O   UNL     1       7.519   6.050  19.551  0.00  0.00    +0.000 OA
BRANCH  20  24
ATOM     23  C   UNL     1       6.622   7.533  17.229  0.00  0.00    +0.000 C 
ATOM     24  N   UNL     1       6.835   6.089  17.105  0.00  0.00    +0.000 N 
BRANCH  24  25
ATOM     25  C   UNL     1       6.558   5.457  15.858  0.00  0.00    +0.000 A 
ATOM     26  C   UNL     1       7.534   5.316  14.870  0.00  0.00    +0.000 A 
ATOM     27  C   UNL     1       7.239   4.604  13.700  0.00  0.00    +0.000 A 
ATOM     28  C   UNL     1       5.977   4.031  13.531  0.00  0.00    +0.000 A 
ATOM     29 CL   UNL     1       5.628   3.130  12.107  0.00  0.00    +0.000 Cl
ATOM     30  C   UNL     1       5.001   4.172  14.515  0.00  0.00    +0.000 A 
ATOM     31  C   UNL     1       5.294   4.889  15.678  0.00  0.00    +0.000 A 
ENDBRANCH  24  25
ENDBRANCH  20  24
ENDBRANCH   1  20
TORSDOF 6
ENDMDL
MODEL 7
REMARK VINA RESULT:      -7.7      6.631      8.303
REMARK  Name = 
REMARK  8 active torsions:
REMARK  status: ('A' for Active; 'I' for Inactive)
REMARK    1  A    between atoms: C_1  and  N_2
REMARK    2  A    between atoms: N_2  and  C_3
REMARK    3  A    between atoms: N_2  and  S_10
REMARK    4  A    between atoms: S_10  and  C_13
REMARK    5  A    between atoms: C_17  and  C_18
REMARK    6  A    between atoms: N_20  and  C_21
REMARK    7  A    between atoms: C_24  and  S_25
REMARK    8  A    between atoms: S_25  and  C_26
REMARK                            x       y       z     vdW  Elec       q    Type
REMARK                         _______ _______ _______ _____ _____    ______ ____
ROOT
ATOM      1  C   UNL     1       2.064   5.524  19.634  0.00  0.00    +0.000 A 
ATOM      2  C   UNL     1       2.500   5.925  18.365  0.00  0.00    +0.000 A 
ATOM      3  C   UNL     1       2.500   7.275  18.034  0.00  0.00    +0.000 A 
ATOM      4  C   UNL     1       2.058   8.215  18.963  0.00  0.00    +0.000 A 
ATOM      5  C   UNL     1       1.597   7.823  20.234  0.00  0.00    +0.000 A 
ATOM      6  C   UNL     1       1.592   6.465  20.568  0.00  0.00    +0.000 A 
ENDROOT
BRANCH   5   7
ATOM      7  C   UNL     1       1.194   8.921  21.162  0.00  0.00    +0.000 C 
ATOM      8  O   UNL     1       1.673   8.880  22.293  0.00  0.00    +0.000 OA
ATOM      9  N   UNL     1       0.310   9.884  20.699  0.00  0.00    +0.000 N 
ATOM     10  H   UNL     1      -0.090   9.780  19.777  0.00  0.00    +0.000 HD
BRANCH   9  11
ATOM     11  C   UNL     1      -0.122  11.016  21.439  0.00  0.00    +0.000 A 
ATOM     12  C   UNL     1      -1.058  10.938  22.474  0.00  0.00    +0.000 A 
ATOM     13  C   UNL     1      -1.483  12.084  23.153  0.00  0.00    +0.000 A 
ATOM     14  C   UNL     1      -0.963  13.334  22.824  0.00  0.00    +0.000 A 
ATOM     15  C   UNL     1      -0.017  13.421  21.798  0.00  0.00    +0.000 A 
ATOM     16  C   UNL     1       0.411  12.269  21.119  0.00  0.00    +0.000 A 
BRANCH  14  17
ATOM     17  S   UNL     1      -1.563  14.812  23.676  0.00  0.00    +0.000 S 
ATOM     18  C   UNL     1      -3.138  14.146  24.273  0.00  0.00    +0.000 C 
ATOM     19  O   UNL     1      -0.638  15.036  24.925  0.00  0.00    +0.000 OA
ENDBRANCH  14  17
ENDBRANCH   9  11
ENDBRANCH   5   7
BRANCH   1  20
ATOM     20  S   UNL     1       1.955   3.779  19.999  0.00  0.00    +0.000 S 
ATOM     21  O   UNL     1       1.084   3.186  19.007  0.00  0.00    +0.000 OA
ATOM     22  O   UNL     1       1.638   3.687  21.410  0.00  0.00    +0.000 OA
BRANCH  20  24
ATOM     23  C   UNL     1       4.133   2.369  20.820  0.00  0.00    +0.000 C 
ATOM     24  N   UNL     1       3.527   3.204  19.781  0.00  0.00    +0.000 N 
BRANCH  24  25
ATOM     25  C   UNL     1       4.361   3.751  18.763  0.00  0.00    +0.000 A 
ATOM     26  C   UNL     1       5.447   4.573  19.063  0.00  0.00    +0.000 A 
ATOM     27  C   UNL     1       6.293   5.009  18.035  0.00  0.00    +0.000 A 
ATOM     28  C   UNL     1       6.053   4.612  16.718  0.00  0.00    +0.000 A 
ATOM     29 CL   UNL     1       7.112   5.122  15.462  0.00  0.00    +0.000 Cl
ATOM     30  C   UNL     1       4.969   3.791  16.416  0.00  0.00    +0.000 A 
ATOM     31  C   UNL     1       4.121   3.364  17.441  0.00  0.00    +0.000 A 
ENDBRANCH  24  25
ENDBRANCH  20  24
ENDBRANCH   1  20
TORSDOF 6
ENDMDL
MODEL 8
REMARK VINA RESULT:      -7.6      2.430      3.314
REMARK  Name = 
REMARK  8 active torsions:
REMARK  status: ('A' for Active; 'I' for Inactive)
REMARK    1  A    between atoms: C_1  and  N_2
REMARK    2  A    between atoms: N_2  and  C_3
REMARK    3  A    between atoms: N_2  and  S_10
REMARK    4  A    between atoms: S_10  and  C_13
REMARK    5  A    between atoms: C_17  and  C_18
REMARK    6  A    between atoms: N_20  and  C_21
REMARK    7  A    between atoms: C_24  and  S_25
REMARK    8  A    between atoms: S_25  and  C_26
REMARK                            x       y       z     vdW  Elec       q    Type
REMARK                         _______ _______ _______ _____ _____    ______ ____
ROOT
ATOM      1  C   UNL     1       5.289   4.428  17.693  0.00  0.00    +0.000 A 
ATOM      2  C   UNL     1       5.371   4.245  16.307  0.00  0.00    +0.000 A 
ATOM      3  C   UNL     1       6.199   5.069  15.553  0.00  0.00    +0.000 A 
ATOM      4  C   UNL     1       6.932   6.074  16.183  0.00  0.00    +0.000 A 
ATOM      5  C   UNL     1       6.842   6.282  17.572  0.00  0.00    +0.000 A 
ATOM      6  C   UNL     1       6.005   5.457  18.331  0.00  0.00    +0.000 A 
ENDROOT
BRANCH   5   7
ATOM      7  C   UNL     1       7.709   7.355  18.141  0.00  0.00    +0.000 C 
ATOM      8  O   UNL     1       8.532   7.001  18.983  0.00  0.00    +0.000 OA
ATOM      9  N   UNL     1       7.520   8.657  17.701  0.00  0.00    +0.000 N 
ATOM     10  H   UNL     1       6.760   8.855  17.066  0.00  0.00    +0.000 HD
BRANCH   9  11
ATOM     11  C   UNL     1       8.298   9.774  18.103  0.00  0.00    +0.000 A 
ATOM     12  C   UNL     1       8.272  11.002  17.436  0.00  0.00    +0.000 A 
ATOM     13  C   UNL     1       9.082  12.065  17.845  0.00  0.00    +0.000 A 
ATOM     14  C   UNL     1       9.922  11.930  18.948  0.00  0.00    +0.000 A 
ATOM     15  C   UNL     1       9.947  10.709  19.630  0.00  0.00    +0.000 A 
ATOM     16  C   UNL     1       9.131   9.642  19.220  0.00  0.00    +0.000 A 
BRANCH  14  17
ATOM     17  S   UNL     1      11.003  13.298  19.431  0.00  0.00    +0.000 S 
ATOM     18  C   UNL     1      11.208  14.055  17.799  0.00  0.00    +0.000 C 
ATOM     19  O   UNL     1      10.145  14.280  20.306  0.00  0.00    +0.000 OA
ENDBRANCH  14  17
ENDBRANCH   9  11
ENDBRANCH   5   7
BRANCH   1  20
ATOM     20  S   UNL     1       4.128   3.442  18.627  0.00  0.00    +0.000 S 
ATOM     21  O   UNL     1       4.510   3.533  20.020  0.00  0.00    +0.000 OA
ATOM     22  O   UNL     1       4.070   2.158  17.959  0.00  0.00    +0.000 OA
BRANCH  20  24
ATOM     23  C   UNL     1       1.727   3.713  17.375  0.00  0.00    +0.000 C 
ATOM     24  N   UNL     1       2.643   4.213  18.402  0.00  0.00    +0.000 N 
BRANCH  24  25
ATOM     25  C   UNL     1       2.401   5.495  18.976  0.00  0.00    +0.000 A 
ATOM     26  C   UNL     1       2.566   6.673  18.246  0.00  0.00    +0.000 A 
ATOM     27  C   UNL     1       2.224   7.902  18.826  0.00  0.00    +0.000 A 
ATOM     28  C   UNL     1       1.712   7.943  20.124  0.00  0.00    +0.000 A 
ATOM     29 CL   UNL     1       1.262   9.450  20.821  0.00  0.00    +0.000 Cl
ATOM     30  C   UNL     1       1.546   6.768  20.854  0.00  0.00    +0.000 A 
ATOM     31  C   UNL     1       1.895   5.544  20.278  0.00  0.00    +0.000 A 
ENDBRANCH  24  25
ENDBRANCH  20  24
ENDBRANCH   1  20
TORSDOF 6
ENDMDL
MODEL 9
REMARK VINA RESULT:      -7.6      6.480     10.035
REMARK  Name = 
REMARK  8 active torsions:
REMARK  status: ('A' for Active; 'I' for Inactive)
REMARK    1  A    between atoms: C_1  and  N_2
REMARK    2  A    between atoms: N_2  and  C_3
REMARK    3  A    between atoms: N_2  and  S_10
REMARK    4  A    between atoms: S_10  and  C_13
REMARK    5  A    between atoms: C_17  and  C_18
REMARK    6  A    between atoms: N_20  and  C_21
REMARK    7  A    between atoms: C_24  and  S_25
REMARK    8  A    between atoms: S_25  and  C_26
REMARK                            x       y       z     vdW  Elec       q    Type
REMARK                         _______ _______ _______ _____ _____    ______ ____
ROOT
ATOM      1  C   UNL     1      -0.172  10.800  20.702  0.00  0.00    +0.000 A 
ATOM      2  C   UNL     1      -0.213  10.171  21.953  0.00  0.00    +0.000 A 
ATOM      3  C   UNL     1       0.433   8.953  22.131  0.00  0.00    +0.000 A 
ATOM      4  C   UNL     1       1.106   8.365  21.061  0.00  0.00    +0.000 A 
ATOM      5  C   UNL     1       1.137   8.976  19.794  0.00  0.00    +0.000 A 
ATOM      6  C   UNL     1       0.484  10.200  19.611  0.00  0.00    +0.000 A 
ENDROOT
BRANCH   5   7
ATOM      7  C   UNL     1       1.929   8.278  18.738  0.00  0.00    +0.000 C 
ATOM      8  O   UNL     1       1.946   8.810  17.630  0.00  0.00    +0.000 OA
ATOM      9  N   UNL     1       2.566   7.092  19.069  0.00  0.00    +0.000 N 
ATOM     10  H   UNL     1       2.421   6.696  19.987  0.00  0.00    +0.000 HD
BRANCH   9  11
ATOM     11  C   UNL     1       3.399   6.343  18.197  0.00  0.00    +0.000 A 
ATOM     12  C   UNL     1       3.227   4.975  17.967  0.00  0.00    +0.000 A 
ATOM     13  C   UNL     1       4.093   4.268  17.126  0.00  0.00    +0.000 A 
ATOM     14  C   UNL     1       5.139   4.922  16.478  0.00  0.00    +0.000 A 
ATOM     15  C   UNL     1       5.311   6.294  16.692  0.00  0.00    +0.000 A 
ATOM     16  C   UNL     1       4.439   7.003  17.534  0.00  0.00    +0.000 A 
BRANCH  14  17
ATOM     17  S   UNL     1       6.281   3.983  15.437  0.00  0.00    +0.000 S 
ATOM     18  C   UNL     1       5.435   4.211  13.852  0.00  0.00    +0.000 C 
ATOM     19  O   UNL     1       7.626   4.791  15.378  0.00  0.00    +0.000 OA
ENDBRANCH  14  17
ENDBRANCH   9  11
ENDBRANCH   5   7
BRANCH   1  20
ATOM     20  S   UNL     1      -1.109  12.301  20.458  0.00  0.00    +0.000 S 
ATOM     21  O   UNL     1      -2.294  12.207  21.284  0.00  0.00    +0.000 OA
ATOM     22  O   UNL     1      -1.220  12.471  19.024  0.00  0.00    +0.000 OA
BRANCH  20  24
ATOM     23  C   UNL     1      -0.382  14.095  22.371  0.00  0.00    +0.000 C 
ATOM     24  N   UNL     1      -0.108  13.524  21.051  0.00  0.00    +0.000 N 
BRANCH  24  25
ATOM     25  C   UNL     1       0.798  14.199  20.184  0.00  0.00    +0.000 A 
ATOM     26  C   UNL     1       1.950  13.581  19.694  0.00  0.00    +0.000 A 
ATOM     27  C   UNL     1       2.758  14.255  18.769  0.00  0.00    +0.000 A 
ATOM     28  C   UNL     1       2.406  15.533  18.333  0.00  0.00    +0.000 A 
ATOM     29 CL   UNL     1       3.384  16.344  17.173  0.00  0.00    +0.000 Cl
ATOM     30  C   UNL     1       1.257  16.152  18.821  0.00  0.00    +0.000 A 
ATOM     31  C   UNL     1       0.455  15.483  19.750  0.00  0.00    +0.000 A 
ENDBRANCH  24  25
ENDBRANCH  20  24
ENDBRANCH   1  20
TORSDOF 6
ENDMDL
