MODEL 1
REMARK VINA RESULT:      -6.3      0.000      0.000
REMARK  Name = 
REMARK  6 active torsions:
REMARK  status: ('A' for Active; 'I' for Inactive)
REMARK    1  A    between atoms: C_1  and  N_2
REMARK    2  A    between atoms: N_2  and  C_3
REMARK    3  A    between atoms: N_2  and  C_4
REMARK    4  A    between atoms: C_4  and  C_5
REMARK    5  A    between atoms: C_5  and  C_6
REMARK    6  A    between atoms: C_6  and  N_7
REMARK                            x       y       z     vdW  Elec       q    Type
REMARK                         _______ _______ _______ _____ _____    ______ ____
ROOT
ATOM      1  N   UNL     1       5.305   5.460  17.805  0.00  0.00    +0.000 NA
ATOM      2  C   UNL     1       3.893   5.443  17.347  0.00  0.00    +0.000 C 
ATOM      3  C   UNL     1       3.312   4.048  17.693  0.00  0.00    +0.000 C 
ATOM      4  C   UNL     1       1.608   3.930  18.095  0.00  0.00    +0.000 C 
ATOM      5  C   UNL     1       0.554   2.881  19.039  0.00  0.00    +0.000 C 
ATOM      6  C   UNL     1       1.495   2.437  20.560  0.00  0.00    +0.000 C 
ATOM      7  C   UNL     1       3.213   3.203  20.510  0.00  0.00    +0.000 C 
ATOM      8  C   UNL     1       2.832   2.660  19.576  0.00  0.00    +0.000 C 
ATOM      9  C   UNL     1       1.988   4.380  19.304  0.00  0.00    +0.000 C 
ATOM     10  C   UNL     1       4.277   3.654  19.094  0.00  0.00    +0.000 C 
ATOM     11  C   UNL     1       5.279   4.823  19.160  0.00  0.00    +0.000 C 
ENDROOT
BRANCH   1  12
ATOM     12  C   UNL     1       6.209   4.797  16.839  0.00  0.00    +0.000 C 
BRANCH  12  13
ATOM     13  C   UNL     1       5.980   5.330  15.398  0.00  0.00    +0.000 C 
BRANCH  13  14
ATOM     14  C   UNL     1       5.495   4.223  14.457  0.00  0.00    +0.000 C 
BRANCH  14  16
ATOM     15  C   UNL     1       5.984   3.321  12.226  0.00  0.00    +0.000 C 
ATOM     16  N   UNL     1       6.548   3.828  13.491  0.00  0.00    +0.000 NA
ATOM     17  C   UNL     1       7.449   4.959  13.228  0.00  0.00    +0.000 C 
ENDBRANCH  14  16
ENDBRANCH  13  14
ENDBRANCH  12  13
ENDBRANCH   1  12
TORSDOF 4
ENDMDL
MODEL 2
REMARK VINA RESULT:      -6.3      1.046      1.768
REMARK  Name = 
REMARK  6 active torsions:
REMARK  status: ('A' for Active; 'I' for Inactive)
REMARK    1  A    between atoms: C_1  and  N_2
REMARK    2  A    between atoms: N_2  and  C_3
REMARK    3  A    between atoms: N_2  and  C_4
REMARK    4  A    between atoms: C_4  and  C_5
REMARK    5  A    between atoms: C_5  and  C_6
REMARK    6  A    between atoms: C_6  and  N_7
REMARK                            x       y       z     vdW  Elec       q    Type
REMARK                         _______ _______ _______ _____ _____    ______ ____
ROOT
ATOM      1  N   UNL     1       5.595   4.562  17.381  0.00  0.00    +0.000 NA
ATOM      2  C   UNL     1       5.204   4.839  18.786  0.00  0.00    +0.000 C 
ATOM      3  C   UNL     1       3.662   4.999  18.813  0.00  0.00    +0.000 C 
ATOM      4  C   UNL     1       2.797   4.497  20.255  0.00  0.00    +0.000 C 
ATOM      5  C   UNL     1       1.187   3.925  20.683  0.00  0.00    +0.000 C 
ATOM      6  C   UNL     1       0.657   2.803  19.321  0.00  0.00    +0.000 C 
ATOM      7  C   UNL     1       1.978   2.735  17.982  0.00  0.00    +0.000 C 
ATOM      8  C   UNL     1       1.667   3.759  18.388  0.00  0.00    +0.000 C 
ATOM      9  C   UNL     1       2.938   3.256  19.757  0.00  0.00    +0.000 C 
ATOM     10  C   UNL     1       3.224   3.970  17.472  0.00  0.00    +0.000 C 
ATOM     11  C   UNL     1       4.592   3.564  16.890  0.00  0.00    +0.000 C 
ENDROOT
BRANCH   1  12
ATOM     12  C   UNL     1       5.667   5.799  16.571  0.00  0.00    +0.000 C 
BRANCH  12  13
ATOM     13  C   UNL     1       5.588   5.481  15.052  0.00  0.00    +0.000 C 
BRANCH  13  14
ATOM     14  C   UNL     1       6.911   4.923  14.522  0.00  0.00    +0.000 C 
BRANCH  14  16
ATOM     15  C   UNL     1       5.263   3.693  13.180  0.00  0.00    +0.000 C 
ATOM     16  N   UNL     1       6.694   3.968  13.409  0.00  0.00    +0.000 NA
ATOM     17  C   UNL     1       7.317   4.471  12.177  0.00  0.00    +0.000 C 
ENDBRANCH  14  16
ENDBRANCH  13  14
ENDBRANCH  12  13
ENDBRANCH   1  12
TORSDOF 4
ENDMDL
MODEL 3
REMARK VINA RESULT:      -6.2      2.037      6.110
REMARK  Name = 
REMARK  6 active torsions:
REMARK  status: ('A' for Active; 'I' for Inactive)
REMARK    1  A    between atoms: C_1  and  N_2
REMARK    2  A    between atoms: N_2  and  C_3
REMARK    3  A    between atoms: N_2  and  C_4
REMARK    4  A    between atoms: C_4  and  C_5
REMARK    5  A    between atoms: C_5  and  C_6
REMARK    6  A    between atoms: C_6  and  N_7
REMARK                            x       y       z     vdW  Elec       q    Type
REMARK                         _______ _______ _______ _____ _____    ______ ____
ROOT
ATOM      1  N   UNL     1       4.386   4.661  19.449  0.00  0.00    +0.000 NA
ATOM      2  C   UNL     1       4.094   3.770  18.298  0.00  0.00    +0.000 C 
ATOM      3  C   UNL     1       4.340   4.590  17.006  0.00  0.00    +0.000 C 
ATOM      4  C   UNL     1       4.918   3.746  15.580  0.00  0.00    +0.000 C 
ATOM      5  C   UNL     1       5.849   4.111  14.130  0.00  0.00    +0.000 C 
ATOM      6  C   UNL     1       7.189   5.262  14.651  0.00  0.00    +0.000 C 
ATOM      7  C   UNL     1       7.032   5.658  16.484  0.00  0.00    +0.000 C 
ATOM      8  C   UNL     1       6.091   5.712  15.833  0.00  0.00    +0.000 C 
ATOM      9  C   UNL     1       6.120   3.809  16.181  0.00  0.00    +0.000 C 
ATOM     10  C   UNL     1       5.565   5.697  17.574  0.00  0.00    +0.000 C 
ATOM     11  C   UNL     1       5.651   5.370  19.078  0.00  0.00    +0.000 C 
ENDROOT
BRANCH   1  12
ATOM     12  C   UNL     1       3.252   5.562  19.755  0.00  0.00    +0.000 C 
BRANCH  12  13
ATOM     13  C   UNL     1       2.330   4.955  20.848  0.00  0.00    +0.000 C 
BRANCH  13  14
ATOM     14  C   UNL     1       0.978   4.526  20.273  0.00  0.00    +0.000 C 
BRANCH  14  16
ATOM     15  C   UNL     1       0.888   2.413  19.025  0.00  0.00    +0.000 C 
ATOM     16  N   UNL     1       0.794   3.057  20.348  0.00  0.00    +0.000 NA
ATOM     17  C   UNL     1       1.775   2.468  21.270  0.00  0.00    +0.000 C 
ENDBRANCH  14  16
ENDBRANCH  13  14
ENDBRANCH  12  13
ENDBRANCH   1  12
TORSDOF 4
ENDMDL
MODEL 4
REMARK VINA RESULT:      -6.2      2.434      3.330
REMARK  Name = 
REMARK  6 active torsions:
REMARK  status: ('A' for Active; 'I' for Inactive)
REMARK    1  A    between atoms: C_1  and  N_2
REMARK    2  A    between atoms: N_2  and  C_3
REMARK    3  A    between atoms: N_2  and  C_4
REMARK    4  A    between atoms: C_4  and  C_5
REMARK    5  A    between atoms: C_5  and  C_6
REMARK    6  A    between atoms: C_6  and  N_7
REMARK                            x       y       z     vdW  Elec       q    Type
REMARK                         _______ _______ _______ _____ _____    ______ ____
ROOT
ATOM      1  N   UNL     1       3.568   5.459  17.297  0.00  0.00    +0.000 NA
ATOM      2  C   UNL     1       4.170   4.214  17.837  0.00  0.00    +0.000 C 
ATOM      3  C   UNL     1       3.918   4.207  19.367  0.00  0.00    +0.000 C 
ATOM      4  C   UNL     1       3.698   2.660  20.168  0.00  0.00    +0.000 C 
ATOM      5  C   UNL     1       2.892   2.031  21.603  0.00  0.00    +0.000 C 
ATOM      6  C   UNL     1       1.293   2.936  21.736  0.00  0.00    +0.000 C 
ATOM      7  C   UNL     1       1.147   4.207  20.356  0.00  0.00    +0.000 C 
ATOM      8  C   UNL     1       2.128   4.154  20.946  0.00  0.00    +0.000 C 
ATOM      9  C   UNL     1       2.447   2.725  19.681  0.00  0.00    +0.000 C 
ATOM     10  C   UNL     1       2.434   5.124  19.438  0.00  0.00    +0.000 C 
ATOM     11  C   UNL     1       2.238   5.571  17.976  0.00  0.00    +0.000 C 
ENDROOT
BRANCH   1  12
ATOM     12  C   UNL     1       4.449   6.632  17.491  0.00  0.00    +0.000 C 
BRANCH  12  13
ATOM     13  C   UNL     1       5.715   6.538  16.595  0.00  0.00    +0.000 C 
BRANCH  13  14
ATOM     14  C   UNL     1       6.966   7.025  17.331  0.00  0.00    +0.000 C 
BRANCH  14  16
ATOM     15  C   UNL     1       7.555   5.661  19.286  0.00  0.00    +0.000 C 
ATOM     16  N   UNL     1       7.772   5.893  17.846  0.00  0.00    +0.000 NA
ATOM     17  C   UNL     1       7.478   4.671  17.084  0.00  0.00    +0.000 C 
ENDBRANCH  14  16
ENDBRANCH  13  14
ENDBRANCH  12  13
ENDBRANCH   1  12
TORSDOF 4
ENDMDL
MODEL 5
REMARK VINA RESULT:      -6.1      2.297      6.103
REMARK  Name = 
REMARK  6 active torsions:
REMARK  status: ('A' for Active; 'I' for Inactive)
REMARK    1  A    between atoms: C_1  and  N_2
REMARK    2  A    between atoms: N_2  and  C_3
REMARK    3  A    between atoms: N_2  and  C_4
REMARK    4  A    between atoms: C_4  and  C_5
REMARK    5  A    between atoms: C_5  and  C_6
REMARK    6  A    between atoms: C_6  and  N_7
REMARK                            x       y       z     vdW  Elec       q    Type
REMARK                         _______ _______ _______ _____ _____    ______ ____
ROOT
ATOM      1  N   UNL     1       3.855   2.778  17.662  0.00  0.00    +0.000 NA
ATOM      2  C   UNL     1       4.560   3.454  16.544  0.00  0.00    +0.000 C 
ATOM      3  C   UNL     1       4.919   4.885  17.022  0.00  0.00    +0.000 C 
ATOM      4  C   UNL     1       6.384   5.627  16.405  0.00  0.00    +0.000 C 
ATOM      5  C   UNL     1       7.552   6.842  16.916  0.00  0.00    +0.000 C 
ATOM      6  C   UNL     1       7.798   6.595  18.725  0.00  0.00    +0.000 C 
ATOM      7  C   UNL     1       6.690   5.208  19.349  0.00  0.00    +0.000 C 
ATOM      8  C   UNL     1       6.230   6.008  18.671  0.00  0.00    +0.000 C 
ATOM      9  C   UNL     1       7.009   4.864  17.319  0.00  0.00    +0.000 C 
ATOM     10  C   UNL     1       5.077   4.603  18.738  0.00  0.00    +0.000 C 
ATOM     11  C   UNL     1       4.644   3.131  18.885  0.00  0.00    +0.000 C 
ENDROOT
BRANCH   1  12
ATOM     12  C   UNL     1       2.427   3.160  17.730  0.00  0.00    +0.000 C 
BRANCH  12  13
ATOM     13  C   UNL     1       1.703   2.426  18.893  0.00  0.00    +0.000 C 
BRANCH  13  14
ATOM     14  C   UNL     1       0.738   3.356  19.633  0.00  0.00    +0.000 C 
BRANCH  14  16
ATOM     15  C   UNL     1       2.111   2.679  21.554  0.00  0.00    +0.000 C 
ATOM     16  N   UNL     1       1.260   3.732  20.969  0.00  0.00    +0.000 NA
ATOM     17  C   UNL     1       2.001   4.998  20.888  0.00  0.00    +0.000 C 
ENDBRANCH  14  16
ENDBRANCH  13  14
ENDBRANCH  12  13
ENDBRANCH   1  12
TORSDOF 4
ENDMDL
MODEL 6
REMARK VINA RESULT:      -6.1      1.184      1.622
REMARK  Name = 
REMARK  6 active torsions:
REMARK  status: ('A' for Active; 'I' for Inactive)
REMARK    1  A    between atoms: C_1  and  N_2
REMARK    2  A    between atoms: N_2  and  C_3
REMARK    3  A    between atoms: N_2  and  C_4
REMARK    4  A    between atoms: C_4  and  C_5
REMARK    5  A    between atoms: C_5  and  C_6
REMARK    6  A    between atoms: C_6  and  N_7
REMARK                            x       y       z     vdW  Elec       q    Type
REMARK                         _______ _______ _______ _____ _____    ______ ____
ROOT
ATOM      1  N   UNL     1       4.862   5.645  17.046  0.00  0.00    +0.000 NA
ATOM      2  C   UNL     1       4.064   4.462  16.636  0.00  0.00    +0.000 C 
ATOM      3  C   UNL     1       3.643   3.719  17.930  0.00  0.00    +0.000 C 
ATOM      4  C   UNL     1       2.107   2.869  17.941  0.00  0.00    +0.000 C 
ATOM      5  C   UNL     1       0.894   2.373  19.118  0.00  0.00    +0.000 C 
ATOM      6  C   UNL     1       0.752   3.754  20.328  0.00  0.00    +0.000 C 
ATOM      7  C   UNL     1       1.971   5.122  19.901  0.00  0.00    +0.000 C 
ATOM      8  C   UNL     1       2.348   4.041  19.909  0.00  0.00    +0.000 C 
ATOM      9  C   UNL     1       1.575   4.089  18.136  0.00  0.00    +0.000 C 
ATOM     10  C   UNL     1       3.585   5.058  19.048  0.00  0.00    +0.000 C 
ATOM     11  C   UNL     1       4.114   6.233  18.202  0.00  0.00    +0.000 C 
ENDROOT
BRANCH   1  12
ATOM     12  C   UNL     1       6.266   5.289  17.349  0.00  0.00    +0.000 C 
BRANCH  12  13
ATOM     13  C   UNL     1       6.846   4.324  16.279  0.00  0.00    +0.000 C 
BRANCH  13  14
ATOM     14  C   UNL     1       7.656   5.076  15.219  0.00  0.00    +0.000 C 
BRANCH  14  16
ATOM     15  C   UNL     1       7.887   5.298  12.784  0.00  0.00    +0.000 C 
ATOM     16  N   UNL     1       6.957   5.098  13.912  0.00  0.00    +0.000 NA
ATOM     17  C   UNL     1       6.190   3.859  13.724  0.00  0.00    +0.000 C 
ENDBRANCH  14  16
ENDBRANCH  13  14
ENDBRANCH  12  13
ENDBRANCH   1  12
TORSDOF 4
ENDMDL
MODEL 7
REMARK VINA RESULT:      -6.1      1.395      2.522
REMARK  Name = 
REMARK  6 active torsions:
REMARK  status: ('A' for Active; 'I' for Inactive)
REMARK    1  A    between atoms: C_1  and  N_2
REMARK    2  A    between atoms: N_2  and  C_3
REMARK    3  A    between atoms: N_2  and  C_4
REMARK    4  A    between atoms: C_4  and  C_5
REMARK    5  A    between atoms: C_5  and  C_6
REMARK    6  A    between atoms: C_6  and  N_7
REMARK                            x       y       z     vdW  Elec       q    Type
REMARK                         _______ _______ _______ _____ _____    ______ ____
ROOT
ATOM      1  N   UNL     1       3.595   5.408  17.377  0.00  0.00    +0.000 NA
ATOM      2  C   UNL     1       4.264   4.245  18.012  0.00  0.00    +0.000 C 
ATOM      3  C   UNL     1       3.868   4.247  19.511  0.00  0.00    +0.000 C 
ATOM      4  C   UNL     1       3.729   2.705  20.338  0.00  0.00    +0.000 C 
ATOM      5  C   UNL     1       2.856   2.030  21.711  0.00  0.00    +0.000 C 
ATOM      6  C   UNL     1       1.169   2.768  21.665  0.00  0.00    +0.000 C 
ATOM      7  C   UNL     1       1.029   3.985  20.237  0.00  0.00    +0.000 C 
ATOM      8  C   UNL     1       1.949   4.047  20.917  0.00  0.00    +0.000 C 
ATOM      9  C   UNL     1       2.530   2.629  19.735  0.00  0.00    +0.000 C 
ATOM     10  C   UNL     1       2.300   5.008  19.413  0.00  0.00    +0.000 C 
ATOM     11  C   UNL     1       2.202   5.398  17.926  0.00  0.00    +0.000 C 
ENDROOT
BRANCH   1  12
ATOM     12  C   UNL     1       4.332   6.670  17.614  0.00  0.00    +0.000 C 
BRANCH  12  13
ATOM     13  C   UNL     1       5.633   6.728  16.768  0.00  0.00    +0.000 C 
BRANCH  13  14
ATOM     14  C   UNL     1       5.398   6.245  15.335  0.00  0.00    +0.000 C 
BRANCH  14  16
ATOM     15  C   UNL     1       7.249   4.791  16.037  0.00  0.00    +0.000 C 
ATOM     16  N   UNL     1       6.442   5.284  14.905  0.00  0.00    +0.000 NA
ATOM     17  C   UNL     1       5.831   4.155  14.188  0.00  0.00    +0.000 C 
ENDBRANCH  14  16
ENDBRANCH  13  14
ENDBRANCH  12  13
ENDBRANCH   1  12
TORSDOF 4
ENDMDL
MODEL 8
REMARK VINA RESULT:      -6.1      2.414      5.887
REMARK  Name = 
REMARK  6 active torsions:
REMARK  status: ('A' for Active; 'I' for Inactive)
REMARK    1  A    between atoms: C_1  and  N_2
REMARK    2  A    between atoms: N_2  and  C_3
REMARK    3  A    between atoms: N_2  and  C_4
REMARK    4  A    between atoms: C_4  and  C_5
REMARK    5  A    between atoms: C_5  and  C_6
REMARK    6  A    between atoms: C_6  and  N_7
REMARK                            x       y       z     vdW  Elec       q    Type
REMARK                         _______ _______ _______ _____ _____    ______ ____
ROOT
ATOM      1  N   UNL     1       2.254   6.111  18.563  0.00  0.00    +0.000 NA
ATOM      2  C   UNL     1       3.364   6.995  18.126  0.00  0.00    +0.000 C 
ATOM      3  C   UNL     1       4.645   6.123  18.051  0.00  0.00    +0.000 C 
ATOM      4  C   UNL     1       5.856   6.524  16.845  0.00  0.00    +0.000 C 
ATOM      5  C   UNL     1       7.119   5.701  15.934  0.00  0.00    +0.000 C 
ATOM      6  C   UNL     1       6.438   4.050  15.482  0.00  0.00    +0.000 C 
ATOM      7  C   UNL     1       4.710   3.840  16.197  0.00  0.00    +0.000 C 
ATOM      8  C   UNL     1       5.536   4.244  16.880  0.00  0.00    +0.000 C 
ATOM      9  C   UNL     1       5.037   5.887  15.990  0.00  0.00    +0.000 C 
ATOM     10  C   UNL     1       3.937   4.570  17.684  0.00  0.00    +0.000 C 
ATOM     11  C   UNL     1       2.425   4.854  17.767  0.00  0.00    +0.000 C 
ENDROOT
BRANCH   1  12
ATOM     12  C   UNL     1       2.252   5.906  20.028  0.00  0.00    +0.000 C 
BRANCH  12  13
ATOM     13  C   UNL     1       1.364   4.695  20.425  0.00  0.00    +0.000 C 
BRANCH  13  14
ATOM     14  C   UNL     1       2.061   3.794  21.449  0.00  0.00    +0.000 C 
BRANCH  14  16
ATOM     15  C   UNL     1       1.611   2.139  19.691  0.00  0.00    +0.000 C 
ATOM     16  N   UNL     1       2.443   2.490  20.858  0.00  0.00    +0.000 NA
ATOM     17  C   UNL     1       3.864   2.497  20.484  0.00  0.00    +0.000 C 
ENDBRANCH  14  16
ENDBRANCH  13  14
ENDBRANCH  12  13
ENDBRANCH   1  12
TORSDOF 4
ENDMDL
MODEL 9
REMARK VINA RESULT:      -6.0      1.177      1.969
REMARK  Name = 
REMARK  6 active torsions:
REMARK  status: ('A' for Active; 'I' for Inactive)
REMARK    1  A    between atoms: C_1  and  N_2
REMARK    2  A    between atoms: N_2  and  C_3
REMARK    3  A    between atoms: N_2  and  C_4
REMARK    4  A    between atoms: C_4  and  C_5
REMARK    5  A    between atoms: C_5  and  C_6
REMARK    6  A    between atoms: C_6  and  N_7
REMARK                            x       y       z     vdW  Elec       q    Type
REMARK                         _______ _______ _______ _____ _____    ______ ____
ROOT
ATOM      1  N   UNL     1       5.454   4.627  16.864  0.00  0.00    +0.000 NA
ATOM      2  C   UNL     1       5.147   5.447  18.064  0.00  0.00    +0.000 C 
ATOM      3  C   UNL     1       3.603   5.498  18.203  0.00  0.00    +0.000 C 
ATOM      4  C   UNL     1       2.914   5.597  19.814  0.00  0.00    +0.000 C 
ATOM      5  C   UNL     1       1.416   5.153  20.627  0.00  0.00    +0.000 C 
ATOM      6  C   UNL     1       0.910   3.527  19.927  0.00  0.00    +0.000 C 
ATOM      7  C   UNL     1       2.121   2.987  18.591  0.00  0.00    +0.000 C 
ATOM      8  C   UNL     1       1.731   4.063  18.569  0.00  0.00    +0.000 C 
ATOM      9  C   UNL     1       3.153   4.275  19.864  0.00  0.00    +0.000 C 
ATOM     10  C   UNL     1       3.178   3.971  17.472  0.00  0.00    +0.000 C 
ATOM     11  C   UNL     1       4.533   3.450  16.954  0.00  0.00    +0.000 C 
ENDROOT
BRANCH   1  12
ATOM     12  C   UNL     1       5.325   5.406  15.612  0.00  0.00    +0.000 C 
BRANCH  12  13
ATOM     13  C   UNL     1       6.432   5.020  14.593  0.00  0.00    +0.000 C 
BRANCH  13  14
ATOM     14  C   UNL     1       6.127   3.686  13.905  0.00  0.00    +0.000 C 
BRANCH  14  16
ATOM     15  C   UNL     1       7.255   4.289  11.809  0.00  0.00    +0.000 C 
ATOM     16  N   UNL     1       5.996   3.847  12.437  0.00  0.00    +0.000 NA
ATOM     17  C   UNL     1       5.537   2.592  11.827  0.00  0.00    +0.000 C 
ENDBRANCH  14  16
ENDBRANCH  13  14
ENDBRANCH  12  13
ENDBRANCH   1  12
TORSDOF 4
ENDMDL
