MODEL 1
REMARK VINA RESULT:      -5.4      0.000      0.000
REMARK  Name = 
REMARK  12 active torsions:
REMARK  status: ('A' for Active; 'I' for Inactive)
REMARK    1  A    between atoms: C_1  and  C_2
REMARK    2  A    between atoms: C_2  and  C_3
REMARK    3  A    between atoms: C_3  and  C_4
REMARK    4  A    between atoms: C_4  and  C_5
REMARK    5  A    between atoms: C_5  and  C_6
REMARK    6  A    between atoms: C_6  and  C_7
REMARK    7  A    between atoms: C_7  and  C_8
REMARK    8  A    between atoms: C_8  and  C_9
REMARK    9  A    between atoms: C_9  and  C_10
REMARK   10  A    between atoms: C_10  and  C_12
REMARK   11  A    between atoms: C_12  and  C_13
REMARK   12  A    between atoms: C_12  and  O_14
REMARK                            x       y       z     vdW  Elec       q    Type
REMARK                         _______ _______ _______ _____ _____    ______ ____
ROOT
ATOM      1  C   UNL     1       4.307   5.996  16.861  0.00  0.00    +0.000 C 
ENDROOT
BRANCH   1   2
ATOM      2  C   UNL     1       3.734   5.502  18.191  0.00  0.00    +0.000 C 
BRANCH   2   3
ATOM      3  C   UNL     1       2.215   5.671  18.226  0.00  0.00    +0.000 C 
BRANCH   3   4
ATOM      4  C   UNL     1       1.505   4.497  17.553  0.00  0.00    +0.000 C 
BRANCH   4   5
ATOM      5  C   UNL     1       1.880   3.171  18.220  0.00  0.00    +0.000 C 
BRANCH   5   6
ATOM      6  C   UNL     1       0.962   2.868  19.401  0.00  0.00    +0.000 C 
BRANCH   6   8
ATOM      7  C   UNL     1       2.060   3.809  21.457  0.00  0.00    +0.000 C 
ATOM      8  C   UNL     1       1.766   2.550  20.660  0.00  0.00    +0.000 C 
ENDBRANCH   6   8
ENDBRANCH   5   6
ENDBRANCH   4   5
ENDBRANCH   3   4
ENDBRANCH   2   3
ENDBRANCH   1   2
BRANCH   1   9
ATOM      9  C   UNL     1       5.262   4.974  16.251  0.00  0.00    +0.000 C 
BRANCH   9  10
ATOM     10  C   UNL     1       6.721   5.288  16.547  0.00  0.00    +0.000 C 
ATOM     11  O   UNL     1       7.448   5.905  15.766  0.00  0.00    +0.000 OA
BRANCH  10  12
ATOM     12  C   UNL     1       7.256   4.813  17.902  0.00  0.00    +0.000 C 
ATOM     13  C   UNL     1       7.587   6.005  18.782  0.00  0.00    +0.000 C 
BRANCH  12  14
ATOM     14  O   UNL     1       8.433   4.030  17.741  0.00  0.00    +0.000 OA
ATOM     15  H   UNL     1       8.137   3.099  17.688  0.00  0.00    +0.000 HD
ENDBRANCH  12  14
ENDBRANCH  10  12
ENDBRANCH   9  10
ENDBRANCH   1   9
TORSDOF 10
ENDMDL
MODEL 2
REMARK VINA RESULT:      -5.4      1.037      1.577
REMARK  Name = 
REMARK  12 active torsions:
REMARK  status: ('A' for Active; 'I' for Inactive)
REMARK    1  A    between atoms: C_1  and  C_2
REMARK    2  A    between atoms: C_2  and  C_3
REMARK    3  A    between atoms: C_3  and  C_4
REMARK    4  A    between atoms: C_4  and  C_5
REMARK    5  A    between atoms: C_5  and  C_6
REMARK    6  A    between atoms: C_6  and  C_7
REMARK    7  A    between atoms: C_7  and  C_8
REMARK    8  A    between atoms: C_8  and  C_9
REMARK    9  A    between atoms: C_9  and  C_10
REMARK   10  A    between atoms: C_10  and  C_12
REMARK   11  A    between atoms: C_12  and  C_13
REMARK   12  A    between atoms: C_12  and  O_14
REMARK                            x       y       z     vdW  Elec       q    Type
REMARK                         _______ _______ _______ _____ _____    ______ ____
ROOT
ATOM      1  C   UNL     1       4.688   4.142  17.343  0.00  0.00    +0.000 C 
ENDROOT
BRANCH   1   2
ATOM      2  C   UNL     1       3.159   4.152  17.292  0.00  0.00    +0.000 C 
BRANCH   2   3
ATOM      3  C   UNL     1       2.597   2.744  17.494  0.00  0.00    +0.000 C 
BRANCH   3   4
ATOM      4  C   UNL     1       1.372   2.756  18.406  0.00  0.00    +0.000 C 
BRANCH   4   5
ATOM      5  C   UNL     1       1.685   2.114  19.760  0.00  0.00    +0.000 C 
BRANCH   5   6
ATOM      6  C   UNL     1       1.832   3.171  20.851  0.00  0.00    +0.000 C 
BRANCH   6   8
ATOM      7  C   UNL     1       1.878   5.676  20.641  0.00  0.00    +0.000 C 
ATOM      8  C   UNL     1       1.025   4.425  20.519  0.00  0.00    +0.000 C 
ENDBRANCH   6   8
ENDBRANCH   5   6
ENDBRANCH   4   5
ENDBRANCH   3   4
ENDBRANCH   2   3
ENDBRANCH   1   2
BRANCH   1   9
ATOM      9  C   UNL     1       5.286   5.136  16.351  0.00  0.00    +0.000 C 
BRANCH   9  10
ATOM     10  C   UNL     1       6.735   5.473  16.663  0.00  0.00    +0.000 C 
ATOM     11  O   UNL     1       7.451   6.135  15.908  0.00  0.00    +0.000 OA
BRANCH  10  12
ATOM     12  C   UNL     1       7.278   4.961  18.002  0.00  0.00    +0.000 C 
ATOM     13  C   UNL     1       7.790   6.120  18.837  0.00  0.00    +0.000 C 
BRANCH  12  14
ATOM     14  O   UNL     1       8.345   4.041  17.803  0.00  0.00    +0.000 OA
ATOM     15  H   UNL     1       8.044   3.188  18.177  0.00  0.00    +0.000 HD
ENDBRANCH  12  14
ENDBRANCH  10  12
ENDBRANCH   9  10
ENDBRANCH   1   9
TORSDOF 10
ENDMDL
MODEL 3
REMARK VINA RESULT:      -5.4      1.525      2.263
REMARK  Name = 
REMARK  12 active torsions:
REMARK  status: ('A' for Active; 'I' for Inactive)
REMARK    1  A    between atoms: C_1  and  C_2
REMARK    2  A    between atoms: C_2  and  C_3
REMARK    3  A    between atoms: C_3  and  C_4
REMARK    4  A    between atoms: C_4  and  C_5
REMARK    5  A    between atoms: C_5  and  C_6
REMARK    6  A    between atoms: C_6  and  C_7
REMARK    7  A    between atoms: C_7  and  C_8
REMARK    8  A    between atoms: C_8  and  C_9
REMARK    9  A    between atoms: C_9  and  C_10
REMARK   10  A    between atoms: C_10  and  C_12
REMARK   11  A    between atoms: C_12  and  C_13
REMARK   12  A    between atoms: C_12  and  O_14
REMARK                            x       y       z     vdW  Elec       q    Type
REMARK                         _______ _______ _______ _____ _____    ______ ____
ROOT
ATOM      1  C   UNL     1       3.752   4.776  17.260  0.00  0.00    +0.000 C 
ENDROOT
BRANCH   1   2
ATOM      2  C   UNL     1       2.680   3.685  17.304  0.00  0.00    +0.000 C 
BRANCH   2   3
ATOM      3  C   UNL     1       3.285   2.345  17.728  0.00  0.00    +0.000 C 
BRANCH   3   4
ATOM      4  C   UNL     1       2.567   1.767  18.947  0.00  0.00    +0.000 C 
BRANCH   4   5
ATOM      5  C   UNL     1       2.801   2.635  20.187  0.00  0.00    +0.000 C 
BRANCH   5   6
ATOM      6  C   UNL     1       1.487   2.946  20.898  0.00  0.00    +0.000 C 
BRANCH   6   8
ATOM      7  C   UNL     1       2.028   5.377  20.553  0.00  0.00    +0.000 C 
ATOM      8  C   UNL     1       0.945   4.313  20.489  0.00  0.00    +0.000 C 
ENDBRANCH   6   8
ENDBRANCH   5   6
ENDBRANCH   4   5
ENDBRANCH   3   4
ENDBRANCH   2   3
ENDBRANCH   1   2
BRANCH   1   9
ATOM      9  C   UNL     1       5.145   4.182  17.071  0.00  0.00    +0.000 C 
BRANCH   9  10
ATOM     10  C   UNL     1       6.086   4.525  18.215  0.00  0.00    +0.000 C 
ATOM     11  O   UNL     1       5.791   4.367  19.401  0.00  0.00    +0.000 OA
BRANCH  10  12
ATOM     12  C   UNL     1       7.463   5.069  17.820  0.00  0.00    +0.000 C 
ATOM     13  C   UNL     1       7.395   6.573  17.621  0.00  0.00    +0.000 C 
BRANCH  12  14
ATOM     14  O   UNL     1       7.921   4.474  16.612  0.00  0.00    +0.000 OA
ATOM     15  H   UNL     1       8.773   4.906  16.400  0.00  0.00    +0.000 HD
ENDBRANCH  12  14
ENDBRANCH  10  12
ENDBRANCH   9  10
ENDBRANCH   1   9
TORSDOF 10
ENDMDL
MODEL 4
REMARK VINA RESULT:      -5.3      1.360      2.261
REMARK  Name = 
REMARK  12 active torsions:
REMARK  status: ('A' for Active; 'I' for Inactive)
REMARK    1  A    between atoms: C_1  and  C_2
REMARK    2  A    between atoms: C_2  and  C_3
REMARK    3  A    between atoms: C_3  and  C_4
REMARK    4  A    between atoms: C_4  and  C_5
REMARK    5  A    between atoms: C_5  and  C_6
REMARK    6  A    between atoms: C_6  and  C_7
REMARK    7  A    between atoms: C_7  and  C_8
REMARK    8  A    between atoms: C_8  and  C_9
REMARK    9  A    between atoms: C_9  and  C_10
REMARK   10  A    between atoms: C_10  and  C_12
REMARK   11  A    between atoms: C_12  and  C_13
REMARK   12  A    between atoms: C_12  and  O_14
REMARK                            x       y       z     vdW  Elec       q    Type
REMARK                         _______ _______ _______ _____ _____    ______ ____
ROOT
ATOM      1  C   UNL     1       3.405   4.985  17.714  0.00  0.00    +0.000 C 
ENDROOT
BRANCH   1   2
ATOM      2  C   UNL     1       2.997   6.412  18.086  0.00  0.00    +0.000 C 
BRANCH   2   3
ATOM      3  C   UNL     1       2.598   6.499  19.559  0.00  0.00    +0.000 C 
BRANCH   3   4
ATOM      4  C   UNL     1       2.634   5.127  20.231  0.00  0.00    +0.000 C 
BRANCH   4   5
ATOM      5  C   UNL     1       1.223   4.646  20.579  0.00  0.00    +0.000 C 
BRANCH   5   6
ATOM      6  C   UNL     1       1.129   3.124  20.520  0.00  0.00    +0.000 C 
BRANCH   6   8
ATOM      7  C   UNL     1       2.008   1.826  18.554  0.00  0.00    +0.000 C 
ATOM      8  C   UNL     1       0.848   2.642  19.098  0.00  0.00    +0.000 C 
ENDBRANCH   6   8
ENDBRANCH   5   6
ENDBRANCH   4   5
ENDBRANCH   3   4
ENDBRANCH   2   3
ENDBRANCH   1   2
BRANCH   1   9
ATOM      9  C   UNL     1       4.709   4.967  16.921  0.00  0.00    +0.000 C 
BRANCH   9  10
ATOM     10  C   UNL     1       5.920   4.672  17.792  0.00  0.00    +0.000 C 
ATOM     11  O   UNL     1       5.832   4.244  18.945  0.00  0.00    +0.000 OA
BRANCH  10  12
ATOM     12  C   UNL     1       7.291   4.912  17.152  0.00  0.00    +0.000 C 
ATOM     13  C   UNL     1       7.205   4.731  15.647  0.00  0.00    +0.000 C 
BRANCH  12  14
ATOM     14  O   UNL     1       8.260   4.005  17.661  0.00  0.00    +0.000 OA
ATOM     15  H   UNL     1       7.766   3.210  17.949  0.00  0.00    +0.000 HD
ENDBRANCH  12  14
ENDBRANCH  10  12
ENDBRANCH   9  10
ENDBRANCH   1   9
TORSDOF 10
ENDMDL
MODEL 5
REMARK VINA RESULT:      -5.3      1.242      1.607
REMARK  Name = 
REMARK  12 active torsions:
REMARK  status: ('A' for Active; 'I' for Inactive)
REMARK    1  A    between atoms: C_1  and  C_2
REMARK    2  A    between atoms: C_2  and  C_3
REMARK    3  A    between atoms: C_3  and  C_4
REMARK    4  A    between atoms: C_4  and  C_5
REMARK    5  A    between atoms: C_5  and  C_6
REMARK    6  A    between atoms: C_6  and  C_7
REMARK    7  A    between atoms: C_7  and  C_8
REMARK    8  A    between atoms: C_8  and  C_9
REMARK    9  A    between atoms: C_9  and  C_10
REMARK   10  A    between atoms: C_10  and  C_12
REMARK   11  A    between atoms: C_12  and  C_13
REMARK   12  A    between atoms: C_12  and  O_14
REMARK                            x       y       z     vdW  Elec       q    Type
REMARK                         _______ _______ _______ _____ _____    ______ ____
ROOT
ATOM      1  C   UNL     1       4.554   7.039  17.356  0.00  0.00    +0.000 C 
ENDROOT
BRANCH   1   2
ATOM      2  C   UNL     1       3.322   6.260  17.819  0.00  0.00    +0.000 C 
BRANCH   2   3
ATOM      3  C   UNL     1       3.729   4.989  18.566  0.00  0.00    +0.000 C 
BRANCH   3   4
ATOM      4  C   UNL     1       2.988   3.764  18.033  0.00  0.00    +0.000 C 
BRANCH   4   5
ATOM      5  C   UNL     1       1.473   3.927  18.185  0.00  0.00    +0.000 C 
BRANCH   5   6
ATOM      6  C   UNL     1       1.056   3.870  19.651  0.00  0.00    +0.000 C 
BRANCH   6   8
ATOM      7  C   UNL     1       2.257   2.848  21.610  0.00  0.00    +0.000 C 
ATOM      8  C   UNL     1       1.521   2.573  20.310  0.00  0.00    +0.000 C 
ENDBRANCH   6   8
ENDBRANCH   5   6
ENDBRANCH   4   5
ENDBRANCH   3   4
ENDBRANCH   2   3
ENDBRANCH   1   2
BRANCH   1   9
ATOM      9  C   UNL     1       5.230   6.359  16.169  0.00  0.00    +0.000 C 
BRANCH   9  10
ATOM     10  C   UNL     1       6.684   6.008  16.446  0.00  0.00    +0.000 C 
ATOM     11  O   UNL     1       7.560   6.856  16.626  0.00  0.00    +0.000 OA
BRANCH  10  12
ATOM     12  C   UNL     1       7.019   4.514  16.518  0.00  0.00    +0.000 C 
ATOM     13  C   UNL     1       5.973   3.706  15.771  0.00  0.00    +0.000 C 
BRANCH  12  14
ATOM     14  O   UNL     1       7.059   4.063  17.867  0.00  0.00    +0.000 OA
ATOM     15  H   UNL     1       6.571   4.729  18.392  0.00  0.00    +0.000 HD
ENDBRANCH  12  14
ENDBRANCH  10  12
ENDBRANCH   9  10
ENDBRANCH   1   9
TORSDOF 10
ENDMDL
MODEL 6
REMARK VINA RESULT:      -5.2      1.135      1.700
REMARK  Name = 
REMARK  12 active torsions:
REMARK  status: ('A' for Active; 'I' for Inactive)
REMARK    1  A    between atoms: C_1  and  C_2
REMARK    2  A    between atoms: C_2  and  C_3
REMARK    3  A    between atoms: C_3  and  C_4
REMARK    4  A    between atoms: C_4  and  C_5
REMARK    5  A    between atoms: C_5  and  C_6
REMARK    6  A    between atoms: C_6  and  C_7
REMARK    7  A    between atoms: C_7  and  C_8
REMARK    8  A    between atoms: C_8  and  C_9
REMARK    9  A    between atoms: C_9  and  C_10
REMARK   10  A    between atoms: C_10  and  C_12
REMARK   11  A    between atoms: C_12  and  C_13
REMARK   12  A    between atoms: C_12  and  O_14
REMARK                            x       y       z     vdW  Elec       q    Type
REMARK                         _______ _______ _______ _____ _____    ______ ____
ROOT
ATOM      1  C   UNL     1       4.476   6.269  17.219  0.00  0.00    +0.000 C 
ENDROOT
BRANCH   1   2
ATOM      2  C   UNL     1       3.432   7.299  17.657  0.00  0.00    +0.000 C 
BRANCH   2   3
ATOM      3  C   UNL     1       2.873   6.955  19.039  0.00  0.00    +0.000 C 
BRANCH   3   4
ATOM      4  C   UNL     1       2.678   5.448  19.204  0.00  0.00    +0.000 C 
BRANCH   4   5
ATOM      5  C   UNL     1       2.081   5.117  20.575  0.00  0.00    +0.000 C 
BRANCH   5   6
ATOM      6  C   UNL     1       0.954   4.095  20.453  0.00  0.00    +0.000 C 
BRANCH   6   8
ATOM      7  C   UNL     1       0.991   2.247  18.748  0.00  0.00    +0.000 C 
ATOM      8  C   UNL     1       1.497   2.711  20.103  0.00  0.00    +0.000 C 
ENDBRANCH   6   8
ENDBRANCH   5   6
ENDBRANCH   4   5
ENDBRANCH   3   4
ENDBRANCH   2   3
ENDBRANCH   1   2
BRANCH   1   9
ATOM      9  C   UNL     1       5.857   6.902  17.075  0.00  0.00    +0.000 C 
BRANCH   9  10
ATOM     10  C   UNL     1       6.950   5.872  16.835  0.00  0.00    +0.000 C 
ATOM     11  O   UNL     1       7.552   5.766  15.765  0.00  0.00    +0.000 OA
BRANCH  10  12
ATOM     12  C   UNL     1       7.295   4.962  18.018  0.00  0.00    +0.000 C 
ATOM     13  C   UNL     1       7.788   5.791  19.191  0.00  0.00    +0.000 C 
BRANCH  12  14
ATOM     14  O   UNL     1       8.311   4.030  17.667  0.00  0.00    +0.000 OA
ATOM     15  H   UNL     1       8.563   4.235  16.744  0.00  0.00    +0.000 HD
ENDBRANCH  12  14
ENDBRANCH  10  12
ENDBRANCH   9  10
ENDBRANCH   1   9
TORSDOF 10
ENDMDL
MODEL 7
REMARK VINA RESULT:      -5.2      1.336      2.005
REMARK  Name = 
REMARK  12 active torsions:
REMARK  status: ('A' for Active; 'I' for Inactive)
REMARK    1  A    between atoms: C_1  and  C_2
REMARK    2  A    between atoms: C_2  and  C_3
REMARK    3  A    between atoms: C_3  and  C_4
REMARK    4  A    between atoms: C_4  and  C_5
REMARK    5  A    between atoms: C_5  and  C_6
REMARK    6  A    between atoms: C_6  and  C_7
REMARK    7  A    between atoms: C_7  and  C_8
REMARK    8  A    between atoms: C_8  and  C_9
REMARK    9  A    between atoms: C_9  and  C_10
REMARK   10  A    between atoms: C_10  and  C_12
REMARK   11  A    between atoms: C_12  and  C_13
REMARK   12  A    between atoms: C_12  and  O_14
REMARK                            x       y       z     vdW  Elec       q    Type
REMARK                         _______ _______ _______ _____ _____    ______ ____
ROOT
ATOM      1  C   UNL     1       5.038   3.671  18.421  0.00  0.00    +0.000 C 
ENDROOT
BRANCH   1   2
ATOM      2  C   UNL     1       4.060   3.814  17.254  0.00  0.00    +0.000 C 
BRANCH   2   3
ATOM      3  C   UNL     1       2.986   4.857  17.568  0.00  0.00    +0.000 C 
BRANCH   3   4
ATOM      4  C   UNL     1       1.647   4.199  17.900  0.00  0.00    +0.000 C 
BRANCH   4   5
ATOM      5  C   UNL     1       1.312   4.352  19.386  0.00  0.00    +0.000 C 
BRANCH   5   6
ATOM      6  C   UNL     1       0.810   3.037  19.977  0.00  0.00    +0.000 C 
BRANCH   6   8
ATOM      7  C   UNL     1       2.938   2.610  21.247  0.00  0.00    +0.000 C 
ATOM      8  C   UNL     1       1.431   2.773  21.347  0.00  0.00    +0.000 C 
ENDBRANCH   6   8
ENDBRANCH   5   6
ENDBRANCH   4   5
ENDBRANCH   3   4
ENDBRANCH   2   3
ENDBRANCH   1   2
BRANCH   1   9
ATOM      9  C   UNL     1       5.713   5.000  18.749  0.00  0.00    +0.000 C 
BRANCH   9  10
ATOM     10  C   UNL     1       7.061   5.156  18.062  0.00  0.00    +0.000 C 
ATOM     11  O   UNL     1       7.995   4.368  18.224  0.00  0.00    +0.000 OA
BRANCH  10  12
ATOM     12  C   UNL     1       7.205   6.353  17.116  0.00  0.00    +0.000 C 
ATOM     13  C   UNL     1       5.904   7.134  17.057  0.00  0.00    +0.000 C 
BRANCH  12  14
ATOM     14  O   UNL     1       7.537   5.929  15.800  0.00  0.00    +0.000 OA
ATOM     15  H   UNL     1       7.961   5.052  15.894  0.00  0.00    +0.000 HD
ENDBRANCH  12  14
ENDBRANCH  10  12
ENDBRANCH   9  10
ENDBRANCH   1   9
TORSDOF 10
ENDMDL
MODEL 8
REMARK VINA RESULT:      -5.2      1.440      2.448
REMARK  Name = 
REMARK  12 active torsions:
REMARK  status: ('A' for Active; 'I' for Inactive)
REMARK    1  A    between atoms: C_1  and  C_2
REMARK    2  A    between atoms: C_2  and  C_3
REMARK    3  A    between atoms: C_3  and  C_4
REMARK    4  A    between atoms: C_4  and  C_5
REMARK    5  A    between atoms: C_5  and  C_6
REMARK    6  A    between atoms: C_6  and  C_7
REMARK    7  A    between atoms: C_7  and  C_8
REMARK    8  A    between atoms: C_8  and  C_9
REMARK    9  A    between atoms: C_9  and  C_10
REMARK   10  A    between atoms: C_10  and  C_12
REMARK   11  A    between atoms: C_12  and  C_13
REMARK   12  A    between atoms: C_12  and  O_14
REMARK                            x       y       z     vdW  Elec       q    Type
REMARK                         _______ _______ _______ _____ _____    ______ ____
ROOT
ATOM      1  C   UNL     1       3.792   4.663  17.159  0.00  0.00    +0.000 C 
ENDROOT
BRANCH   1   2
ATOM      2  C   UNL     1       2.810   3.490  17.170  0.00  0.00    +0.000 C 
BRANCH   2   3
ATOM      3  C   UNL     1       1.507   3.876  17.871  0.00  0.00    +0.000 C 
BRANCH   3   4
ATOM      4  C   UNL     1       1.241   2.989  19.087  0.00  0.00    +0.000 C 
BRANCH   4   5
ATOM      5  C   UNL     1       0.956   3.832  20.333  0.00  0.00    +0.000 C 
BRANCH   5   6
ATOM      6  C   UNL     1       2.121   4.767  20.644  0.00  0.00    +0.000 C 
BRANCH   6   8
ATOM      7  C   UNL     1       2.400   7.035  19.592  0.00  0.00    +0.000 C 
ATOM      8  C   UNL     1       1.672   6.227  20.653  0.00  0.00    +0.000 C 
ENDBRANCH   6   8
ENDBRANCH   5   6
ENDBRANCH   4   5
ENDBRANCH   3   4
ENDBRANCH   2   3
ENDBRANCH   1   2
BRANCH   1   9
ATOM      9  C   UNL     1       5.211   4.199  16.847  0.00  0.00    +0.000 C 
BRANCH   9  10
ATOM     10  C   UNL     1       6.201   4.570  17.940  0.00  0.00    +0.000 C 
ATOM     11  O   UNL     1       6.042   4.265  19.124  0.00  0.00    +0.000 OA
BRANCH  10  12
ATOM     12  C   UNL     1       7.449   5.338  17.493  0.00  0.00    +0.000 C 
ATOM     13  C   UNL     1       7.699   6.516  18.418  0.00  0.00    +0.000 C 
BRANCH  12  14
ATOM     14  O   UNL     1       7.299   5.831  16.167  0.00  0.00    +0.000 OA
ATOM     15  H   UNL     1       7.655   6.742  16.171  0.00  0.00    +0.000 HD
ENDBRANCH  12  14
ENDBRANCH  10  12
ENDBRANCH   9  10
ENDBRANCH   1   9
TORSDOF 10
ENDMDL
MODEL 9
REMARK VINA RESULT:      -5.1      1.438      2.305
REMARK  Name = 
REMARK  12 active torsions:
REMARK  status: ('A' for Active; 'I' for Inactive)
REMARK    1  A    between atoms: C_1  and  C_2
REMARK    2  A    between atoms: C_2  and  C_3
REMARK    3  A    between atoms: C_3  and  C_4
REMARK    4  A    between atoms: C_4  and  C_5
REMARK    5  A    between atoms: C_5  and  C_6
REMARK    6  A    between atoms: C_6  and  C_7
REMARK    7  A    between atoms: C_7  and  C_8
REMARK    8  A    between atoms: C_8  and  C_9
REMARK    9  A    between atoms: C_9  and  C_10
REMARK   10  A    between atoms: C_10  and  C_12
REMARK   11  A    between atoms: C_12  and  C_13
REMARK   12  A    between atoms: C_12  and  O_14
REMARK                            x       y       z     vdW  Elec       q    Type
REMARK                         _______ _______ _______ _____ _____    ______ ____
ROOT
ATOM      1  C   UNL     1       3.925   6.658  17.771  0.00  0.00    +0.000 C 
ENDROOT
BRANCH   1   2
ATOM      2  C   UNL     1       2.682   5.995  18.368  0.00  0.00    +0.000 C 
BRANCH   2   3
ATOM      3  C   UNL     1       2.996   5.375  19.731  0.00  0.00    +0.000 C 
BRANCH   3   4
ATOM      4  C   UNL     1       1.756   5.324  20.622  0.00  0.00    +0.000 C 
BRANCH   4   5
ATOM      5  C   UNL     1       0.966   4.032  20.396  0.00  0.00    +0.000 C 
BRANCH   5   6
ATOM      6  C   UNL     1       1.885   2.892  19.968  0.00  0.00    +0.000 C 
BRANCH   6   8
ATOM      7  C   UNL     1       2.668   2.204  17.679  0.00  0.00    +0.000 C 
ATOM      8  C   UNL     1       1.473   2.328  18.610  0.00  0.00    +0.000 C 
ENDBRANCH   6   8
ENDBRANCH   5   6
ENDBRANCH   4   5
ENDBRANCH   3   4
ENDBRANCH   2   3
ENDBRANCH   1   2
BRANCH   1   9
ATOM      9  C   UNL     1       5.134   5.728  17.830  0.00  0.00    +0.000 C 
BRANCH   9  10
ATOM     10  C   UNL     1       6.219   6.117  16.838  0.00  0.00    +0.000 C 
ATOM     11  O   UNL     1       6.613   7.276  16.690  0.00  0.00    +0.000 OA
BRANCH  10  12
ATOM     12  C   UNL     1       6.834   4.974  16.023  0.00  0.00    +0.000 C 
ATOM     13  C   UNL     1       5.798   3.892  15.774  0.00  0.00    +0.000 C 
BRANCH  12  14
ATOM     14  O   UNL     1       7.938   4.394  16.707  0.00  0.00    +0.000 OA
ATOM     15  H   UNL     1       8.486   5.140  17.023  0.00  0.00    +0.000 HD
ENDBRANCH  12  14
ENDBRANCH  10  12
ENDBRANCH   9  10
ENDBRANCH   1   9
TORSDOF 10
ENDMDL
