MODEL 1
REMARK VINA RESULT:      -6.1      0.000      0.000
REMARK  Name = 
REMARK  6 active torsions:
REMARK  status: ('A' for Active; 'I' for Inactive)
REMARK    1  A    between atoms: C_1  and  O_2
REMARK    2  A    between atoms: O_2  and  C_3
REMARK    3  A    between atoms: C_8  and  C_9
REMARK    4  A    between atoms: C_10  and  O_11
REMARK    5  A    between atoms: C_14  and  C_15
REMARK    6  A    between atoms: C_21  and  C_22
REMARK                            x       y       z     vdW  Elec       q    Type
REMARK                         _______ _______ _______ _____ _____    ______ ____
ROOT
ATOM      1  C   UNL     1      -2.416  12.037  18.628  0.00  0.00    +0.000 A 
ATOM      2  C   UNL     1      -2.961  11.550  17.432  0.00  0.00    +0.000 A 
ATOM      3  N   UNL     1      -4.273  11.369  17.213  0.00  0.00    +0.000 NA
ATOM      4  N   UNL     1      -5.164  11.638  18.196  0.00  0.00    +0.000 NA
ATOM      5  C   UNL     1      -4.753  12.150  19.383  0.00  0.00    +0.000 A 
ATOM      6  C   UNL     1      -3.370  12.393  19.654  0.00  0.00    +0.000 A 
ENDROOT
BRANCH   1  12
ATOM      7  C   UNL     1      -0.108  11.235  19.463  0.00  0.00    +0.000 A 
ATOM      8  C   UNL     1       1.245  11.497  19.721  0.00  0.00    +0.000 A 
ATOM      9  C   UNL     1       1.807  12.719  19.363  0.00  0.00    +0.000 A 
ATOM     10  C   UNL     1       1.046  13.650  18.670  0.00  0.00    +0.000 A 
ATOM     11  C   UNL     1      -0.283  13.364  18.344  0.00  0.00    +0.000 A 
ATOM     12  C   UNL     1      -0.922  12.192  18.791  0.00  0.00    +0.000 A 
BRANCH   7  14
ATOM     13  C   UNL     1      -0.372   9.435  21.029  0.00  0.00    +0.000 C 
ATOM     14  O   UNL     1      -0.703  10.033  19.777  0.00  0.00    +0.000 OA
ENDBRANCH   7  14
ENDBRANCH   1  12
BRANCH   5  15
ATOM     15  C   UNL     1      -5.910  12.473  20.282  0.00  0.00    +0.000 A 
ATOM     16  C   UNL     1      -6.808  11.516  20.782  0.00  0.00    +0.000 A 
ATOM     17  C   UNL     1      -7.752  11.830  21.763  0.00  0.00    +0.000 A 
ATOM     18  C   UNL     1      -7.892  13.141  22.198  0.00  0.00    +0.000 A 
ATOM     19  C   UNL     1      -7.099  14.138  21.639  0.00  0.00    +0.000 A 
ATOM     20  C   UNL     1      -6.119  13.807  20.697  0.00  0.00    +0.000 A 
ENDBRANCH   5  15
BRANCH   6  21
ATOM     21  C   UNL     1      -2.942  13.045  20.937  0.00  0.00    +0.000 A 
ATOM     22  C   UNL     1      -2.809  14.436  21.060  0.00  0.00    +0.000 A 
ATOM     23  C   UNL     1      -2.459  15.036  22.278  0.00  0.00    +0.000 A 
ATOM     24  C   UNL     1      -2.131  14.251  23.379  0.00  0.00    +0.000 A 
ATOM     25  C   UNL     1      -2.206  12.868  23.275  0.00  0.00    +0.000 A 
ATOM     26  C   UNL     1      -2.655  12.275  22.089  0.00  0.00    +0.000 A 
ENDBRANCH   6  21
BRANCH   2  27
ATOM     27  O   UNL     1      -2.198  11.256  16.335  0.00  0.00    +0.000 OA
ATOM     28  H   UNL     1      -1.537  10.612  16.631  0.00  0.00    +0.000 HD
ENDBRANCH   2  27
TORSDOF 5
ENDMDL
MODEL 2
REMARK VINA RESULT:      -6.1      1.741      6.037
REMARK  Name = 
REMARK  6 active torsions:
REMARK  status: ('A' for Active; 'I' for Inactive)
REMARK    1  A    between atoms: C_1  and  O_2
REMARK    2  A    between atoms: O_2  and  C_3
REMARK    3  A    between atoms: C_8  and  C_9
REMARK    4  A    between atoms: C_10  and  O_11
REMARK    5  A    between atoms: C_14  and  C_15
REMARK    6  A    between atoms: C_21  and  C_22
REMARK                            x       y       z     vdW  Elec       q    Type
REMARK                         _______ _______ _______ _____ _____    ______ ____
ROOT
ATOM      1  C   UNL     1      -5.121  12.232  19.257  0.00  0.00    +0.000 A 
ATOM      2  C   UNL     1      -5.471  11.531  18.094  0.00  0.00    +0.000 A 
ATOM      3  N   UNL     1      -4.590  11.048  17.204  0.00  0.00    +0.000 NA
ATOM      4  N   UNL     1      -3.264  11.251  17.389  0.00  0.00    +0.000 NA
ATOM      5  C   UNL     1      -2.808  11.884  18.499  0.00  0.00    +0.000 A 
ATOM      6  C   UNL     1      -3.703  12.388  19.494  0.00  0.00    +0.000 A 
ENDROOT
BRANCH   1  12
ATOM      7  C   UNL     1      -6.670  14.094  20.151  0.00  0.00    +0.000 A 
ATOM      8  C   UNL     1      -7.544  14.573  21.138  0.00  0.00    +0.000 A 
ATOM      9  C   UNL     1      -7.917  13.760  22.205  0.00  0.00    +0.000 A 
ATOM     10  C   UNL     1      -7.490  12.440  22.245  0.00  0.00    +0.000 A 
ATOM     11  C   UNL     1      -6.680  11.934  21.224  0.00  0.00    +0.000 A 
ATOM     12  C   UNL     1      -6.184  12.755  20.194  0.00  0.00    +0.000 A 
BRANCH   7  14
ATOM     13  C   UNL     1      -7.250  15.057  18.030  0.00  0.00    +0.000 C 
ATOM     14  O   UNL     1      -6.291  14.853  19.066  0.00  0.00    +0.000 OA
ENDBRANCH   7  14
ENDBRANCH   1  12
BRANCH   5  15
ATOM     15  C   UNL     1      -1.309  11.904  18.554  0.00  0.00    +0.000 A 
ATOM     16  C   UNL     1      -0.529  13.049  18.324  0.00  0.00    +0.000 A 
ATOM     17  C   UNL     1       0.846  13.068  18.571  0.00  0.00    +0.000 A 
ATOM     18  C   UNL     1       1.499  11.906  18.958  0.00  0.00    +0.000 A 
ATOM     19  C   UNL     1       0.778  10.723  19.081  0.00  0.00    +0.000 A 
ATOM     20  C   UNL     1      -0.608  10.724  18.886  0.00  0.00    +0.000 A 
ENDBRANCH   5  15
BRANCH   6  21
ATOM     21  C   UNL     1      -3.178  13.004  20.758  0.00  0.00    +0.000 A 
ATOM     22  C   UNL     1      -2.989  14.388  20.892  0.00  0.00    +0.000 A 
ATOM     23  C   UNL     1      -2.547  14.955  22.095  0.00  0.00    +0.000 A 
ATOM     24  C   UNL     1      -2.183  14.142  23.164  0.00  0.00    +0.000 A 
ATOM     25  C   UNL     1      -2.313  12.765  23.046  0.00  0.00    +0.000 A 
ATOM     26  C   UNL     1      -2.852  12.206  21.880  0.00  0.00    +0.000 A 
ENDBRANCH   6  21
BRANCH   2  27
ATOM     27  O   UNL     1      -6.765  11.222  17.776  0.00  0.00    +0.000 OA
ATOM     28  H   UNL     1      -6.957  10.381  18.219  0.00  0.00    +0.000 HD
ENDBRANCH   2  27
TORSDOF 5
ENDMDL
MODEL 3
REMARK VINA RESULT:      -6.1      2.107      5.100
REMARK  Name = 
REMARK  6 active torsions:
REMARK  status: ('A' for Active; 'I' for Inactive)
REMARK    1  A    between atoms: C_1  and  O_2
REMARK    2  A    between atoms: O_2  and  C_3
REMARK    3  A    between atoms: C_8  and  C_9
REMARK    4  A    between atoms: C_10  and  O_11
REMARK    5  A    between atoms: C_14  and  C_15
REMARK    6  A    between atoms: C_21  and  C_22
REMARK                            x       y       z     vdW  Elec       q    Type
REMARK                         _______ _______ _______ _____ _____    ______ ____
ROOT
ATOM      1  C   UNL     1      -3.547  13.000  20.856  0.00  0.00    +0.000 A 
ATOM      2  C   UNL     1      -4.932  12.906  21.051  0.00  0.00    +0.000 A 
ATOM      3  N   UNL     1      -5.782  12.315  20.196  0.00  0.00    +0.000 NA
ATOM      4  N   UNL     1      -5.316  11.783  19.041  0.00  0.00    +0.000 NA
ATOM      5  C   UNL     1      -3.987  11.783  18.765  0.00  0.00    +0.000 A 
ATOM      6  C   UNL     1      -3.037  12.369  19.659  0.00  0.00    +0.000 A 
ENDROOT
BRANCH   1  12
ATOM      7  C   UNL     1      -2.149  13.056  23.026  0.00  0.00    +0.000 A 
ATOM      8  C   UNL     1      -1.468  13.789  24.009  0.00  0.00    +0.000 A 
ATOM      9  C   UNL     1      -1.327  15.168  23.891  0.00  0.00    +0.000 A 
ATOM     10  C   UNL     1      -1.788  15.811  22.750  0.00  0.00    +0.000 A 
ATOM     11  C   UNL     1      -2.401  15.076  21.731  0.00  0.00    +0.000 A 
ATOM     12  C   UNL     1      -2.669  13.700  21.866  0.00  0.00    +0.000 A 
BRANCH   7  14
ATOM     13  C   UNL     1      -1.112  10.900  23.212  0.00  0.00    +0.000 C 
ATOM     14  O   UNL     1      -2.294  11.688  23.088  0.00  0.00    +0.000 OA
ENDBRANCH   7  14
ENDBRANCH   1  12
BRANCH   5  15
ATOM     15  C   UNL     1      -3.682  11.048  17.493  0.00  0.00    +0.000 A 
ATOM     16  C   UNL     1      -4.158  11.435  16.229  0.00  0.00    +0.000 A 
ATOM     17  C   UNL     1      -3.698  10.838  15.053  0.00  0.00    +0.000 A 
ATOM     18  C   UNL     1      -2.821   9.764  15.115  0.00  0.00    +0.000 A 
ATOM     19  C   UNL     1      -2.420   9.276  16.354  0.00  0.00    +0.000 A 
ATOM     20  C   UNL     1      -2.842   9.914  17.527  0.00  0.00    +0.000 A 
ENDBRANCH   5  15
BRANCH   6  21
ATOM     21  C   UNL     1      -1.564  12.279  19.381  0.00  0.00    +0.000 A 
ATOM     22  C   UNL     1      -0.784  11.203  19.830  0.00  0.00    +0.000 A 
ATOM     23  C   UNL     1       0.579  11.104  19.521  0.00  0.00    +0.000 A 
ATOM     24  C   UNL     1       1.221  12.134  18.840  0.00  0.00    +0.000 A 
ATOM     25  C   UNL     1       0.486  13.236  18.423  0.00  0.00    +0.000 A 
ATOM     26  C   UNL     1      -0.896  13.284  18.644  0.00  0.00    +0.000 A 
ENDBRANCH   6  21
BRANCH   2  27
ATOM     27  O   UNL     1      -5.556  13.370  22.176  0.00  0.00    +0.000 OA
ATOM     28  H   UNL     1      -4.859  13.751  22.733  0.00  0.00    +0.000 HD
ENDBRANCH   2  27
TORSDOF 5
ENDMDL
MODEL 4
REMARK VINA RESULT:      -6.1      1.109      2.233
REMARK  Name = 
REMARK  6 active torsions:
REMARK  status: ('A' for Active; 'I' for Inactive)
REMARK    1  A    between atoms: C_1  and  O_2
REMARK    2  A    between atoms: O_2  and  C_3
REMARK    3  A    between atoms: C_8  and  C_9
REMARK    4  A    between atoms: C_10  and  O_11
REMARK    5  A    between atoms: C_14  and  C_15
REMARK    6  A    between atoms: C_21  and  C_22
REMARK                            x       y       z     vdW  Elec       q    Type
REMARK                         _______ _______ _______ _____ _____    ______ ____
ROOT
ATOM      1  C   UNL     1      -2.335  11.858  18.482  0.00  0.00    +0.000 A 
ATOM      2  C   UNL     1      -2.961  11.570  17.261  0.00  0.00    +0.000 A 
ATOM      3  N   UNL     1      -4.285  11.651  17.049  0.00  0.00    +0.000 NA
ATOM      4  N   UNL     1      -5.110  12.005  18.062  0.00  0.00    +0.000 NA
ATOM      5  C   UNL     1      -4.610  12.342  19.278  0.00  0.00    +0.000 A 
ATOM      6  C   UNL     1      -3.206  12.306  19.545  0.00  0.00    +0.000 A 
ENDROOT
BRANCH   1  12
ATOM      7  C   UNL     1       0.066  12.808  18.446  0.00  0.00    +0.000 A 
ATOM      8  C   UNL     1       1.452  12.596  18.447  0.00  0.00    +0.000 A 
ATOM      9  C   UNL     1       1.970  11.312  18.587  0.00  0.00    +0.000 A 
ATOM     10  C   UNL     1       1.111  10.245  18.813  0.00  0.00    +0.000 A 
ATOM     11  C   UNL     1      -0.268  10.460  18.888  0.00  0.00    +0.000 A 
ATOM     12  C   UNL     1      -0.838  11.722  18.633  0.00  0.00    +0.000 A 
BRANCH   7  14
ATOM     13  C   UNL     1       0.212  15.157  18.914  0.00  0.00    +0.000 C 
ATOM     14  O   UNL     1      -0.493  14.062  18.333  0.00  0.00    +0.000 OA
ENDBRANCH   7  14
ENDBRANCH   1  12
BRANCH   5  15
ATOM     15  C   UNL     1      -5.686  12.805  20.215  0.00  0.00    +0.000 A 
ATOM     16  C   UNL     1      -6.131  14.134  20.305  0.00  0.00    +0.000 A 
ATOM     17  C   UNL     1      -7.259  14.486  21.050  0.00  0.00    +0.000 A 
ATOM     18  C   UNL     1      -7.916  13.529  21.812  0.00  0.00    +0.000 A 
ATOM     19  C   UNL     1      -7.432  12.225  21.841  0.00  0.00    +0.000 A 
ATOM     20  C   UNL     1      -6.335  11.869  21.049  0.00  0.00    +0.000 A 
ENDBRANCH   5  15
BRANCH   6  21
ATOM     21  C   UNL     1      -2.664  12.770  20.866  0.00  0.00    +0.000 A 
ATOM     22  C   UNL     1      -2.262  11.870  21.866  0.00  0.00    +0.000 A 
ATOM     23  C   UNL     1      -1.710  12.315  23.074  0.00  0.00    +0.000 A 
ATOM     24  C   UNL     1      -1.640  13.675  23.357  0.00  0.00    +0.000 A 
ATOM     25  C   UNL     1      -2.074  14.591  22.407  0.00  0.00    +0.000 A 
ATOM     26  C   UNL     1      -2.530  14.147  21.160  0.00  0.00    +0.000 A 
ENDBRANCH   6  21
BRANCH   2  27
ATOM     27  O   UNL     1      -2.268  11.224  16.134  0.00  0.00    +0.000 OA
ATOM     28  H   UNL     1      -2.101  12.051  15.655  0.00  0.00    +0.000 HD
ENDBRANCH   2  27
TORSDOF 5
ENDMDL
MODEL 5
REMARK VINA RESULT:      -6.0      1.684      6.051
REMARK  Name = 
REMARK  6 active torsions:
REMARK  status: ('A' for Active; 'I' for Inactive)
REMARK    1  A    between atoms: C_1  and  O_2
REMARK    2  A    between atoms: O_2  and  C_3
REMARK    3  A    between atoms: C_8  and  C_9
REMARK    4  A    between atoms: C_10  and  O_11
REMARK    5  A    between atoms: C_14  and  C_15
REMARK    6  A    between atoms: C_21  and  C_22
REMARK                            x       y       z     vdW  Elec       q    Type
REMARK                         _______ _______ _______ _____ _____    ______ ____
ROOT
ATOM      1  C   UNL     1      -4.979  12.224  19.288  0.00  0.00    +0.000 A 
ATOM      2  C   UNL     1      -5.271  11.513  18.116  0.00  0.00    +0.000 A 
ATOM      3  N   UNL     1      -4.346  11.033  17.268  0.00  0.00    +0.000 NA
ATOM      4  N   UNL     1      -3.032  11.251  17.510  0.00  0.00    +0.000 NA
ATOM      5  C   UNL     1      -2.632  11.895  18.636  0.00  0.00    +0.000 A 
ATOM      6  C   UNL     1      -3.574  12.395  19.587  0.00  0.00    +0.000 A 
ENDROOT
BRANCH   1  12
ATOM      7  C   UNL     1      -6.587  14.075  20.098  0.00  0.00    +0.000 A 
ATOM      8  C   UNL     1      -7.507  14.551  21.043  0.00  0.00    +0.000 A 
ATOM      9  C   UNL     1      -7.916  13.743  22.100  0.00  0.00    +0.000 A 
ATOM     10  C   UNL     1      -7.476  12.428  22.170  0.00  0.00    +0.000 A 
ATOM     11  C   UNL     1      -6.617  11.924  21.190  0.00  0.00    +0.000 A 
ATOM     12  C   UNL     1      -6.087  12.742  20.174  0.00  0.00    +0.000 A 
BRANCH   7  14
ATOM     13  C   UNL     1      -7.078  14.995  17.937  0.00  0.00    +0.000 C 
ATOM     14  O   UNL     1      -6.170  14.829  19.024  0.00  0.00    +0.000 OA
ENDBRANCH   7  14
ENDBRANCH   1  12
BRANCH   5  15
ATOM     15  C   UNL     1      -1.136  11.929  18.757  0.00  0.00    +0.000 A 
ATOM     16  C   UNL     1      -0.350  10.819  19.105  0.00  0.00    +0.000 A 
ATOM     17  C   UNL     1       1.044  10.846  19.021  0.00  0.00    +0.000 A 
ATOM     18  C   UNL     1       1.697  12.024  18.685  0.00  0.00    +0.000 A 
ATOM     19  C   UNL     1       0.956  13.177  18.449  0.00  0.00    +0.000 A 
ATOM     20  C   UNL     1      -0.442  13.127  18.480  0.00  0.00    +0.000 A 
ENDBRANCH   5  15
BRANCH   6  21
ATOM     21  C   UNL     1      -3.112  13.024  20.869  0.00  0.00    +0.000 A 
ATOM     22  C   UNL     1      -2.819  12.262  22.011  0.00  0.00    +0.000 A 
ATOM     23  C   UNL     1      -2.339  12.856  23.186  0.00  0.00    +0.000 A 
ATOM     24  C   UNL     1      -2.237  14.240  23.283  0.00  0.00    +0.000 A 
ATOM     25  C   UNL     1      -2.565  15.025  22.186  0.00  0.00    +0.000 A 
ATOM     26  C   UNL     1      -2.946  14.424  20.980  0.00  0.00    +0.000 A 
ENDBRANCH   6  21
BRANCH   2  27
ATOM     27  O   UNL     1      -6.546  11.189  17.742  0.00  0.00    +0.000 OA
ATOM     28  H   UNL     1      -6.798  10.423  18.282  0.00  0.00    +0.000 HD
ENDBRANCH   2  27
TORSDOF 5
ENDMDL
MODEL 6
REMARK VINA RESULT:      -5.9      1.724      5.851
REMARK  Name = 
REMARK  6 active torsions:
REMARK  status: ('A' for Active; 'I' for Inactive)
REMARK    1  A    between atoms: C_1  and  O_2
REMARK    2  A    between atoms: O_2  and  C_3
REMARK    3  A    between atoms: C_8  and  C_9
REMARK    4  A    between atoms: C_10  and  O_11
REMARK    5  A    between atoms: C_14  and  C_15
REMARK    6  A    between atoms: C_21  and  C_22
REMARK                            x       y       z     vdW  Elec       q    Type
REMARK                         _______ _______ _______ _____ _____    ______ ____
ROOT
ATOM      1  C   UNL     1      -4.870  12.288  19.221  0.00  0.00    +0.000 A 
ATOM      2  C   UNL     1      -5.304  11.672  18.038  0.00  0.00    +0.000 A 
ATOM      3  N   UNL     1      -4.486  11.163  17.103  0.00  0.00    +0.000 NA
ATOM      4  N   UNL     1      -3.144  11.252  17.259  0.00  0.00    +0.000 NA
ATOM      5  C   UNL     1      -2.612  11.794  18.384  0.00  0.00    +0.000 A 
ATOM      6  C   UNL     1      -3.439  12.319  19.425  0.00  0.00    +0.000 A 
ENDROOT
BRANCH   1  12
ATOM      7  C   UNL     1      -6.865  12.056  20.843  0.00  0.00    +0.000 A 
ATOM      8  C   UNL     1      -7.859  12.651  21.634  0.00  0.00    +0.000 A 
ATOM      9  C   UNL     1      -7.912  14.034  21.778  0.00  0.00    +0.000 A 
ATOM     10  C   UNL     1      -6.924  14.824  21.205  0.00  0.00    +0.000 A 
ATOM     11  C   UNL     1      -5.888  14.231  20.478  0.00  0.00    +0.000 A 
ATOM     12  C   UNL     1      -5.865  12.848  20.210  0.00  0.00    +0.000 A 
BRANCH   7  14
ATOM     13  C   UNL     1      -7.911   9.899  20.971  0.00  0.00    +0.000 C 
ATOM     14  O   UNL     1      -6.759  10.691  20.690  0.00  0.00    +0.000 OA
ENDBRANCH   7  14
ENDBRANCH   1  12
BRANCH   5  15
ATOM     15  C   UNL     1      -1.115  11.693  18.398  0.00  0.00    +0.000 A 
ATOM     16  C   UNL     1      -0.252  12.795  18.283  0.00  0.00    +0.000 A 
ATOM     17  C   UNL     1       1.125  12.679  18.490  0.00  0.00    +0.000 A 
ATOM     18  C   UNL     1       1.691  11.432  18.718  0.00  0.00    +0.000 A 
ATOM     19  C   UNL     1       0.882  10.301  18.721  0.00  0.00    +0.000 A 
ATOM     20  C   UNL     1      -0.503  10.432  18.567  0.00  0.00    +0.000 A 
ENDBRANCH   5  15
BRANCH   6  21
ATOM     21  C   UNL     1      -2.836  12.832  20.700  0.00  0.00    +0.000 A 
ATOM     22  C   UNL     1      -2.429  14.166  20.851  0.00  0.00    +0.000 A 
ATOM     23  C   UNL     1      -1.914  14.645  22.063  0.00  0.00    +0.000 A 
ATOM     24  C   UNL     1      -1.697  13.775  23.127  0.00  0.00    +0.000 A 
ATOM     25  C   UNL     1      -2.045  12.437  22.993  0.00  0.00    +0.000 A 
ATOM     26  C   UNL     1      -2.653  11.983  21.817  0.00  0.00    +0.000 A 
ENDBRANCH   6  21
BRANCH   2  27
ATOM     27  O   UNL     1      -6.625  11.481  17.742  0.00  0.00    +0.000 OA
ATOM     28  H   UNL     1      -7.068  12.324  17.928  0.00  0.00    +0.000 HD
ENDBRANCH   2  27
TORSDOF 5
ENDMDL
MODEL 7
REMARK VINA RESULT:      -5.9      1.771      5.862
REMARK  Name = 
REMARK  6 active torsions:
REMARK  status: ('A' for Active; 'I' for Inactive)
REMARK    1  A    between atoms: C_1  and  O_2
REMARK    2  A    between atoms: O_2  and  C_3
REMARK    3  A    between atoms: C_8  and  C_9
REMARK    4  A    between atoms: C_10  and  O_11
REMARK    5  A    between atoms: C_14  and  C_15
REMARK    6  A    between atoms: C_21  and  C_22
REMARK                            x       y       z     vdW  Elec       q    Type
REMARK                         _______ _______ _______ _____ _____    ______ ____
ROOT
ATOM      1  C   UNL     1      -4.915  12.483  19.212  0.00  0.00    +0.000 A 
ATOM      2  C   UNL     1      -5.346  11.784  18.077  0.00  0.00    +0.000 A 
ATOM      3  N   UNL     1      -4.543  11.062  17.279  0.00  0.00    +0.000 NA
ATOM      4  N   UNL     1      -3.215  10.999  17.537  0.00  0.00    +0.000 NA
ATOM      5  C   UNL     1      -2.693  11.606  18.632  0.00  0.00    +0.000 A 
ATOM      6  C   UNL     1      -3.510  12.359  19.531  0.00  0.00    +0.000 A 
ENDROOT
BRANCH   1  12
ATOM      7  C   UNL     1      -6.822  12.691  20.940  0.00  0.00    +0.000 A 
ATOM      8  C   UNL     1      -7.806  13.466  21.571  0.00  0.00    +0.000 A 
ATOM      9  C   UNL     1      -7.916  14.826  21.296  0.00  0.00    +0.000 A 
ATOM     10  C   UNL     1      -6.992  15.436  20.458  0.00  0.00    +0.000 A 
ATOM     11  C   UNL     1      -5.963  14.683  19.885  0.00  0.00    +0.000 A 
ATOM     12  C   UNL     1      -5.889  13.286  20.042  0.00  0.00    +0.000 A 
BRANCH   7  14
ATOM     13  C   UNL     1      -7.762  10.482  20.931  0.00  0.00    +0.000 C 
ATOM     14  O   UNL     1      -6.659  11.347  21.197  0.00  0.00    +0.000 OA
ENDBRANCH   7  14
ENDBRANCH   1  12
BRANCH   5  15
ATOM     15  C   UNL     1      -1.228  11.318  18.783  0.00  0.00    +0.000 A 
ATOM     16  C   UNL     1      -0.209  12.212  18.414  0.00  0.00    +0.000 A 
ATOM     17  C   UNL     1       1.129  11.984  18.746  0.00  0.00    +0.000 A 
ATOM     18  C   UNL     1       1.499  10.800  19.369  0.00  0.00    +0.000 A 
ATOM     19  C   UNL     1       0.532   9.838  19.643  0.00  0.00    +0.000 A 
ATOM     20  C   UNL     1      -0.813  10.097  19.358  0.00  0.00    +0.000 A 
ENDBRANCH   5  15
BRANCH   6  21
ATOM     21  C   UNL     1      -2.931  12.947  20.785  0.00  0.00    +0.000 A 
ATOM     22  C   UNL     1      -2.991  12.282  22.020  0.00  0.00    +0.000 A 
ATOM     23  C   UNL     1      -2.402  12.818  23.172  0.00  0.00    +0.000 A 
ATOM     24  C   UNL     1      -1.825  14.084  23.143  0.00  0.00    +0.000 A 
ATOM     25  C   UNL     1      -1.792  14.789  21.947  0.00  0.00    +0.000 A 
ATOM     26  C   UNL     1      -2.290  14.208  20.774  0.00  0.00    +0.000 A 
ENDBRANCH   6  21
BRANCH   2  27
ATOM     27  O   UNL     1      -6.658  11.726  17.695  0.00  0.00    +0.000 OA
ATOM     28  H   UNL     1      -6.732  12.277  16.900  0.00  0.00    +0.000 HD
ENDBRANCH   2  27
TORSDOF 5
ENDMDL
MODEL 8
REMARK VINA RESULT:      -5.9      2.295      5.285
REMARK  Name = 
REMARK  6 active torsions:
REMARK  status: ('A' for Active; 'I' for Inactive)
REMARK    1  A    between atoms: C_1  and  O_2
REMARK    2  A    between atoms: O_2  and  C_3
REMARK    3  A    between atoms: C_8  and  C_9
REMARK    4  A    between atoms: C_10  and  O_11
REMARK    5  A    between atoms: C_14  and  C_15
REMARK    6  A    between atoms: C_21  and  C_22
REMARK                            x       y       z     vdW  Elec       q    Type
REMARK                         _______ _______ _______ _____ _____    ______ ____
ROOT
ATOM      1  C   UNL     1      -3.951  13.300  21.052  0.00  0.00    +0.000 A 
ATOM      2  C   UNL     1      -5.353  13.270  21.052  0.00  0.00    +0.000 A 
ATOM      3  N   UNL     1      -6.100  12.681  20.105  0.00  0.00    +0.000 NA
ATOM      4  N   UNL     1      -5.502  12.087  19.046  0.00  0.00    +0.000 NA
ATOM      5  C   UNL     1      -4.149  12.023  18.961  0.00  0.00    +0.000 A 
ATOM      6  C   UNL     1      -3.308  12.604  19.960  0.00  0.00    +0.000 A 
ENDROOT
BRANCH   1  12
ATOM      7  C   UNL     1      -3.202  13.565  23.508  0.00  0.00    +0.000 A 
ATOM      8  C   UNL     1      -2.608  14.337  24.517  0.00  0.00    +0.000 A 
ATOM      9  C   UNL     1      -2.036  15.570  24.218  0.00  0.00    +0.000 A 
ATOM     10  C   UNL     1      -1.977  15.999  22.899  0.00  0.00    +0.000 A 
ATOM     11  C   UNL     1      -2.501  15.199  21.878  0.00  0.00    +0.000 A 
ATOM     12  C   UNL     1      -3.192  14.003  22.152  0.00  0.00    +0.000 A 
BRANCH   7  14
ATOM     13  C   UNL     1      -4.691  12.221  24.827  0.00  0.00    +0.000 C 
ATOM     14  O   UNL     1      -3.760  12.329  23.752  0.00  0.00    +0.000 OA
ENDBRANCH   7  14
ENDBRANCH   1  12
BRANCH   5  15
ATOM     15  C   UNL     1      -3.702  11.228  17.768  0.00  0.00    +0.000 A 
ATOM     16  C   UNL     1      -4.174  11.439  16.463  0.00  0.00    +0.000 A 
ATOM     17  C   UNL     1      -3.596  10.809  15.358  0.00  0.00    +0.000 A 
ATOM     18  C   UNL     1      -2.592   9.868  15.541  0.00  0.00    +0.000 A 
ATOM     19  C   UNL     1      -2.180   9.546  16.830  0.00  0.00    +0.000 A 
ATOM     20  C   UNL     1      -2.726  10.222  17.928  0.00  0.00    +0.000 A 
ENDBRANCH   5  15
BRANCH   6  21
ATOM     21  C   UNL     1      -1.816  12.444  19.896  0.00  0.00    +0.000 A 
ATOM     22  C   UNL     1      -1.129  11.522  20.700  0.00  0.00    +0.000 A 
ATOM     23  C   UNL     1       0.257  11.345  20.594  0.00  0.00    +0.000 A 
ATOM     24  C   UNL     1       1.007  12.162  19.754  0.00  0.00    +0.000 A 
ATOM     25  C   UNL     1       0.362  13.118  18.980  0.00  0.00    +0.000 A 
ATOM     26  C   UNL     1      -1.034  13.222  19.011  0.00  0.00    +0.000 A 
ENDBRANCH   6  21
BRANCH   2  27
ATOM     27  O   UNL     1      -6.106  13.802  22.063  0.00  0.00    +0.000 OA
ATOM     28  H   UNL     1      -6.480  13.049  22.546  0.00  0.00    +0.000 HD
ENDBRANCH   2  27
TORSDOF 5
ENDMDL
MODEL 9
REMARK VINA RESULT:      -5.8      2.323      5.215
REMARK  Name = 
REMARK  6 active torsions:
REMARK  status: ('A' for Active; 'I' for Inactive)
REMARK    1  A    between atoms: C_1  and  O_2
REMARK    2  A    between atoms: O_2  and  C_3
REMARK    3  A    between atoms: C_8  and  C_9
REMARK    4  A    between atoms: C_10  and  O_11
REMARK    5  A    between atoms: C_14  and  C_15
REMARK    6  A    between atoms: C_21  and  C_22
REMARK                            x       y       z     vdW  Elec       q    Type
REMARK                         _______ _______ _______ _____ _____    ______ ____
ROOT
ATOM      1  C   UNL     1      -3.990  13.330  21.089  0.00  0.00    +0.000 A 
ATOM      2  C   UNL     1      -5.387  13.233  21.029  0.00  0.00    +0.000 A 
ATOM      3  N   UNL     1      -6.064  12.619  20.046  0.00  0.00    +0.000 NA
ATOM      4  N   UNL     1      -5.393  12.065  19.008  0.00  0.00    +0.000 NA
ATOM      5  C   UNL     1      -4.036  12.067  18.981  0.00  0.00    +0.000 A 
ATOM      6  C   UNL     1      -3.268  12.677  20.020  0.00  0.00    +0.000 A 
ENDROOT
BRANCH   1  12
ATOM      7  C   UNL     1      -3.350  13.597  23.576  0.00  0.00    +0.000 A 
ATOM      8  C   UNL     1      -2.839  14.386  24.618  0.00  0.00    +0.000 A 
ATOM      9  C   UNL     1      -2.327  15.653  24.357  0.00  0.00    +0.000 A 
ATOM     10  C   UNL     1      -2.242  16.105  23.047  0.00  0.00    +0.000 A 
ATOM     11  C   UNL     1      -2.681  15.293  21.997  0.00  0.00    +0.000 A 
ATOM     12  C   UNL     1      -3.314  14.057  22.228  0.00  0.00    +0.000 A 
BRANCH   7  14
ATOM     13  C   UNL     1      -4.837  12.159  24.794  0.00  0.00    +0.000 C 
ATOM     14  O   UNL     1      -3.846  12.329  23.782  0.00  0.00    +0.000 OA
ENDBRANCH   7  14
ENDBRANCH   1  12
BRANCH   5  15
ATOM     15  C   UNL     1      -3.501  11.308  17.802  0.00  0.00    +0.000 A 
ATOM     16  C   UNL     1      -2.429  10.404  17.871  0.00  0.00    +0.000 A 
ATOM     17  C   UNL     1      -2.087   9.581  16.795  0.00  0.00    +0.000 A 
ATOM     18  C   UNL     1      -2.746   9.714  15.581  0.00  0.00    +0.000 A 
ATOM     19  C   UNL     1      -3.734  10.682  15.439  0.00  0.00    +0.000 A 
ATOM     20  C   UNL     1      -4.109  11.465  16.537  0.00  0.00    +0.000 A 
ENDBRANCH   5  15
BRANCH   6  21
ATOM     21  C   UNL     1      -1.769  12.590  20.019  0.00  0.00    +0.000 A 
ATOM     22  C   UNL     1      -0.972  13.435  19.232  0.00  0.00    +0.000 A 
ATOM     23  C   UNL     1       0.427  13.379  19.279  0.00  0.00    +0.000 A 
ATOM     24  C   UNL     1       1.066  12.404  20.038  0.00  0.00    +0.000 A 
ATOM     25  C   UNL     1       0.304  11.520  20.792  0.00  0.00    +0.000 A 
ATOM     26  C   UNL     1      -1.090  11.644  20.823  0.00  0.00    +0.000 A 
ENDBRANCH   6  21
BRANCH   2  27
ATOM     27  O   UNL     1      -6.208  13.717  22.010  0.00  0.00    +0.000 OA
ATOM     28  H   UNL     1      -6.943  13.088  22.081  0.00  0.00    +0.000 HD
ENDBRANCH   2  27
TORSDOF 5
ENDMDL
