MODEL 1
REMARK VINA RESULT:      -7.5      0.000      0.000
REMARK  Name = 
REMARK  15 active torsions:
REMARK  status: ('A' for Active; 'I' for Inactive)
REMARK    1  A    between atoms: C_2  and  O_3
REMARK    2  A    between atoms: C_2  and  C_4
REMARK    3  A    between atoms: C_4  and  C_5
REMARK    4  A    between atoms: C_5  and  C_6
REMARK    5  A    between atoms: C_6  and  C_7
REMARK    6  A    between atoms: C_7  and  C_8
REMARK    7  A    between atoms: C_8  and  C_9
REMARK    8  A    between atoms: C_9  and  N_10
REMARK    9  A    between atoms: C_15  and  C_16
REMARK   10  A    between atoms: C_16  and  C_17
REMARK   11  A    between atoms: C_17  and  C_18
REMARK   12  A    between atoms: C_18  and  O_19
REMARK   13  A    between atoms: C_18  and  C_20
REMARK   14  A    between atoms: C_20  and  C_21
REMARK   15  A    between atoms: C_25  and  C_26
REMARK                            x       y       z     vdW  Elec       q    Type
REMARK                         _______ _______ _______ _____ _____    ______ ____
ROOT
ATOM      1  N   UNL     1       1.877   3.978  19.192  0.00  0.00    +0.000 N 
ATOM      2  C   UNL     1       1.049   2.932  19.580  0.00  0.00    +0.000 C 
ATOM      3  O   UNL     1       0.360   2.230  18.856  0.00  0.00    +0.000 OA
ATOM      4  C   UNL     1       1.116   2.821  21.080  0.00  0.00    +0.000 C 
ATOM      5  C   UNL     1       2.386   3.596  21.415  0.00  0.00    +0.000 C 
ATOM      6  C   UNL     1       2.457   4.675  20.333  0.00  0.00    +0.000 C 
ENDROOT
BRANCH   1   7
ATOM      7  C   UNL     1       2.041   4.391  17.803  0.00  0.00    +0.000 C 
BRANCH   7   8
ATOM      8  C   UNL     1       2.927   3.427  17.017  0.00  0.00    +0.000 C 
BRANCH   8   9
ATOM      9  C   UNL     1       4.258   4.065  16.613  0.00  0.00    +0.000 C 
BRANCH   9  10
ATOM     10  C   UNL     1       4.363   5.484  17.176  0.00  0.00    +0.000 C 
BRANCH  10  11
ATOM     11  C   UNL     1       5.533   6.253  16.563  0.00  0.00    +0.000 C 
BRANCH  11  12
ATOM     12  C   UNL     1       6.666   6.438  17.573  0.00  0.00    +0.000 C 
BRANCH  12  14
ATOM     13  O   UNL     1       7.863   4.472  16.790  0.00  0.00    +0.000 OA
ATOM     14  C   UNL     1       7.511   5.191  17.713  0.00  0.00    +0.000 C 
BRANCH  14  15
ATOM     15  O   UNL     1       7.847   4.933  18.993  0.00  0.00    +0.000 OA
ATOM     16  H   UNL     1       8.761   5.175  19.231  0.00  0.00    +0.000 HD
ENDBRANCH  14  15
ENDBRANCH  12  14
ENDBRANCH  11  12
ENDBRANCH  10  11
ENDBRANCH   9  10
ENDBRANCH   8   9
ENDBRANCH   7   8
ENDBRANCH   1   7
BRANCH   6  17
ATOM     17  C   UNL     1       1.666   5.942  20.708  0.00  0.00    +0.000 C 
BRANCH  17  18
ATOM     18  C   UNL     1       2.144   7.189  19.945  0.00  0.00    +0.000 C 
BRANCH  18  19
ATOM     19  C   UNL     1       1.211   8.390  20.134  0.00  0.00    +0.000 C 
BRANCH  19  20
ATOM     20  O   UNL     1       1.498   8.974  21.406  0.00  0.00    +0.000 OA
ATOM     21  H   UNL     1       0.923   8.561  22.071  0.00  0.00    +0.000 HD
ENDBRANCH  19  20
BRANCH  19  22
ATOM     22  C   UNL     1       1.423   9.412  18.999  0.00  0.00    +0.000 C 
BRANCH  22  23
ATOM     23  C   UNL     1       0.236  10.326  18.808  0.00  0.00    +0.000 A 
ATOM     24  C   UNL     1       0.015  11.396  19.683  0.00  0.00    +0.000 A 
ATOM     25  C   UNL     1      -1.119  12.196  19.553  0.00  0.00    +0.000 A 
ATOM     26  C   UNL     1      -2.052  11.928  18.552  0.00  0.00    +0.000 A 
ATOM     27  C   UNL     1      -1.849  10.867  17.660  0.00  0.00    +0.000 A 
ATOM     28  C   UNL     1      -0.690  10.082  17.786  0.00  0.00    +0.000 A 
BRANCH  27  29
ATOM     29  C   UNL     1      -2.860  10.529  16.594  0.00  0.00    +0.000 C 
ATOM     30  F   UNL     1      -3.000   9.192  16.371  0.00  0.00    +0.000 F 
ATOM     31  F   UNL     1      -4.107  10.991  16.892  0.00  0.00    +0.000 F 
ATOM     32  F   UNL     1      -2.542  11.077  15.387  0.00  0.00    +0.000 F 
ENDBRANCH  27  29
ENDBRANCH  22  23
ENDBRANCH  19  22
ENDBRANCH  18  19
ENDBRANCH  17  18
ENDBRANCH   6  17
TORSDOF 15
ENDMDL
MODEL 2
REMARK VINA RESULT:      -7.4      4.303      6.432
REMARK  Name = 
REMARK  15 active torsions:
REMARK  status: ('A' for Active; 'I' for Inactive)
REMARK    1  A    between atoms: C_2  and  O_3
REMARK    2  A    between atoms: C_2  and  C_4
REMARK    3  A    between atoms: C_4  and  C_5
REMARK    4  A    between atoms: C_5  and  C_6
REMARK    5  A    between atoms: C_6  and  C_7
REMARK    6  A    between atoms: C_7  and  C_8
REMARK    7  A    between atoms: C_8  and  C_9
REMARK    8  A    between atoms: C_9  and  N_10
REMARK    9  A    between atoms: C_15  and  C_16
REMARK   10  A    between atoms: C_16  and  C_17
REMARK   11  A    between atoms: C_17  and  C_18
REMARK   12  A    between atoms: C_18  and  O_19
REMARK   13  A    between atoms: C_18  and  C_20
REMARK   14  A    between atoms: C_20  and  C_21
REMARK   15  A    between atoms: C_25  and  C_26
REMARK                            x       y       z     vdW  Elec       q    Type
REMARK                         _______ _______ _______ _____ _____    ______ ____
ROOT
ATOM      1  N   UNL     1       6.392   6.532  17.118  0.00  0.00    +0.000 N 
ATOM      2  C   UNL     1       5.623   6.180  16.014  0.00  0.00    +0.000 C 
ATOM      3  O   UNL     1       5.067   6.937  15.233  0.00  0.00    +0.000 OA
ATOM      4  C   UNL     1       5.558   4.677  15.956  0.00  0.00    +0.000 C 
ATOM      5  C   UNL     1       6.720   4.258  16.850  0.00  0.00    +0.000 C 
ATOM      6  C   UNL     1       6.800   5.370  17.898  0.00  0.00    +0.000 C 
ENDROOT
BRANCH   1   7
ATOM      7  C   UNL     1       6.650   7.915  17.500  0.00  0.00    +0.000 C 
BRANCH   7   8
ATOM      8  C   UNL     1       8.090   8.125  17.962  0.00  0.00    +0.000 C 
BRANCH   8   9
ATOM      9  C   UNL     1       8.477   9.605  17.992  0.00  0.00    +0.000 C 
BRANCH   9  10
ATOM     10  C   UNL     1       9.177   9.948  19.309  0.00  0.00    +0.000 C 
BRANCH  10  11
ATOM     11  C   UNL     1       9.848  11.320  19.254  0.00  0.00    +0.000 C 
BRANCH  11  12
ATOM     12  C   UNL     1       9.588  12.011  17.915  0.00  0.00    +0.000 C 
BRANCH  12  14
ATOM     13  O   UNL     1      11.966  12.370  17.561  0.00  0.00    +0.000 OA
ATOM     14  C   UNL     1      10.812  12.738  17.403  0.00  0.00    +0.000 C 
BRANCH  14  15
ATOM     15  O   UNL     1      10.504  13.871  16.739  0.00  0.00    +0.000 OA
ATOM     16  H   UNL     1      10.438  13.770  15.772  0.00  0.00    +0.000 HD
ENDBRANCH  14  15
ENDBRANCH  12  14
ENDBRANCH  11  12
ENDBRANCH  10  11
ENDBRANCH   9  10
ENDBRANCH   8   9
ENDBRANCH   7   8
ENDBRANCH   1   7
BRANCH   6  17
ATOM     17  C   UNL     1       5.873   5.118  19.100  0.00  0.00    +0.000 C 
BRANCH  17  18
ATOM     18  C   UNL     1       5.066   3.815  18.966  0.00  0.00    +0.000 C 
BRANCH  18  19
ATOM     19  C   UNL     1       3.561   4.065  18.824  0.00  0.00    +0.000 C 
BRANCH  19  20
ATOM     20  O   UNL     1       2.914   2.795  18.707  0.00  0.00    +0.000 OA
ATOM     21  H   UNL     1       3.476   2.212  18.171  0.00  0.00    +0.000 HD
ENDBRANCH  19  20
BRANCH  19  22
ATOM     22  C   UNL     1       3.031   4.841  20.046  0.00  0.00    +0.000 C 
BRANCH  22  23
ATOM     23  C   UNL     1       2.497   6.206  19.683  0.00  0.00    +0.000 A 
ATOM     24  C   UNL     1       2.752   6.755  18.420  0.00  0.00    +0.000 A 
ATOM     25  C   UNL     1       2.323   8.045  18.108  0.00  0.00    +0.000 A 
ATOM     26  C   UNL     1       1.643   8.804  19.060  0.00  0.00    +0.000 A 
ATOM     27  C   UNL     1       1.369   8.272  20.327  0.00  0.00    +0.000 A 
ATOM     28  C   UNL     1       1.786   6.963  20.622  0.00  0.00    +0.000 A 
BRANCH  27  29
ATOM     29  C   UNL     1       0.672   9.085  21.389  0.00  0.00    +0.000 C 
ATOM     30  F   UNL     1       0.432  10.376  21.026  0.00  0.00    +0.000 F 
ATOM     31  F   UNL     1      -0.537   8.562  21.735  0.00  0.00    +0.000 F 
ATOM     32  F   UNL     1       1.391   9.150  22.545  0.00  0.00    +0.000 F 
ENDBRANCH  27  29
ENDBRANCH  22  23
ENDBRANCH  19  22
ENDBRANCH  18  19
ENDBRANCH  17  18
ENDBRANCH   6  17
TORSDOF 15
ENDMDL
MODEL 3
REMARK VINA RESULT:      -7.3      1.874      3.901
REMARK  Name = 
REMARK  15 active torsions:
REMARK  status: ('A' for Active; 'I' for Inactive)
REMARK    1  A    between atoms: C_2  and  O_3
REMARK    2  A    between atoms: C_2  and  C_4
REMARK    3  A    between atoms: C_4  and  C_5
REMARK    4  A    between atoms: C_5  and  C_6
REMARK    5  A    between atoms: C_6  and  C_7
REMARK    6  A    between atoms: C_7  and  C_8
REMARK    7  A    between atoms: C_8  and  C_9
REMARK    8  A    between atoms: C_9  and  N_10
REMARK    9  A    between atoms: C_15  and  C_16
REMARK   10  A    between atoms: C_16  and  C_17
REMARK   11  A    between atoms: C_17  and  C_18
REMARK   12  A    between atoms: C_18  and  O_19
REMARK   13  A    between atoms: C_18  and  C_20
REMARK   14  A    between atoms: C_20  and  C_21
REMARK   15  A    between atoms: C_25  and  C_26
REMARK                            x       y       z     vdW  Elec       q    Type
REMARK                         _______ _______ _______ _____ _____    ______ ____
ROOT
ATOM      1  N   UNL     1       4.221   5.697  18.812  0.00  0.00    +0.000 N 
ATOM      2  C   UNL     1       5.582   5.418  18.778  0.00  0.00    +0.000 C 
ATOM      3  O   UNL     1       6.294   5.105  19.720  0.00  0.00    +0.000 OA
ATOM      4  C   UNL     1       6.056   5.599  17.361  0.00  0.00    +0.000 C 
ATOM      5  C   UNL     1       4.755   5.559  16.566  0.00  0.00    +0.000 C 
ATOM      6  C   UNL     1       3.719   6.154  17.523  0.00  0.00    +0.000 C 
ENDROOT
BRANCH   1   7
ATOM      7  C   UNL     1       3.429   5.646  20.035  0.00  0.00    +0.000 C 
BRANCH   7   8
ATOM      8  C   UNL     1       1.935   5.509  19.747  0.00  0.00    +0.000 C 
BRANCH   8   9
ATOM      9  C   UNL     1       1.328   4.276  20.421  0.00  0.00    +0.000 C 
BRANCH   9  10
ATOM     10  C   UNL     1       1.117   3.157  19.399  0.00  0.00    +0.000 C 
BRANCH  10  11
ATOM     11  C   UNL     1       2.258   2.141  19.427  0.00  0.00    +0.000 C 
BRANCH  11  12
ATOM     12  C   UNL     1       3.067   2.252  20.720  0.00  0.00    +0.000 C 
BRANCH  12  14
ATOM     13  O   UNL     1       5.312   1.537  21.322  0.00  0.00    +0.000 OA
ATOM     14  C   UNL     1       4.540   1.993  20.492  0.00  0.00    +0.000 C 
BRANCH  14  15
ATOM     15  O   UNL     1       4.940   2.328  19.248  0.00  0.00    +0.000 OA
ATOM     16  H   UNL     1       4.445   1.891  18.530  0.00  0.00    +0.000 HD
ENDBRANCH  14  15
ENDBRANCH  12  14
ENDBRANCH  11  12
ENDBRANCH  10  11
ENDBRANCH   9  10
ENDBRANCH   8   9
ENDBRANCH   7   8
ENDBRANCH   1   7
BRANCH   6  17
ATOM     17  C   UNL     1       3.646   7.689  17.435  0.00  0.00    +0.000 C 
BRANCH  17  18
ATOM     18  C   UNL     1       2.206   8.222  17.531  0.00  0.00    +0.000 C 
BRANCH  18  19
ATOM     19  C   UNL     1       2.103   9.493  18.382  0.00  0.00    +0.000 C 
BRANCH  19  20
ATOM     20  O   UNL     1       1.954  10.604  17.496  0.00  0.00    +0.000 OA
ATOM     21  H   UNL     1       1.690  11.379  18.018  0.00  0.00    +0.000 HD
ENDBRANCH  19  20
BRANCH  19  22
ATOM     22  C   UNL     1       0.903   9.393  19.345  0.00  0.00    +0.000 C 
BRANCH  22  23
ATOM     23  C   UNL     1      -0.224  10.326  18.971  0.00  0.00    +0.000 A 
ATOM     24  C   UNL     1      -0.531  11.428  19.780  0.00  0.00    +0.000 A 
ATOM     25  C   UNL     1      -1.616  12.249  19.478  0.00  0.00    +0.000 A 
ATOM     26  C   UNL     1      -2.414  11.972  18.368  0.00  0.00    +0.000 A 
ATOM     27  C   UNL     1      -2.122  10.879  17.540  0.00  0.00    +0.000 A 
ATOM     28  C   UNL     1      -1.011  10.073  17.842  0.00  0.00    +0.000 A 
BRANCH  27  29
ATOM     29  C   UNL     1      -2.991  10.531  16.358  0.00  0.00    +0.000 C 
ATOM     30  F   UNL     1      -4.113  11.297  16.255  0.00  0.00    +0.000 F 
ATOM     31  F   UNL     1      -2.336  10.665  15.172  0.00  0.00    +0.000 F 
ATOM     32  F   UNL     1      -3.424   9.240  16.397  0.00  0.00    +0.000 F 
ENDBRANCH  27  29
ENDBRANCH  22  23
ENDBRANCH  19  22
ENDBRANCH  18  19
ENDBRANCH  17  18
ENDBRANCH   6  17
TORSDOF 15
ENDMDL
MODEL 4
REMARK VINA RESULT:      -7.3      1.482      1.758
REMARK  Name = 
REMARK  15 active torsions:
REMARK  status: ('A' for Active; 'I' for Inactive)
REMARK    1  A    between atoms: C_2  and  O_3
REMARK    2  A    between atoms: C_2  and  C_4
REMARK    3  A    between atoms: C_4  and  C_5
REMARK    4  A    between atoms: C_5  and  C_6
REMARK    5  A    between atoms: C_6  and  C_7
REMARK    6  A    between atoms: C_7  and  C_8
REMARK    7  A    between atoms: C_8  and  C_9
REMARK    8  A    between atoms: C_9  and  N_10
REMARK    9  A    between atoms: C_15  and  C_16
REMARK   10  A    between atoms: C_16  and  C_17
REMARK   11  A    between atoms: C_17  and  C_18
REMARK   12  A    between atoms: C_18  and  O_19
REMARK   13  A    between atoms: C_18  and  C_20
REMARK   14  A    between atoms: C_20  and  C_21
REMARK   15  A    between atoms: C_25  and  C_26
REMARK                            x       y       z     vdW  Elec       q    Type
REMARK                         _______ _______ _______ _____ _____    ______ ____
ROOT
ATOM      1  N   UNL     1       2.767   4.223  19.477  0.00  0.00    +0.000 N 
ATOM      2  C   UNL     1       2.022   3.141  19.024  0.00  0.00    +0.000 C 
ATOM      3  O   UNL     1       2.134   2.565  17.953  0.00  0.00    +0.000 OA
ATOM      4  C   UNL     1       1.004   2.805  20.082  0.00  0.00    +0.000 C 
ATOM      5  C   UNL     1       1.563   3.504  21.316  0.00  0.00    +0.000 C 
ATOM      6  C   UNL     1       2.280   4.733  20.752  0.00  0.00    +0.000 C 
ENDROOT
BRANCH   1   7
ATOM      7  C   UNL     1       3.834   4.837  18.696  0.00  0.00    +0.000 C 
BRANCH   7   8
ATOM      8  C   UNL     1       3.296   5.832  17.669  0.00  0.00    +0.000 C 
BRANCH   8   9
ATOM      9  C   UNL     1       4.302   6.943  17.359  0.00  0.00    +0.000 C 
BRANCH   9  10
ATOM     10  C   UNL     1       5.238   6.514  16.227  0.00  0.00    +0.000 C 
BRANCH  10  11
ATOM     11  C   UNL     1       6.629   6.152  16.748  0.00  0.00    +0.000 C 
BRANCH  11  12
ATOM     12  C   UNL     1       7.042   4.750  16.296  0.00  0.00    +0.000 C 
BRANCH  12  14
ATOM     13  O   UNL     1       7.700   5.392  14.046  0.00  0.00    +0.000 OA
ATOM     14  C   UNL     1       7.097   4.633  14.789  0.00  0.00    +0.000 C 
BRANCH  14  15
ATOM     15  O   UNL     1       6.391   3.582  14.323  0.00  0.00    +0.000 OA
ATOM     16  H   UNL     1       6.743   3.185  13.506  0.00  0.00    +0.000 HD
ENDBRANCH  14  15
ENDBRANCH  12  14
ENDBRANCH  11  12
ENDBRANCH  10  11
ENDBRANCH   9  10
ENDBRANCH   8   9
ENDBRANCH   7   8
ENDBRANCH   1   7
BRANCH   6  17
ATOM     17  C   UNL     1       1.339   5.939  20.579  0.00  0.00    +0.000 C 
BRANCH  17  18
ATOM     18  C   UNL     1       2.087   7.283  20.587  0.00  0.00    +0.000 C 
BRANCH  18  19
ATOM     19  C   UNL     1       1.152   8.481  20.390  0.00  0.00    +0.000 C 
BRANCH  19  20
ATOM     20  O   UNL     1       1.288   9.336  21.527  0.00  0.00    +0.000 OA
ATOM     21  H   UNL     1       0.458   9.828  21.642  0.00  0.00    +0.000 HD
ENDBRANCH  19  20
BRANCH  19  22
ATOM     22  C   UNL     1       1.513   9.230  19.092  0.00  0.00    +0.000 C 
BRANCH  22  23
ATOM     23  C   UNL     1       0.429  10.183  18.649  0.00  0.00    +0.000 A 
ATOM     24  C   UNL     1       0.520  11.549  18.945  0.00  0.00    +0.000 A 
ATOM     25  C   UNL     1      -0.514  12.420  18.602  0.00  0.00    +0.000 A 
ATOM     26  C   UNL     1      -1.655  11.932  17.967  0.00  0.00    +0.000 A 
ATOM     27  C   UNL     1      -1.766  10.571  17.653  0.00  0.00    +0.000 A 
ATOM     28  C   UNL     1      -0.707   9.707  17.983  0.00  0.00    +0.000 A 
BRANCH  27  29
ATOM     29  C   UNL     1      -3.005  10.009  17.004  0.00  0.00    +0.000 C 
ATOM     30  F   UNL     1      -2.774   9.403  15.806  0.00  0.00    +0.000 F 
ATOM     31  F   UNL     1      -3.625   9.078  17.782  0.00  0.00    +0.000 F 
ATOM     32  F   UNL     1      -3.942  10.969  16.761  0.00  0.00    +0.000 F 
ENDBRANCH  27  29
ENDBRANCH  22  23
ENDBRANCH  19  22
ENDBRANCH  18  19
ENDBRANCH  17  18
ENDBRANCH   6  17
TORSDOF 15
ENDMDL
MODEL 5
REMARK VINA RESULT:      -7.3      2.970      5.303
REMARK  Name = 
REMARK  15 active torsions:
REMARK  status: ('A' for Active; 'I' for Inactive)
REMARK    1  A    between atoms: C_2  and  O_3
REMARK    2  A    between atoms: C_2  and  C_4
REMARK    3  A    between atoms: C_4  and  C_5
REMARK    4  A    between atoms: C_5  and  C_6
REMARK    5  A    between atoms: C_6  and  C_7
REMARK    6  A    between atoms: C_7  and  C_8
REMARK    7  A    between atoms: C_8  and  C_9
REMARK    8  A    between atoms: C_9  and  N_10
REMARK    9  A    between atoms: C_15  and  C_16
REMARK   10  A    between atoms: C_16  and  C_17
REMARK   11  A    between atoms: C_17  and  C_18
REMARK   12  A    between atoms: C_18  and  O_19
REMARK   13  A    between atoms: C_18  and  C_20
REMARK   14  A    between atoms: C_20  and  C_21
REMARK   15  A    between atoms: C_25  and  C_26
REMARK                            x       y       z     vdW  Elec       q    Type
REMARK                         _______ _______ _______ _____ _____    ______ ____
ROOT
ATOM      1  N   UNL     1       5.681   4.475  17.738  0.00  0.00    +0.000 N 
ATOM      2  C   UNL     1       7.065   4.515  17.619  0.00  0.00    +0.000 C 
ATOM      3  O   UNL     1       7.886   4.357  18.509  0.00  0.00    +0.000 OA
ATOM      4  C   UNL     1       7.397   4.826  16.183  0.00  0.00    +0.000 C 
ATOM      5  C   UNL     1       6.093   4.503  15.462  0.00  0.00    +0.000 C 
ATOM      6  C   UNL     1       5.010   4.828  16.493  0.00  0.00    +0.000 C 
ENDROOT
BRANCH   1   7
ATOM      7  C   UNL     1       4.997   4.223  19.000  0.00  0.00    +0.000 C 
BRANCH   7   8
ATOM      8  C   UNL     1       4.448   2.800  19.083  0.00  0.00    +0.000 C 
BRANCH   8   9
ATOM      9  C   UNL     1       3.608   2.433  17.858  0.00  0.00    +0.000 C 
BRANCH   9  10
ATOM     10  C   UNL     1       2.160   2.152  18.267  0.00  0.00    +0.000 C 
BRANCH  10  11
ATOM     11  C   UNL     1       1.445   3.422  18.731  0.00  0.00    +0.000 C 
BRANCH  11  12
ATOM     12  C   UNL     1       0.807   3.227  20.107  0.00  0.00    +0.000 C 
BRANCH  12  14
ATOM     13  O   UNL     1       2.342   4.691  21.296  0.00  0.00    +0.000 OA
ATOM     14  C   UNL     1       1.740   3.630  21.228  0.00  0.00    +0.000 C 
BRANCH  14  15
ATOM     15  O   UNL     1       1.857   2.676  22.175  0.00  0.00    +0.000 OA
ATOM     16  H   UNL     1       2.769   2.514  22.479  0.00  0.00    +0.000 HD
ENDBRANCH  14  15
ENDBRANCH  12  14
ENDBRANCH  11  12
ENDBRANCH  10  11
ENDBRANCH   9  10
ENDBRANCH   8   9
ENDBRANCH   7   8
ENDBRANCH   1   7
BRANCH   6  17
ATOM     17  C   UNL     1       4.584   6.307  16.457  0.00  0.00    +0.000 C 
BRANCH  17  18
ATOM     18  C   UNL     1       4.295   6.877  17.857  0.00  0.00    +0.000 C 
BRANCH  18  19
ATOM     19  C   UNL     1       2.820   7.245  18.051  0.00  0.00    +0.000 C 
BRANCH  19  20
ATOM     20  O   UNL     1       2.402   6.730  19.318  0.00  0.00    +0.000 OA
ATOM     21  H   UNL     1       2.045   7.464  19.844  0.00  0.00    +0.000 HD
ENDBRANCH  19  20
BRANCH  19  22
ATOM     22  C   UNL     1       2.640   8.775  17.993  0.00  0.00    +0.000 C 
BRANCH  22  23
ATOM     23  C   UNL     1       1.378   9.240  18.678  0.00  0.00    +0.000 A 
ATOM     24  C   UNL     1       0.341   9.821  17.937  0.00  0.00    +0.000 A 
ATOM     25  C   UNL     1      -0.794  10.319  18.575  0.00  0.00    +0.000 A 
ATOM     26  C   UNL     1      -0.901  10.250  19.963  0.00  0.00    +0.000 A 
ATOM     27  C   UNL     1       0.120   9.667  20.725  0.00  0.00    +0.000 A 
ATOM     28  C   UNL     1       1.248   9.147  20.069  0.00  0.00    +0.000 A 
BRANCH  27  29
ATOM     29  C   UNL     1       0.050   9.617  22.231  0.00  0.00    +0.000 C 
ATOM     30  F   UNL     1      -0.302  10.800  22.806  0.00  0.00    +0.000 F 
ATOM     31  F   UNL     1      -0.851   8.699  22.680  0.00  0.00    +0.000 F 
ATOM     32  F   UNL     1       1.242   9.270  22.793  0.00  0.00    +0.000 F 
ENDBRANCH  27  29
ENDBRANCH  22  23
ENDBRANCH  19  22
ENDBRANCH  18  19
ENDBRANCH  17  18
ENDBRANCH   6  17
TORSDOF 15
ENDMDL
MODEL 6
REMARK VINA RESULT:      -7.3      4.807      7.311
REMARK  Name = 
REMARK  15 active torsions:
REMARK  status: ('A' for Active; 'I' for Inactive)
REMARK    1  A    between atoms: C_2  and  O_3
REMARK    2  A    between atoms: C_2  and  C_4
REMARK    3  A    between atoms: C_4  and  C_5
REMARK    4  A    between atoms: C_5  and  C_6
REMARK    5  A    between atoms: C_6  and  C_7
REMARK    6  A    between atoms: C_7  and  C_8
REMARK    7  A    between atoms: C_8  and  C_9
REMARK    8  A    between atoms: C_9  and  N_10
REMARK    9  A    between atoms: C_15  and  C_16
REMARK   10  A    between atoms: C_16  and  C_17
REMARK   11  A    between atoms: C_17  and  C_18
REMARK   12  A    between atoms: C_18  and  O_19
REMARK   13  A    between atoms: C_18  and  C_20
REMARK   14  A    between atoms: C_20  and  C_21
REMARK   15  A    between atoms: C_25  and  C_26
REMARK                            x       y       z     vdW  Elec       q    Type
REMARK                         _______ _______ _______ _____ _____    ______ ____
ROOT
ATOM      1  N   UNL     1       6.541   5.371  17.238  0.00  0.00    +0.000 N 
ATOM      2  C   UNL     1       7.650   5.321  18.075  0.00  0.00    +0.000 C 
ATOM      3  O   UNL     1       8.254   4.324  18.440  0.00  0.00    +0.000 OA
ATOM      4  C   UNL     1       7.974   6.730  18.497  0.00  0.00    +0.000 C 
ATOM      5  C   UNL     1       7.229   7.567  17.463  0.00  0.00    +0.000 C 
ATOM      6  C   UNL     1       6.004   6.719  17.114  0.00  0.00    +0.000 C 
ENDROOT
BRANCH   1   7
ATOM      7  C   UNL     1       5.930   4.182  16.656  0.00  0.00    +0.000 C 
BRANCH   7   8
ATOM      8  C   UNL     1       5.107   4.509  15.411  0.00  0.00    +0.000 C 
BRANCH   8   9
ATOM      9  C   UNL     1       5.990   4.782  14.191  0.00  0.00    +0.000 C 
BRANCH   9  10
ATOM     10  C   UNL     1       6.253   3.485  13.422  0.00  0.00    +0.000 C 
BRANCH  10  11
ATOM     11  C   UNL     1       5.709   3.552  11.995  0.00  0.00    +0.000 C 
BRANCH  11  12
ATOM     12  C   UNL     1       5.300   2.167  11.492  0.00  0.00    +0.000 C 
BRANCH  12  14
ATOM     13  O   UNL     1       7.600   1.666  10.880  0.00  0.00    +0.000 OA
ATOM     14  C   UNL     1       6.498   1.278  11.240  0.00  0.00    +0.000 C 
BRANCH  14  15
ATOM     15  O   UNL     1       6.230  -0.027  11.448  0.00  0.00    +0.000 OA
ATOM     16  H   UNL     1       6.984  -0.626  11.301  0.00  0.00    +0.000 HD
ENDBRANCH  14  15
ENDBRANCH  12  14
ENDBRANCH  11  12
ENDBRANCH  10  11
ENDBRANCH   9  10
ENDBRANCH   8   9
ENDBRANCH   7   8
ENDBRANCH   1   7
BRANCH   6  17
ATOM     17  C   UNL     1       4.821   6.968  18.067  0.00  0.00    +0.000 C 
BRANCH  17  18
ATOM     18  C   UNL     1       3.672   7.742  17.400  0.00  0.00    +0.000 C 
BRANCH  18  19
ATOM     19  C   UNL     1       2.368   7.672  18.203  0.00  0.00    +0.000 C 
BRANCH  19  20
ATOM     20  O   UNL     1       1.568   8.799  17.841  0.00  0.00    +0.000 OA
ATOM     21  H   UNL     1       1.665   9.478  18.529  0.00  0.00    +0.000 HD
ENDBRANCH  19  20
BRANCH  19  22
ATOM     22  C   UNL     1       1.627   6.353  17.903  0.00  0.00    +0.000 C 
BRANCH  22  23
ATOM     23  C   UNL     1       1.964   5.258  18.887  0.00  0.00    +0.000 A 
ATOM     24  C   UNL     1       1.799   5.464  20.262  0.00  0.00    +0.000 A 
ATOM     25  C   UNL     1       2.179   4.482  21.176  0.00  0.00    +0.000 A 
ATOM     26  C   UNL     1       2.737   3.287  20.726  0.00  0.00    +0.000 A 
ATOM     27  C   UNL     1       2.905   3.055  19.354  0.00  0.00    +0.000 A 
ATOM     28  C   UNL     1       2.497   4.042  18.441  0.00  0.00    +0.000 A 
BRANCH  27  29
ATOM     29  C   UNL     1       3.543   1.790  18.840  0.00  0.00    +0.000 C 
ATOM     30  F   UNL     1       3.953   1.866  17.543  0.00  0.00    +0.000 F 
ATOM     31  F   UNL     1       4.642   1.431  19.560  0.00  0.00    +0.000 F 
ATOM     32  F   UNL     1       2.697   0.723  18.901  0.00  0.00    +0.000 F 
ENDBRANCH  27  29
ENDBRANCH  22  23
ENDBRANCH  19  22
ENDBRANCH  18  19
ENDBRANCH  17  18
ENDBRANCH   6  17
TORSDOF 15
ENDMDL
MODEL 7
REMARK VINA RESULT:      -7.2      1.391      1.758
REMARK  Name = 
REMARK  15 active torsions:
REMARK  status: ('A' for Active; 'I' for Inactive)
REMARK    1  A    between atoms: C_2  and  O_3
REMARK    2  A    between atoms: C_2  and  C_4
REMARK    3  A    between atoms: C_4  and  C_5
REMARK    4  A    between atoms: C_5  and  C_6
REMARK    5  A    between atoms: C_6  and  C_7
REMARK    6  A    between atoms: C_7  and  C_8
REMARK    7  A    between atoms: C_8  and  C_9
REMARK    8  A    between atoms: C_9  and  N_10
REMARK    9  A    between atoms: C_15  and  C_16
REMARK   10  A    between atoms: C_16  and  C_17
REMARK   11  A    between atoms: C_17  and  C_18
REMARK   12  A    between atoms: C_18  and  O_19
REMARK   13  A    between atoms: C_18  and  C_20
REMARK   14  A    between atoms: C_20  and  C_21
REMARK   15  A    between atoms: C_25  and  C_26
REMARK                            x       y       z     vdW  Elec       q    Type
REMARK                         _______ _______ _______ _____ _____    ______ ____
ROOT
ATOM      1  N   UNL     1       2.180   3.623  18.915  0.00  0.00    +0.000 N 
ATOM      2  C   UNL     1       1.093   2.832  19.265  0.00  0.00    +0.000 C 
ATOM      3  O   UNL     1       0.417   2.137  18.521  0.00  0.00    +0.000 OA
ATOM      4  C   UNL     1       0.855   2.999  20.742  0.00  0.00    +0.000 C 
ATOM      5  C   UNL     1       2.175   3.588  21.228  0.00  0.00    +0.000 C 
ATOM      6  C   UNL     1       2.672   4.412  20.037  0.00  0.00    +0.000 C 
ENDROOT
BRANCH   1   7
ATOM      7  C   UNL     1       2.682   3.728  17.550  0.00  0.00    +0.000 C 
BRANCH   7   8
ATOM      8  C   UNL     1       4.208   3.686  17.493  0.00  0.00    +0.000 C 
BRANCH   8   9
ATOM      9  C   UNL     1       4.733   3.710  16.056  0.00  0.00    +0.000 C 
BRANCH   9  10
ATOM     10  C   UNL     1       5.213   5.116  15.687  0.00  0.00    +0.000 C 
BRANCH  10  11
ATOM     11  C   UNL     1       6.738   5.214  15.696  0.00  0.00    +0.000 C 
BRANCH  11  12
ATOM     12  C   UNL     1       7.231   6.085  16.852  0.00  0.00    +0.000 C 
BRANCH  12  14
ATOM     13  O   UNL     1       8.049   4.367  18.366  0.00  0.00    +0.000 OA
ATOM     14  C   UNL     1       7.307   5.314  18.152  0.00  0.00    +0.000 C 
BRANCH  14  15
ATOM     15  O   UNL     1       6.448   5.778  19.082  0.00  0.00    +0.000 OA
ATOM     16  H   UNL     1       5.639   5.246  19.190  0.00  0.00    +0.000 HD
ENDBRANCH  14  15
ENDBRANCH  12  14
ENDBRANCH  11  12
ENDBRANCH  10  11
ENDBRANCH   9  10
ENDBRANCH   8   9
ENDBRANCH   7   8
ENDBRANCH   1   7
BRANCH   6  17
ATOM     17  C   UNL     1       2.111   5.845  20.035  0.00  0.00    +0.000 C 
BRANCH  17  18
ATOM     18  C   UNL     1       2.010   6.442  18.621  0.00  0.00    +0.000 C 
BRANCH  18  19
ATOM     19  C   UNL     1       2.896   7.679  18.437  0.00  0.00    +0.000 C 
BRANCH  19  20
ATOM     20  O   UNL     1       4.094   7.266  17.776  0.00  0.00    +0.000 OA
ATOM     21  H   UNL     1       3.961   7.351  16.817  0.00  0.00    +0.000 HD
ENDBRANCH  19  20
BRANCH  19  22
ATOM     22  C   UNL     1       2.153   8.748  17.611  0.00  0.00    +0.000 C 
BRANCH  22  23
ATOM     23  C   UNL     1       1.071   9.445  18.399  0.00  0.00    +0.000 A 
ATOM     24  C   UNL     1       1.259   9.742  19.755  0.00  0.00    +0.000 A 
ATOM     25  C   UNL     1       0.233  10.319  20.503  0.00  0.00    +0.000 A 
ATOM     26  C   UNL     1      -0.996  10.596  19.907  0.00  0.00    +0.000 A 
ATOM     27  C   UNL     1      -1.205  10.314  18.550  0.00  0.00    +0.000 A 
ATOM     28  C   UNL     1      -0.157   9.755  17.800  0.00  0.00    +0.000 A 
BRANCH  27  29
ATOM     29  C   UNL     1      -2.537  10.565  17.889  0.00  0.00    +0.000 C 
ATOM     30  F   UNL     1      -2.446  11.218  16.697  0.00  0.00    +0.000 F 
ATOM     31  F   UNL     1      -3.218   9.413  17.634  0.00  0.00    +0.000 F 
ATOM     32  F   UNL     1      -3.365  11.320  18.665  0.00  0.00    +0.000 F 
ENDBRANCH  27  29
ENDBRANCH  22  23
ENDBRANCH  19  22
ENDBRANCH  18  19
ENDBRANCH  17  18
ENDBRANCH   6  17
TORSDOF 15
ENDMDL
MODEL 8
REMARK VINA RESULT:      -7.2      1.467      1.838
REMARK  Name = 
REMARK  15 active torsions:
REMARK  status: ('A' for Active; 'I' for Inactive)
REMARK    1  A    between atoms: C_2  and  O_3
REMARK    2  A    between atoms: C_2  and  C_4
REMARK    3  A    between atoms: C_4  and  C_5
REMARK    4  A    between atoms: C_5  and  C_6
REMARK    5  A    between atoms: C_6  and  C_7
REMARK    6  A    between atoms: C_7  and  C_8
REMARK    7  A    between atoms: C_8  and  C_9
REMARK    8  A    between atoms: C_9  and  N_10
REMARK    9  A    between atoms: C_15  and  C_16
REMARK   10  A    between atoms: C_16  and  C_17
REMARK   11  A    between atoms: C_17  and  C_18
REMARK   12  A    between atoms: C_18  and  O_19
REMARK   13  A    between atoms: C_18  and  C_20
REMARK   14  A    between atoms: C_20  and  C_21
REMARK   15  A    between atoms: C_25  and  C_26
REMARK                            x       y       z     vdW  Elec       q    Type
REMARK                         _______ _______ _______ _____ _____    ______ ____
ROOT
ATOM      1  N   UNL     1       2.469   5.138  18.894  0.00  0.00    +0.000 N 
ATOM      2  C   UNL     1       1.552   4.094  18.915  0.00  0.00    +0.000 C 
ATOM      3  O   UNL     1       1.287   3.328  18.001  0.00  0.00    +0.000 OA
ATOM      4  C   UNL     1       0.899   4.079  20.272  0.00  0.00    +0.000 C 
ATOM      5  C   UNL     1       1.861   4.911  21.114  0.00  0.00    +0.000 C 
ATOM      6  C   UNL     1       2.441   5.922  20.122  0.00  0.00    +0.000 C 
ENDROOT
BRANCH   1   7
ATOM      7  C   UNL     1       3.274   5.468  17.724  0.00  0.00    +0.000 C 
BRANCH   7   8
ATOM      8  C   UNL     1       4.477   4.539  17.573  0.00  0.00    +0.000 C 
BRANCH   8   9
ATOM      9  C   UNL     1       4.773   4.211  16.107  0.00  0.00    +0.000 C 
BRANCH   9  10
ATOM     10  C   UNL     1       6.278   4.043  15.891  0.00  0.00    +0.000 C 
BRANCH  10  11
ATOM     11  C   UNL     1       7.075   5.174  16.541  0.00  0.00    +0.000 C 
BRANCH  11  12
ATOM     12  C   UNL     1       7.753   4.705  17.829  0.00  0.00    +0.000 C 
BRANCH  12  14
ATOM     13  O   UNL     1       8.217   6.896  18.775  0.00  0.00    +0.000 OA
ATOM     14  C   UNL     1       7.745   5.776  18.897  0.00  0.00    +0.000 C 
BRANCH  14  15
ATOM     15  O   UNL     1       7.156   5.366  20.039  0.00  0.00    +0.000 OA
ATOM     16  H   UNL     1       6.990   4.407  20.090  0.00  0.00    +0.000 HD
ENDBRANCH  14  15
ENDBRANCH  12  14
ENDBRANCH  11  12
ENDBRANCH  10  11
ENDBRANCH   9  10
ENDBRANCH   8   9
ENDBRANCH   7   8
ENDBRANCH   1   7
BRANCH   6  17
ATOM     17  C   UNL     1       1.572   7.185  19.990  0.00  0.00    +0.000 C 
BRANCH  17  18
ATOM     18  C   UNL     1       1.338   7.891  21.336  0.00  0.00    +0.000 C 
BRANCH  18  19
ATOM     19  C   UNL     1       0.027   8.684  21.368  0.00  0.00    +0.000 C 
BRANCH  19  20
ATOM     20  O   UNL     1      -0.722   8.249  22.505  0.00  0.00    +0.000 OA
ATOM     21  H   UNL     1      -1.328   8.962  22.764  0.00  0.00    +0.000 HD
ENDBRANCH  19  20
BRANCH  19  22
ATOM     22  C   UNL     1       0.320  10.195  21.448  0.00  0.00    +0.000 C 
BRANCH  22  23
ATOM     23  C   UNL     1      -0.186  10.952  20.244  0.00  0.00    +0.000 A 
ATOM     24  C   UNL     1      -0.032  12.342  20.163  0.00  0.00    +0.000 A 
ATOM     25  C   UNL     1      -0.563  13.053  19.087  0.00  0.00    +0.000 A 
ATOM     26  C   UNL     1      -1.263  12.382  18.084  0.00  0.00    +0.000 A 
ATOM     27  C   UNL     1      -1.423  10.991  18.140  0.00  0.00    +0.000 A 
ATOM     28  C   UNL     1      -0.863  10.283  19.217  0.00  0.00    +0.000 A 
BRANCH  27  29
ATOM     29  C   UNL     1      -2.210  10.245  17.092  0.00  0.00    +0.000 C 
ATOM     30  F   UNL     1      -2.538  11.002  16.008  0.00  0.00    +0.000 F 
ATOM     31  F   UNL     1      -1.537   9.165  16.605  0.00  0.00    +0.000 F 
ATOM     32  F   UNL     1      -3.387   9.759  17.578  0.00  0.00    +0.000 F 
ENDBRANCH  27  29
ENDBRANCH  22  23
ENDBRANCH  19  22
ENDBRANCH  18  19
ENDBRANCH  17  18
ENDBRANCH   6  17
TORSDOF 15
ENDMDL
MODEL 9
REMARK VINA RESULT:      -7.2      1.439      4.351
REMARK  Name = 
REMARK  15 active torsions:
REMARK  status: ('A' for Active; 'I' for Inactive)
REMARK    1  A    between atoms: C_2  and  O_3
REMARK    2  A    between atoms: C_2  and  C_4
REMARK    3  A    between atoms: C_4  and  C_5
REMARK    4  A    between atoms: C_5  and  C_6
REMARK    5  A    between atoms: C_6  and  C_7
REMARK    6  A    between atoms: C_7  and  C_8
REMARK    7  A    between atoms: C_8  and  C_9
REMARK    8  A    between atoms: C_9  and  N_10
REMARK    9  A    between atoms: C_15  and  C_16
REMARK   10  A    between atoms: C_16  and  C_17
REMARK   11  A    between atoms: C_17  and  C_18
REMARK   12  A    between atoms: C_18  and  O_19
REMARK   13  A    between atoms: C_18  and  C_20
REMARK   14  A    between atoms: C_20  and  C_21
REMARK   15  A    between atoms: C_25  and  C_26
REMARK                            x       y       z     vdW  Elec       q    Type
REMARK                         _______ _______ _______ _____ _____    ______ ____
ROOT
ATOM      1  N   UNL     1       5.150   4.836  17.738  0.00  0.00    +0.000 N 
ATOM      2  C   UNL     1       6.484   5.223  17.776  0.00  0.00    +0.000 C 
ATOM      3  O   UNL     1       7.419   4.599  18.253  0.00  0.00    +0.000 OA
ATOM      4  C   UNL     1       6.588   6.586  17.144  0.00  0.00    +0.000 C 
ATOM      5  C   UNL     1       5.280   6.694  16.368  0.00  0.00    +0.000 C 
ATOM      6  C   UNL     1       4.287   5.880  17.201  0.00  0.00    +0.000 C 
ENDROOT
BRANCH   1   7
ATOM      7  C   UNL     1       4.672   3.573  18.287  0.00  0.00    +0.000 C 
BRANCH   7   8
ATOM      8  C   UNL     1       4.625   3.590  19.814  0.00  0.00    +0.000 C 
BRANCH   8   9
ATOM      9  C   UNL     1       3.948   2.342  20.385  0.00  0.00    +0.000 C 
BRANCH   9  10
ATOM     10  C   UNL     1       2.750   2.734  21.252  0.00  0.00    +0.000 C 
BRANCH  10  11
ATOM     11  C   UNL     1       2.086   4.018  20.756  0.00  0.00    +0.000 C 
BRANCH  11  12
ATOM     12  C   UNL     1       0.776   3.718  20.025  0.00  0.00    +0.000 C 
BRANCH  12  14
ATOM     13  O   UNL     1       1.246   3.923  17.649  0.00  0.00    +0.000 OA
ATOM     14  C   UNL     1       1.012   3.217  18.618  0.00  0.00    +0.000 C 
BRANCH  14  15
ATOM     15  O   UNL     1       0.932   1.874  18.525  0.00  0.00    +0.000 OA
ATOM     16  H   UNL     1       0.977   1.525  17.616  0.00  0.00    +0.000 HD
ENDBRANCH  14  15
ENDBRANCH  12  14
ENDBRANCH  11  12
ENDBRANCH  10  11
ENDBRANCH   9  10
ENDBRANCH   8   9
ENDBRANCH   7   8
ENDBRANCH   1   7
BRANCH   6  17
ATOM     17  C   UNL     1       3.620   6.715  18.309  0.00  0.00    +0.000 C 
BRANCH  17  18
ATOM     18  C   UNL     1       2.815   7.903  17.755  0.00  0.00    +0.000 C 
BRANCH  18  19
ATOM     19  C   UNL     1       1.692   8.347  18.699  0.00  0.00    +0.000 C 
BRANCH  19  20
ATOM     20  O   UNL     1       1.801   7.582  19.901  0.00  0.00    +0.000 OA
ATOM     21  H   UNL     1       1.066   7.826  20.488  0.00  0.00    +0.000 HD
ENDBRANCH  19  20
BRANCH  19  22
ATOM     22  C   UNL     1       1.810   9.855  18.996  0.00  0.00    +0.000 C 
BRANCH  22  23
ATOM     23  C   UNL     1       0.578  10.628  18.590  0.00  0.00    +0.000 A 
ATOM     24  C   UNL     1       0.475  11.997  18.868  0.00  0.00    +0.000 A 
ATOM     25  C   UNL     1      -0.691  12.697  18.561  0.00  0.00    +0.000 A 
ATOM     26  C   UNL     1      -1.772  12.033  17.983  0.00  0.00    +0.000 A 
ATOM     27  C   UNL     1      -1.690  10.665  17.690  0.00  0.00    +0.000 A 
ATOM     28  C   UNL     1      -0.501   9.975  17.981  0.00  0.00    +0.000 A 
BRANCH  27  29
ATOM     29  C   UNL     1      -2.857   9.913  17.102  0.00  0.00    +0.000 C 
ATOM     30  F   UNL     1      -3.905  10.709  16.750  0.00  0.00    +0.000 F 
ATOM     31  F   UNL     1      -2.520   9.219  15.980  0.00  0.00    +0.000 F 
ATOM     32  F   UNL     1      -3.366   8.990  17.968  0.00  0.00    +0.000 F 
ENDBRANCH  27  29
ENDBRANCH  22  23
ENDBRANCH  19  22
ENDBRANCH  18  19
ENDBRANCH  17  18
ENDBRANCH   6  17
TORSDOF 15
ENDMDL
