MODEL 1
REMARK VINA RESULT:      -7.9      0.000      0.000
REMARK  Name = 
REMARK  4 active torsions:
REMARK  status: ('A' for Active; 'I' for Inactive)
REMARK    1  A    between atoms: C_2  and  C_3
REMARK    2  A    between atoms: C_16  and  C_17
REMARK    3  A    between atoms: C_17  and  O_18
REMARK    4  A    between atoms: O_18  and  C_19
REMARK                            x       y       z     vdW  Elec       q    Type
REMARK                         _______ _______ _______ _____ _____    ______ ____
ROOT
ATOM      1  O   UNL     1       0.854   9.975  18.578  0.00  0.00    +0.000 OA
ATOM      2  C   UNL     1       1.085   9.166  19.476  0.00  0.00    +0.000 C 
ATOM      3  N   UNL     1       1.841   8.010  19.203  0.00  0.00    +0.000 N 
ATOM      4  C   UNL     1       2.432   7.840  17.877  0.00  0.00    +0.000 C 
ATOM      5  C   UNL     1       3.835   7.229  17.986  0.00  0.00    +0.000 C 
ATOM      6  C   UNL     1       3.779   5.849  18.679  0.00  0.00    +0.000 C 
ATOM      7  C   UNL     1       3.081   6.066  20.048  0.00  0.00    +0.000 C 
ATOM      8  C   UNL     1       1.724   6.760  19.942  0.00  0.00    +0.000 C 
ATOM      9  C   UNL     1       5.169   5.230  18.908  0.00  0.00    +0.000 C 
ATOM     10  O   UNL     1       5.250   4.006  18.164  0.00  0.00    +0.000 OA
ATOM     11  C   UNL     1       4.234   4.015  17.151  0.00  0.00    +0.000 C 
ATOM     12  C   UNL     1       3.094   4.807  17.783  0.00  0.00    +0.000 C 
ENDROOT
BRANCH   2  13
ATOM     13  C   UNL     1       0.621   9.447  20.834  0.00  0.00    +0.000 A 
ATOM     14  C   UNL     1      -0.066   8.656  21.805  0.00  0.00    +0.000 A 
ATOM     15  C   UNL     1      -0.201   9.429  22.934  0.00  0.00    +0.000 A 
ATOM     16  O   UNL     1       0.391  10.632  22.755  0.00  0.00    +0.000 OA
ATOM     17  C   UNL     1       0.906  10.628  21.501  0.00  0.00    +0.000 A 
ENDBRANCH   2  13
BRANCH  11  18
ATOM     18  C   UNL     1       4.791   4.613  15.845  0.00  0.00    +0.000 C 
BRANCH  18  19
ATOM     19  O   UNL     1       6.198   4.335  15.754  0.00  0.00    +0.000 OA
BRANCH  19  20
ATOM     20  C   UNL     1       6.677   4.426  14.460  0.00  0.00    +0.000 A 
ATOM     21  C   UNL     1       6.083   3.601  13.516  0.00  0.00    +0.000 A 
ATOM     22  C   UNL     1       6.514   3.690  12.194  0.00  0.00    +0.000 A 
ATOM     23  C   UNL     1       7.518   4.592  11.864  0.00  0.00    +0.000 A 
ATOM     24  C   UNL     1       8.055   5.370  12.878  0.00  0.00    +0.000 A 
ATOM     25  N   UNL     1       7.656   5.311  14.167  0.00  0.00    +0.000 NA
ENDBRANCH  19  20
ENDBRANCH  18  19
ENDBRANCH  11  18
TORSDOF 4
ENDMDL
MODEL 2
REMARK VINA RESULT:      -7.7      2.311      2.715
REMARK  Name = 
REMARK  4 active torsions:
REMARK  status: ('A' for Active; 'I' for Inactive)
REMARK    1  A    between atoms: C_2  and  C_3
REMARK    2  A    between atoms: C_16  and  C_17
REMARK    3  A    between atoms: C_17  and  O_18
REMARK    4  A    between atoms: O_18  and  C_19
REMARK                            x       y       z     vdW  Elec       q    Type
REMARK                         _______ _______ _______ _____ _____    ______ ____
ROOT
ATOM      1  O   UNL     1       1.499  10.106  19.467  0.00  0.00    +0.000 OA
ATOM      2  C   UNL     1       1.251   9.188  20.249  0.00  0.00    +0.000 C 
ATOM      3  N   UNL     1       1.633   7.871  19.930  0.00  0.00    +0.000 N 
ATOM      4  C   UNL     1       2.415   7.628  18.719  0.00  0.00    +0.000 C 
ATOM      5  C   UNL     1       3.484   6.558  18.973  0.00  0.00    +0.000 C 
ATOM      6  C   UNL     1       2.834   5.227  19.413  0.00  0.00    +0.000 C 
ATOM      7  C   UNL     1       1.959   5.547  20.654  0.00  0.00    +0.000 C 
ATOM      8  C   UNL     1       0.958   6.679  20.425  0.00  0.00    +0.000 C 
ATOM      9  C   UNL     1       3.862   4.143  19.780  0.00  0.00    +0.000 C 
ATOM     10  O   UNL     1       3.704   3.041  18.873  0.00  0.00    +0.000 OA
ATOM     11  C   UNL     1       2.996   3.498  17.713  0.00  0.00    +0.000 C 
ATOM     12  C   UNL     1       2.064   4.577  18.254  0.00  0.00    +0.000 C 
ENDROOT
BRANCH   2  13
ATOM     13  C   UNL     1       0.615   9.488  21.532  0.00  0.00    +0.000 A 
ATOM     14  C   UNL     1      -0.725   9.827  21.892  0.00  0.00    +0.000 A 
ATOM     15  C   UNL     1      -0.755   9.952  23.261  0.00  0.00    +0.000 A 
ATOM     16  O   UNL     1       0.459   9.673  23.787  0.00  0.00    +0.000 OA
ATOM     17  C   UNL     1       1.273   9.370  22.746  0.00  0.00    +0.000 A 
ENDBRANCH   2  13
BRANCH  11  18
ATOM     18  C   UNL     1       3.990   3.980  16.639  0.00  0.00    +0.000 C 
BRANCH  18  19
ATOM     19  O   UNL     1       5.321   3.581  17.007  0.00  0.00    +0.000 OA
BRANCH  19  20
ATOM     20  C   UNL     1       6.126   4.654  17.345  0.00  0.00    +0.000 A 
ATOM     21  C   UNL     1       5.966   5.812  16.598  0.00  0.00    +0.000 A 
ATOM     22  C   UNL     1       6.733   6.926  16.933  0.00  0.00    +0.000 A 
ATOM     23  C   UNL     1       7.628   6.844  17.993  0.00  0.00    +0.000 A 
ATOM     24  C   UNL     1       7.721   5.642  18.676  0.00  0.00    +0.000 A 
ATOM     25  N   UNL     1       6.989   4.545  18.380  0.00  0.00    +0.000 NA
ENDBRANCH  19  20
ENDBRANCH  18  19
ENDBRANCH  11  18
TORSDOF 4
ENDMDL
MODEL 3
REMARK VINA RESULT:      -7.6      2.172      8.239
REMARK  Name = 
REMARK  4 active torsions:
REMARK  status: ('A' for Active; 'I' for Inactive)
REMARK    1  A    between atoms: C_2  and  C_3
REMARK    2  A    between atoms: C_16  and  C_17
REMARK    3  A    between atoms: C_17  and  O_18
REMARK    4  A    between atoms: O_18  and  C_19
REMARK                            x       y       z     vdW  Elec       q    Type
REMARK                         _______ _______ _______ _____ _____    ______ ____
ROOT
ATOM      1  O   UNL     1       5.443   6.890  15.251  0.00  0.00    +0.000 OA
ATOM      2  C   UNL     1       5.298   5.671  15.335  0.00  0.00    +0.000 C 
ATOM      3  N   UNL     1       4.550   5.123  16.395  0.00  0.00    +0.000 N 
ATOM      4  C   UNL     1       3.866   6.021  17.324  0.00  0.00    +0.000 C 
ATOM      5  C   UNL     1       2.489   5.460  17.702  0.00  0.00    +0.000 C 
ATOM      6  C   UNL     1       2.628   4.073  18.371  0.00  0.00    +0.000 C 
ATOM      7  C   UNL     1       3.420   3.179  17.382  0.00  0.00    +0.000 C 
ATOM      8  C   UNL     1       4.750   3.785  16.934  0.00  0.00    +0.000 C 
ATOM      9  C   UNL     1       1.273   3.414  18.682  0.00  0.00    +0.000 C 
ATOM     10  O   UNL     1       1.166   3.245  20.103  0.00  0.00    +0.000 OA
ATOM     11  C   UNL     1       2.103   4.121  20.743  0.00  0.00    +0.000 C 
ATOM     12  C   UNL     1       3.268   4.191  19.762  0.00  0.00    +0.000 C 
ENDROOT
BRANCH   2  13
ATOM     13  C   UNL     1       5.854   4.806  14.294  0.00  0.00    +0.000 A 
ATOM     14  C   UNL     1       5.269   3.823  13.438  0.00  0.00    +0.000 A 
ATOM     15  C   UNL     1       6.269   3.357  12.616  0.00  0.00    +0.000 A 
ATOM     16  O   UNL     1       7.427   4.009  12.867  0.00  0.00    +0.000 OA
ATOM     17  C   UNL     1       7.166   4.897  13.858  0.00  0.00    +0.000 A 
ENDBRANCH   2  13
BRANCH  11  18
ATOM     18  C   UNL     1       1.438   5.476  21.054  0.00  0.00    +0.000 C 
BRANCH  18  19
ATOM     19  O   UNL     1       2.324   6.542  20.675  0.00  0.00    +0.000 OA
BRANCH  19  20
ATOM     20  C   UNL     1       1.659   7.732  20.446  0.00  0.00    +0.000 A 
ATOM     21  C   UNL     1       0.866   8.212  21.478  0.00  0.00    +0.000 A 
ATOM     22  C   UNL     1       0.209   9.427  21.298  0.00  0.00    +0.000 A 
ATOM     23  C   UNL     1       0.364  10.115  20.100  0.00  0.00    +0.000 A 
ATOM     24  C   UNL     1       1.172   9.552  19.125  0.00  0.00    +0.000 A 
ATOM     25  N   UNL     1       1.827   8.379  19.270  0.00  0.00    +0.000 NA
ENDBRANCH  19  20
ENDBRANCH  18  19
ENDBRANCH  11  18
TORSDOF 4
ENDMDL
MODEL 4
REMARK VINA RESULT:      -7.5      0.843      1.135
REMARK  Name = 
REMARK  4 active torsions:
REMARK  status: ('A' for Active; 'I' for Inactive)
REMARK    1  A    between atoms: C_2  and  C_3
REMARK    2  A    between atoms: C_16  and  C_17
REMARK    3  A    between atoms: C_17  and  O_18
REMARK    4  A    between atoms: O_18  and  C_19
REMARK                            x       y       z     vdW  Elec       q    Type
REMARK                         _______ _______ _______ _____ _____    ______ ____
ROOT
ATOM      1  O   UNL     1       1.170  10.033  18.897  0.00  0.00    +0.000 OA
ATOM      2  C   UNL     1       1.286   9.160  19.755  0.00  0.00    +0.000 C 
ATOM      3  N   UNL     1       1.931   7.947  19.443  0.00  0.00    +0.000 N 
ATOM      4  C   UNL     1       2.549   7.786  18.128  0.00  0.00    +0.000 C 
ATOM      5  C   UNL     1       3.879   7.030  18.247  0.00  0.00    +0.000 C 
ATOM      6  C   UNL     1       3.660   5.629  18.861  0.00  0.00    +0.000 C 
ATOM      7  C   UNL     1       2.938   5.846  20.218  0.00  0.00    +0.000 C 
ATOM      8  C   UNL     1       1.662   6.680  20.109  0.00  0.00    +0.000 C 
ATOM      9  C   UNL     1       4.971   4.860  19.098  0.00  0.00    +0.000 C 
ATOM     10  O   UNL     1       4.954   3.674  18.291  0.00  0.00    +0.000 OA
ATOM     11  C   UNL     1       3.981   3.838  17.250  0.00  0.00    +0.000 C 
ATOM     12  C   UNL     1       2.905   4.710  17.889  0.00  0.00    +0.000 C 
ENDROOT
BRANCH   2  13
ATOM     13  C   UNL     1       0.805   9.417  21.113  0.00  0.00    +0.000 A 
ATOM     14  C   UNL     1      -0.489   9.711  21.641  0.00  0.00    +0.000 A 
ATOM     15  C   UNL     1      -0.355   9.810  23.006  0.00  0.00    +0.000 A 
ATOM     16  O   UNL     1       0.922   9.556  23.374  0.00  0.00    +0.000 OA
ATOM     17  C   UNL     1       1.609   9.295  22.235  0.00  0.00    +0.000 A 
ENDBRANCH   2  13
BRANCH  11  18
ATOM     18  C   UNL     1       4.642   4.442  15.996  0.00  0.00    +0.000 C 
BRANCH  18  19
ATOM     19  O   UNL     1       5.841   3.713  15.689  0.00  0.00    +0.000 OA
BRANCH  19  20
ATOM     20  C   UNL     1       6.304   3.960  14.409  0.00  0.00    +0.000 A 
ATOM     21  C   UNL     1       7.271   4.945  14.276  0.00  0.00    +0.000 A 
ATOM     22  C   UNL     1       7.788   5.198  13.007  0.00  0.00    +0.000 A 
ATOM     23  C   UNL     1       7.322   4.463  11.923  0.00  0.00    +0.000 A 
ATOM     24  C   UNL     1       6.350   3.503  12.155  0.00  0.00    +0.000 A 
ATOM     25  N   UNL     1       5.831   3.231  13.373  0.00  0.00    +0.000 NA
ENDBRANCH  19  20
ENDBRANCH  18  19
ENDBRANCH  11  18
TORSDOF 4
ENDMDL
MODEL 5
REMARK VINA RESULT:      -7.4      1.381      1.592
REMARK  Name = 
REMARK  4 active torsions:
REMARK  status: ('A' for Active; 'I' for Inactive)
REMARK    1  A    between atoms: C_2  and  C_3
REMARK    2  A    between atoms: C_16  and  C_17
REMARK    3  A    between atoms: C_17  and  O_18
REMARK    4  A    between atoms: O_18  and  C_19
REMARK                            x       y       z     vdW  Elec       q    Type
REMARK                         _______ _______ _______ _____ _____    ______ ____
ROOT
ATOM      1  O   UNL     1       2.589  10.209  17.394  0.00  0.00    +0.000 OA
ATOM      2  C   UNL     1       2.026   9.365  18.090  0.00  0.00    +0.000 C 
ATOM      3  N   UNL     1       2.505   8.041  18.116  0.00  0.00    +0.000 N 
ATOM      4  C   UNL     1       3.734   7.713  17.395  0.00  0.00    +0.000 C 
ATOM      5  C   UNL     1       4.586   6.725  18.202  0.00  0.00    +0.000 C 
ATOM      6  C   UNL     1       3.806   5.417  18.464  0.00  0.00    +0.000 C 
ATOM      7  C   UNL     1       2.482   5.820  19.164  0.00  0.00    +0.000 C 
ATOM      8  C   UNL     1       1.681   6.876  18.402  0.00  0.00    +0.000 C 
ATOM      9  C   UNL     1       4.572   4.424  19.356  0.00  0.00    +0.000 C 
ATOM     10  O   UNL     1       4.820   3.231  18.599  0.00  0.00    +0.000 OA
ATOM     11  C   UNL     1       4.685   3.534  17.204  0.00  0.00    +0.000 C 
ATOM     12  C   UNL     1       3.612   4.618  17.167  0.00  0.00    +0.000 C 
ENDROOT
BRANCH   2  13
ATOM     13  C   UNL     1       0.898   9.763  18.933  0.00  0.00    +0.000 A 
ATOM     14  C   UNL     1       0.784  10.036  20.331  0.00  0.00    +0.000 A 
ATOM     15  C   UNL     1      -0.517  10.416  20.563  0.00  0.00    +0.000 A 
ATOM     16  O   UNL     1      -1.214  10.442  19.404  0.00  0.00    +0.000 OA
ATOM     17  C   UNL     1      -0.352  10.074  18.424  0.00  0.00    +0.000 A 
ENDBRANCH   2  13
BRANCH  11  18
ATOM     18  C   UNL     1       6.046   3.951  16.616  0.00  0.00    +0.000 C 
BRANCH  18  19
ATOM     19  O   UNL     1       5.855   5.032  15.689  0.00  0.00    +0.000 OA
BRANCH  19  20
ATOM     20  C   UNL     1       6.395   4.768  14.443  0.00  0.00    +0.000 A 
ATOM     21  C   UNL     1       5.752   3.806  13.677  0.00  0.00    +0.000 A 
ATOM     22  C   UNL     1       6.244   3.539  12.401  0.00  0.00    +0.000 A 
ATOM     23  C   UNL     1       7.355   4.236  11.939  0.00  0.00    +0.000 A 
ATOM     24  C   UNL     1       7.932   5.174  12.780  0.00  0.00    +0.000 A 
ATOM     25  N   UNL     1       7.477   5.460  14.020  0.00  0.00    +0.000 NA
ENDBRANCH  19  20
ENDBRANCH  18  19
ENDBRANCH  11  18
TORSDOF 4
ENDMDL
MODEL 6
REMARK VINA RESULT:      -7.3      1.741      2.316
REMARK  Name = 
REMARK  4 active torsions:
REMARK  status: ('A' for Active; 'I' for Inactive)
REMARK    1  A    between atoms: C_2  and  C_3
REMARK    2  A    between atoms: C_16  and  C_17
REMARK    3  A    between atoms: C_17  and  O_18
REMARK    4  A    between atoms: O_18  and  C_19
REMARK                            x       y       z     vdW  Elec       q    Type
REMARK                         _______ _______ _______ _____ _____    ______ ____
ROOT
ATOM      1  O   UNL     1       1.997   9.053  19.315  0.00  0.00    +0.000 OA
ATOM      2  C   UNL     1       1.619   8.261  20.178  0.00  0.00    +0.000 C 
ATOM      3  N   UNL     1       1.927   6.891  20.058  0.00  0.00    +0.000 N 
ATOM      4  C   UNL     1       2.785   6.446  18.961  0.00  0.00    +0.000 C 
ATOM      5  C   UNL     1       3.748   5.352  19.439  0.00  0.00    +0.000 C 
ATOM      6  C   UNL     1       2.966   4.132  19.978  0.00  0.00    +0.000 C 
ATOM      7  C   UNL     1       2.020   4.663  21.087  0.00  0.00    +0.000 C 
ATOM      8  C   UNL     1       1.128   5.818  20.632  0.00  0.00    +0.000 C 
ATOM      9  C   UNL     1       3.878   3.041  20.565  0.00  0.00    +0.000 C 
ATOM     10  O   UNL     1       3.713   1.845  19.790  0.00  0.00    +0.000 OA
ATOM     11  C   UNL     1       3.138   2.193  18.524  0.00  0.00    +0.000 C 
ATOM     12  C   UNL     1       2.247   3.389  18.843  0.00  0.00    +0.000 C 
ENDROOT
BRANCH   2  13
ATOM     13  C   UNL     1       0.906   8.761  21.352  0.00  0.00    +0.000 A 
ATOM     14  C   UNL     1      -0.483   8.843  21.679  0.00  0.00    +0.000 A 
ATOM     15  C   UNL     1      -0.569   9.363  22.949  0.00  0.00    +0.000 A 
ATOM     16  O   UNL     1       0.667   9.572  23.458  0.00  0.00    +0.000 OA
ATOM     17  C   UNL     1       1.549   9.185  22.504  0.00  0.00    +0.000 A 
ENDBRANCH   2  13
BRANCH  11  18
ATOM     18  C   UNL     1       4.249   2.470  17.493  0.00  0.00    +0.000 C 
BRANCH  18  19
ATOM     19  O   UNL     1       3.942   3.675  16.772  0.00  0.00    +0.000 OA
BRANCH  19  20
ATOM     20  C   UNL     1       5.013   4.143  16.033  0.00  0.00    +0.000 A 
ATOM     21  C   UNL     1       5.966   4.882  16.719  0.00  0.00    +0.000 A 
ATOM     22  C   UNL     1       7.079   5.339  16.017  0.00  0.00    +0.000 A 
ATOM     23  C   UNL     1       7.199   5.046  14.663  0.00  0.00    +0.000 A 
ATOM     24  C   UNL     1       6.192   4.307  14.065  0.00  0.00    +0.000 A 
ATOM     25  N   UNL     1       5.103   3.844  14.717  0.00  0.00    +0.000 NA
ENDBRANCH  19  20
ENDBRANCH  18  19
ENDBRANCH  11  18
TORSDOF 4
ENDMDL
MODEL 7
REMARK VINA RESULT:      -7.1      4.284      4.860
REMARK  Name = 
REMARK  4 active torsions:
REMARK  status: ('A' for Active; 'I' for Inactive)
REMARK    1  A    between atoms: C_2  and  C_3
REMARK    2  A    between atoms: C_16  and  C_17
REMARK    3  A    between atoms: C_17  and  O_18
REMARK    4  A    between atoms: O_18  and  C_19
REMARK                            x       y       z     vdW  Elec       q    Type
REMARK                         _______ _______ _______ _____ _____    ______ ____
ROOT
ATOM      1  O   UNL     1       1.389   2.745  17.832  0.00  0.00    +0.000 OA
ATOM      2  C   UNL     1       2.310   3.055  18.585  0.00  0.00    +0.000 C 
ATOM      3  N   UNL     1       3.504   3.582  18.056  0.00  0.00    +0.000 N 
ATOM      4  C   UNL     1       3.590   3.853  16.622  0.00  0.00    +0.000 C 
ATOM      5  C   UNL     1       4.356   5.157  16.365  0.00  0.00    +0.000 C 
ATOM      6  C   UNL     1       5.789   5.074  16.936  0.00  0.00    +0.000 C 
ATOM      7  C   UNL     1       5.650   4.714  18.439  0.00  0.00    +0.000 C 
ATOM      8  C   UNL     1       4.807   3.465  18.696  0.00  0.00    +0.000 C 
ATOM      9  C   UNL     1       6.574   6.389  16.797  0.00  0.00    +0.000 C 
ATOM     10  O   UNL     1       7.711   6.154  15.954  0.00  0.00    +0.000 OA
ATOM     11  C   UNL     1       7.485   4.957  15.198  0.00  0.00    +0.000 C 
ATOM     12  C   UNL     1       6.649   4.087  16.132  0.00  0.00    +0.000 C 
ENDROOT
BRANCH   2  13
ATOM     13  C   UNL     1       2.131   2.929  20.032  0.00  0.00    +0.000 A 
ATOM     14  C   UNL     1       0.993   3.077  20.882  0.00  0.00    +0.000 A 
ATOM     15  C   UNL     1       1.406   2.791  22.162  0.00  0.00    +0.000 A 
ATOM     16  O   UNL     1       2.710   2.433  22.168  0.00  0.00    +0.000 OA
ATOM     17  C   UNL     1       3.134   2.492  20.882  0.00  0.00    +0.000 A 
ENDBRANCH   2  13
BRANCH  11  18
ATOM     18  C   UNL     1       6.811   5.296  13.855  0.00  0.00    +0.000 C 
BRANCH  18  19
ATOM     19  O   UNL     1       7.561   4.706  12.781  0.00  0.00    +0.000 OA
BRANCH  19  20
ATOM     20  C   UNL     1       6.900   3.646  12.187  0.00  0.00    +0.000 A 
ATOM     21  C   UNL     1       7.688   2.699  11.549  0.00  0.00    +0.000 A 
ATOM     22  C   UNL     1       7.060   1.598  10.970  0.00  0.00    +0.000 A 
ATOM     23  C   UNL     1       5.677   1.484  11.047  0.00  0.00    +0.000 A 
ATOM     24  C   UNL     1       4.975   2.484  11.700  0.00  0.00    +0.000 A 
ATOM     25  N   UNL     1       5.553   3.561  12.275  0.00  0.00    +0.000 NA
ENDBRANCH  19  20
ENDBRANCH  18  19
ENDBRANCH  11  18
TORSDOF 4
ENDMDL
MODEL 8
REMARK VINA RESULT:      -7.0      1.810      2.328
REMARK  Name = 
REMARK  4 active torsions:
REMARK  status: ('A' for Active; 'I' for Inactive)
REMARK    1  A    between atoms: C_2  and  C_3
REMARK    2  A    between atoms: C_16  and  C_17
REMARK    3  A    between atoms: C_17  and  O_18
REMARK    4  A    between atoms: O_18  and  C_19
REMARK                            x       y       z     vdW  Elec       q    Type
REMARK                         _______ _______ _______ _____ _____    ______ ____
ROOT
ATOM      1  O   UNL     1       2.167   9.155  19.058  0.00  0.00    +0.000 OA
ATOM      2  C   UNL     1       1.655   8.426  19.907  0.00  0.00    +0.000 C 
ATOM      3  N   UNL     1       1.866   7.034  19.859  0.00  0.00    +0.000 N 
ATOM      4  C   UNL     1       2.779   6.486  18.857  0.00  0.00    +0.000 C 
ATOM      5  C   UNL     1       3.610   5.342  19.455  0.00  0.00    +0.000 C 
ATOM      6  C   UNL     1       2.693   4.205  19.959  0.00  0.00    +0.000 C 
ATOM      7  C   UNL     1       1.697   4.846  20.961  0.00  0.00    +0.000 C 
ATOM      8  C   UNL     1       0.940   6.045  20.392  0.00  0.00    +0.000 C 
ATOM      9  C   UNL     1       3.463   3.072  20.660  0.00  0.00    +0.000 C 
ATOM     10  O   UNL     1       3.275   1.863  19.911  0.00  0.00    +0.000 OA
ATOM     11  C   UNL     1       2.841   2.204  18.587  0.00  0.00    +0.000 C 
ATOM     12  C   UNL     1       2.020   3.474  18.787  0.00  0.00    +0.000 C 
ENDROOT
BRANCH   2  13
ATOM     13  C   UNL     1       0.883   9.022  20.996  0.00  0.00    +0.000 A 
ATOM     14  C   UNL     1       1.083   9.074  22.410  0.00  0.00    +0.000 A 
ATOM     15  C   UNL     1       0.052   9.816  22.937  0.00  0.00    +0.000 A 
ATOM     16  O   UNL     1      -0.755  10.268  21.951  0.00  0.00    +0.000 OA
ATOM     17  C   UNL     1      -0.238   9.811  20.785  0.00  0.00    +0.000 A 
ENDBRANCH   2  13
BRANCH  11  18
ATOM     18  C   UNL     1       4.055   2.359  17.652  0.00  0.00    +0.000 C 
BRANCH  18  19
ATOM     19  O   UNL     1       3.871   3.514  16.817  0.00  0.00    +0.000 OA
BRANCH  19  20
ATOM     20  C   UNL     1       5.061   4.000  16.308  0.00  0.00    +0.000 A 
ATOM     21  C   UNL     1       5.116   4.203  14.936  0.00  0.00    +0.000 A 
ATOM     22  C   UNL     1       6.286   4.727  14.391  0.00  0.00    +0.000 A 
ATOM     23  C   UNL     1       7.355   5.024  15.229  0.00  0.00    +0.000 A 
ATOM     24  C   UNL     1       7.208   4.780  16.585  0.00  0.00    +0.000 A 
ATOM     25  N   UNL     1       6.085   4.279  17.146  0.00  0.00    +0.000 NA
ENDBRANCH  19  20
ENDBRANCH  18  19
ENDBRANCH  11  18
TORSDOF 4
ENDMDL
MODEL 9
REMARK VINA RESULT:      -6.8      3.338      5.114
REMARK  Name = 
REMARK  4 active torsions:
REMARK  status: ('A' for Active; 'I' for Inactive)
REMARK    1  A    between atoms: C_2  and  C_3
REMARK    2  A    between atoms: C_16  and  C_17
REMARK    3  A    between atoms: C_17  and  O_18
REMARK    4  A    between atoms: O_18  and  C_19
REMARK                            x       y       z     vdW  Elec       q    Type
REMARK                         _______ _______ _______ _____ _____    ______ ____
ROOT
ATOM      1  O   UNL     1       0.401   9.802  21.224  0.00  0.00    +0.000 OA
ATOM      2  C   UNL     1       0.484   9.740  19.998  0.00  0.00    +0.000 C 
ATOM      3  N   UNL     1       1.374   8.828  19.398  0.00  0.00    +0.000 N 
ATOM      4  C   UNL     1       2.113   7.892  20.244  0.00  0.00    +0.000 C 
ATOM      5  C   UNL     1       2.203   6.515  19.573  0.00  0.00    +0.000 C 
ATOM      6  C   UNL     1       2.922   6.617  18.209  0.00  0.00    +0.000 C 
ATOM      7  C   UNL     1       2.148   7.672  17.375  0.00  0.00    +0.000 C 
ATOM      8  C   UNL     1       1.978   9.014  18.087  0.00  0.00    +0.000 C 
ATOM      9  C   UNL     1       2.955   5.284  17.441  0.00  0.00    +0.000 C 
ATOM     10  O   UNL     1       4.324   4.888  17.276  0.00  0.00    +0.000 OA
ATOM     11  C   UNL     1       5.126   5.594  18.232  0.00  0.00    +0.000 C 
ATOM     12  C   UNL     1       4.414   6.933  18.391  0.00  0.00    +0.000 C 
ENDROOT
BRANCH   2  13
ATOM     13  C   UNL     1      -0.392  10.573  19.174  0.00  0.00    +0.000 A 
ATOM     14  C   UNL     1      -1.575  10.289  18.426  0.00  0.00    +0.000 A 
ATOM     15  C   UNL     1      -2.004  11.477  17.882  0.00  0.00    +0.000 A 
ATOM     16  O   UNL     1      -1.198  12.492  18.272  0.00  0.00    +0.000 OA
ATOM     17  C   UNL     1      -0.247  11.947  19.069  0.00  0.00    +0.000 A 
ENDBRANCH   2  13
BRANCH  11  18
ATOM     18  C   UNL     1       5.253   4.771  19.529  0.00  0.00    +0.000 C 
BRANCH  18  19
ATOM     19  O   UNL     1       4.952   3.393  19.252  0.00  0.00    +0.000 OA
BRANCH  19  20
ATOM     20  C   UNL     1       3.687   3.028  19.677  0.00  0.00    +0.000 A 
ATOM     21  C   UNL     1       3.274   3.529  20.904  0.00  0.00    +0.000 A 
ATOM     22  C   UNL     1       1.992   3.213  21.349  0.00  0.00    +0.000 A 
ATOM     23  C   UNL     1       1.174   2.412  20.560  0.00  0.00    +0.000 A 
ATOM     24  C   UNL     1       1.679   1.954  19.353  0.00  0.00    +0.000 A 
ATOM     25  N   UNL     1       2.914   2.246  18.890  0.00  0.00    +0.000 NA
ENDBRANCH  19  20
ENDBRANCH  18  19
ENDBRANCH  11  18
TORSDOF 4
ENDMDL
