MODEL 1
REMARK VINA RESULT:      -8.2      0.000      0.000
REMARK  Name = 
REMARK  2 active torsions:
REMARK  status: ('A' for Active; 'I' for Inactive)
REMARK    1  A    between atoms: C_13  and  C_14
REMARK    2  A    between atoms: C_18  and  O_19
REMARK                            x       y       z     vdW  Elec       q    Type
REMARK                         _______ _______ _______ _____ _____    ______ ____
ROOT
ATOM      1  O   UNL     1       3.259   6.552  18.585  0.00  0.00    +0.000 OA
ATOM      2  C   UNL     1       3.391   5.338  18.486  0.00  0.00    +0.000 C 
ATOM      3  C   UNL     1       2.752   4.412  19.478  0.00  0.00    +0.000 A 
ATOM      4  C   UNL     1       2.002   4.962  20.526  0.00  0.00    +0.000 A 
ATOM      5  C   UNL     1       1.407   4.129  21.476  0.00  0.00    +0.000 A 
ATOM      6  C   UNL     1       1.557   2.743  21.387  0.00  0.00    +0.000 A 
ATOM      7  C   UNL     1       2.294   2.183  20.344  0.00  0.00    +0.000 A 
ATOM      8  C   UNL     1       2.890   3.011  19.386  0.00  0.00    +0.000 A 
ATOM      9  C   UNL     1       3.665   2.384  18.269  0.00  0.00    +0.000 C 
ATOM     10  O   UNL     1       3.781   1.175  18.163  0.00  0.00    +0.000 OA
ATOM     11  C   UNL     1       4.242   3.316  17.356  0.00  0.00    +0.000 A 
ATOM     12  N   UNL     1       4.984   3.063  16.243  0.00  0.00    +0.000 N 
ATOM     13  C   UNL     1       5.327   4.274  15.678  0.00  0.00    +0.000 A 
ATOM     14  N   UNL     1       4.838   5.267  16.403  0.00  0.00    +0.000 NA
ATOM     15  C   UNL     1       4.145   4.680  17.435  0.00  0.00    +0.000 A 
ATOM     16  H   UNL     1       5.227   2.147  15.893  0.00  0.00    +0.000 HD
ENDROOT
BRANCH  13  17
ATOM     17  C   UNL     1       6.096   4.405  14.439  0.00  0.00    +0.000 A 
ATOM     18  C   UNL     1       5.758   3.631  13.324  0.00  0.00    +0.000 A 
ATOM     19  C   UNL     1       6.525   3.750  12.175  0.00  0.00    +0.000 A 
ATOM     20  N   UNL     1       7.601   4.559  12.073  0.00  0.00    +0.000 NA
ATOM     21  C   UNL     1       7.892   5.277  13.163  0.00  0.00    +0.000 A 
ATOM     22  C   UNL     1       7.191   5.262  14.347  0.00  0.00    +0.000 A 
BRANCH  21  23
ATOM     23  O   UNL     1       9.014   6.028  13.053  0.00  0.00    +0.000 OA
ATOM     24  H   UNL     1       8.679   6.735  12.471  0.00  0.00    +0.000 HD
ENDBRANCH  21  23
ENDBRANCH  13  17
TORSDOF 2
ENDMDL
MODEL 2
REMARK VINA RESULT:      -8.2      1.427      1.437
REMARK  Name = 
REMARK  2 active torsions:
REMARK  status: ('A' for Active; 'I' for Inactive)
REMARK    1  A    between atoms: C_13  and  C_14
REMARK    2  A    between atoms: C_18  and  O_19
REMARK                            x       y       z     vdW  Elec       q    Type
REMARK                         _______ _______ _______ _____ _____    ______ ____
ROOT
ATOM      1  O   UNL     1       1.104   4.082  17.093  0.00  0.00    +0.000 OA
ATOM      2  C   UNL     1       2.135   3.825  17.702  0.00  0.00    +0.000 C 
ATOM      3  C   UNL     1       2.095   3.423  19.146  0.00  0.00    +0.000 A 
ATOM      4  C   UNL     1       0.852   3.349  19.790  0.00  0.00    +0.000 A 
ATOM      5  C   UNL     1       0.782   2.992  21.139  0.00  0.00    +0.000 A 
ATOM      6  C   UNL     1       1.947   2.710  21.853  0.00  0.00    +0.000 A 
ATOM      7  C   UNL     1       3.190   2.772  21.222  0.00  0.00    +0.000 A 
ATOM      8  C   UNL     1       3.269   3.125  19.870  0.00  0.00    +0.000 A 
ATOM      9  C   UNL     1       4.613   3.172  19.212  0.00  0.00    +0.000 C 
ATOM     10  O   UNL     1       5.637   2.900  19.816  0.00  0.00    +0.000 OA
ATOM     11  C   UNL     1       4.584   3.554  17.838  0.00  0.00    +0.000 A 
ATOM     12  N   UNL     1       5.626   3.676  16.970  0.00  0.00    +0.000 N 
ATOM     13  C   UNL     1       5.118   4.073  15.750  0.00  0.00    +0.000 A 
ATOM     14  N   UNL     1       3.805   4.214  15.831  0.00  0.00    +0.000 NA
ATOM     15  C   UNL     1       3.463   3.874  17.118  0.00  0.00    +0.000 A 
ATOM     16  H   UNL     1       6.596   3.495  17.186  0.00  0.00    +0.000 HD
ENDROOT
BRANCH  13  17
ATOM     17  C   UNL     1       5.936   4.271  14.554  0.00  0.00    +0.000 A 
ATOM     18  C   UNL     1       5.646   3.560  13.385  0.00  0.00    +0.000 A 
ATOM     19  C   UNL     1       6.459   3.741  12.277  0.00  0.00    +0.000 A 
ATOM     20  N   UNL     1       7.538   4.553  12.264  0.00  0.00    +0.000 NA
ATOM     21  C   UNL     1       7.783   5.211  13.403  0.00  0.00    +0.000 A 
ATOM     22  C   UNL     1       7.034   5.131  14.554  0.00  0.00    +0.000 A 
BRANCH  21  23
ATOM     23  O   UNL     1       8.908   5.965  13.380  0.00  0.00    +0.000 OA
ATOM     24  H   UNL     1       9.336   5.593  12.587  0.00  0.00    +0.000 HD
ENDBRANCH  21  23
ENDBRANCH  13  17
TORSDOF 2
ENDMDL
MODEL 3
REMARK VINA RESULT:      -7.9      0.148      2.276
REMARK  Name = 
REMARK  2 active torsions:
REMARK  status: ('A' for Active; 'I' for Inactive)
REMARK    1  A    between atoms: C_13  and  C_14
REMARK    2  A    between atoms: C_18  and  O_19
REMARK                            x       y       z     vdW  Elec       q    Type
REMARK                         _______ _______ _______ _____ _____    ______ ____
ROOT
ATOM      1  O   UNL     1       3.741   1.257  18.157  0.00  0.00    +0.000 OA
ATOM      2  C   UNL     1       3.661   2.478  18.216  0.00  0.00    +0.000 C 
ATOM      3  C   UNL     1       2.945   3.146  19.352  0.00  0.00    +0.000 A 
ATOM      4  C   UNL     1       2.365   2.347  20.347  0.00  0.00    +0.000 A 
ATOM      5  C   UNL     1       1.678   2.938  21.409  0.00  0.00    +0.000 A 
ATOM      6  C   UNL     1       1.564   4.327  21.487  0.00  0.00    +0.000 A 
ATOM      7  C   UNL     1       2.144   5.135  20.508  0.00  0.00    +0.000 A 
ATOM      8  C   UNL     1       2.837   4.550  19.442  0.00  0.00    +0.000 A 
ATOM      9  C   UNL     1       3.463   5.439  18.412  0.00  0.00    +0.000 C 
ATOM     10  O   UNL     1       3.395   6.655  18.481  0.00  0.00    +0.000 OA
ATOM     11  C   UNL     1       4.133   4.744  17.362  0.00  0.00    +0.000 A 
ATOM     12  N   UNL     1       4.804   5.262  16.296  0.00  0.00    +0.000 N 
ATOM     13  C   UNL     1       5.285   4.209  15.546  0.00  0.00    +0.000 A 
ATOM     14  N   UNL     1       4.929   3.060  16.097  0.00  0.00    +0.000 NA
ATOM     15  C   UNL     1       4.232   3.383  17.237  0.00  0.00    +0.000 A 
ATOM     16  H   UNL     1       4.931   6.245  16.102  0.00  0.00    +0.000 HD
ENDROOT
BRANCH  13  17
ATOM     17  C   UNL     1       6.094   4.374  14.337  0.00  0.00    +0.000 A 
ATOM     18  C   UNL     1       5.807   3.615  13.198  0.00  0.00    +0.000 A 
ATOM     19  C   UNL     1       6.611   3.766  12.078  0.00  0.00    +0.000 A 
ATOM     20  N   UNL     1       7.677   4.593  12.028  0.00  0.00    +0.000 NA
ATOM     21  C   UNL     1       7.919   5.296  13.140  0.00  0.00    +0.000 A 
ATOM     22  C   UNL     1       7.178   5.249  14.299  0.00  0.00    +0.000 A 
BRANCH  21  23
ATOM     23  O   UNL     1       9.032   6.066  13.082  0.00  0.00    +0.000 OA
ATOM     24  H   UNL     1       8.993   6.337  12.146  0.00  0.00    +0.000 HD
ENDBRANCH  21  23
ENDBRANCH  13  17
TORSDOF 2
ENDMDL
MODEL 4
REMARK VINA RESULT:      -7.8      4.906      7.692
REMARK  Name = 
REMARK  2 active torsions:
REMARK  status: ('A' for Active; 'I' for Inactive)
REMARK    1  A    between atoms: C_13  and  C_14
REMARK    2  A    between atoms: C_18  and  O_19
REMARK                            x       y       z     vdW  Elec       q    Type
REMARK                         _______ _______ _______ _____ _____    ______ ____
ROOT
ATOM      1  O   UNL     1       1.811   9.828  17.477  0.00  0.00    +0.000 OA
ATOM      2  C   UNL     1       1.489   9.716  18.653  0.00  0.00    +0.000 C 
ATOM      3  C   UNL     1       0.813  10.843  19.375  0.00  0.00    +0.000 A 
ATOM      4  C   UNL     1       0.559  12.033  18.679  0.00  0.00    +0.000 A 
ATOM      5  C   UNL     1      -0.055  13.107  19.327  0.00  0.00    +0.000 A 
ATOM      6  C   UNL     1      -0.418  13.003  20.671  0.00  0.00    +0.000 A 
ATOM      7  C   UNL     1      -0.178  11.822  21.373  0.00  0.00    +0.000 A 
ATOM      8  C   UNL     1       0.433  10.739  20.730  0.00  0.00    +0.000 A 
ATOM      9  C   UNL     1       0.667   9.477  21.501  0.00  0.00    +0.000 C 
ATOM     10  O   UNL     1       0.330   9.363  22.668  0.00  0.00    +0.000 OA
ATOM     11  C   UNL     1       1.307   8.442  20.759  0.00  0.00    +0.000 A 
ATOM     12  N   UNL     1       1.641   7.187  21.168  0.00  0.00    +0.000 N 
ATOM     13  C   UNL     1       2.244   6.541  20.108  0.00  0.00    +0.000 A 
ATOM     14  N   UNL     1       2.307   7.349  19.062  0.00  0.00    +0.000 NA
ATOM     15  C   UNL     1       1.709   8.524  19.451  0.00  0.00    +0.000 A 
ATOM     16  H   UNL     1       1.466   6.801  22.085  0.00  0.00    +0.000 HD
ENDROOT
BRANCH  13  17
ATOM     17  C   UNL     1       2.707   5.154  20.158  0.00  0.00    +0.000 A 
ATOM     18  C   UNL     1       2.024   4.220  20.944  0.00  0.00    +0.000 A 
ATOM     19  C   UNL     1       2.505   2.920  21.000  0.00  0.00    +0.000 A 
ATOM     20  N   UNL     1       3.616   2.504  20.355  0.00  0.00    +0.000 NA
ATOM     21  C   UNL     1       4.240   3.430  19.619  0.00  0.00    +0.000 A 
ATOM     22  C   UNL     1       3.843   4.739  19.467  0.00  0.00    +0.000 A 
BRANCH  21  23
ATOM     23  O   UNL     1       5.386   3.000  19.037  0.00  0.00    +0.000 OA
ATOM     24  H   UNL     1       5.502   2.157  19.513  0.00  0.00    +0.000 HD
ENDBRANCH  21  23
ENDBRANCH  13  17
TORSDOF 2
ENDMDL
MODEL 5
REMARK VINA RESULT:      -7.6      3.599      5.162
REMARK  Name = 
REMARK  2 active torsions:
REMARK  status: ('A' for Active; 'I' for Inactive)
REMARK    1  A    between atoms: C_13  and  C_14
REMARK    2  A    between atoms: C_18  and  O_19
REMARK                            x       y       z     vdW  Elec       q    Type
REMARK                         _______ _______ _______ _____ _____    ______ ____
ROOT
ATOM      1  O   UNL     1       1.776   6.290  21.167  0.00  0.00    +0.000 OA
ATOM      2  C   UNL     1       1.840   7.161  20.307  0.00  0.00    +0.000 C 
ATOM      3  C   UNL     1       0.979   8.386  20.390  0.00  0.00    +0.000 A 
ATOM      4  C   UNL     1       0.095   8.517  21.470  0.00  0.00    +0.000 A 
ATOM      5  C   UNL     1      -0.731   9.639  21.567  0.00  0.00    +0.000 A 
ATOM      6  C   UNL     1      -0.682  10.635  20.590  0.00  0.00    +0.000 A 
ATOM      7  C   UNL     1       0.198  10.521  19.514  0.00  0.00    +0.000 A 
ATOM      8  C   UNL     1       1.033   9.402  19.411  0.00  0.00    +0.000 A 
ATOM      9  C   UNL     1       1.979   9.309  18.255  0.00  0.00    +0.000 C 
ATOM     10  O   UNL     1       2.052  10.184  17.409  0.00  0.00    +0.000 OA
ATOM     11  C   UNL     1       2.773   8.124  18.236  0.00  0.00    +0.000 A 
ATOM     12  N   UNL     1       3.725   7.756  17.335  0.00  0.00    +0.000 N 
ATOM     13  C   UNL     1       4.224   6.529  17.722  0.00  0.00    +0.000 A 
ATOM     14  N   UNL     1       3.612   6.118  18.821  0.00  0.00    +0.000 NA
ATOM     15  C   UNL     1       2.724   7.112  19.158  0.00  0.00    +0.000 A 
ATOM     16  H   UNL     1       4.016   8.296  16.532  0.00  0.00    +0.000 HD
ENDROOT
BRANCH  13  17
ATOM     17  C   UNL     1       5.296   5.828  17.016  0.00  0.00    +0.000 A 
ATOM     18  C   UNL     1       5.227   5.668  15.628  0.00  0.00    +0.000 A 
ATOM     19  C   UNL     1       6.239   4.968  14.988  0.00  0.00    +0.000 A 
ATOM     20  N   UNL     1       7.286   4.408  15.632  0.00  0.00    +0.000 NA
ATOM     21  C   UNL     1       7.310   4.580  16.958  0.00  0.00    +0.000 A 
ATOM     22  C   UNL     1       6.379   5.275  17.696  0.00  0.00    +0.000 A 
BRANCH  21  23
ATOM     23  O   UNL     1       8.335   3.951  17.583  0.00  0.00    +0.000 OA
ATOM     24  H   UNL     1       8.160   3.036  17.298  0.00  0.00    +0.000 HD
ENDBRANCH  21  23
ENDBRANCH  13  17
TORSDOF 2
ENDMDL
MODEL 6
REMARK VINA RESULT:      -7.6      1.433      1.819
REMARK  Name = 
REMARK  2 active torsions:
REMARK  status: ('A' for Active; 'I' for Inactive)
REMARK    1  A    between atoms: C_13  and  C_14
REMARK    2  A    between atoms: C_18  and  O_19
REMARK                            x       y       z     vdW  Elec       q    Type
REMARK                         _______ _______ _______ _____ _____    ______ ____
ROOT
ATOM      1  O   UNL     1       5.635   2.990  19.846  0.00  0.00    +0.000 OA
ATOM      2  C   UNL     1       4.627   3.232  19.192  0.00  0.00    +0.000 C 
ATOM      3  C   UNL     1       3.273   3.218  19.836  0.00  0.00    +0.000 A 
ATOM      4  C   UNL     1       3.180   2.919  21.203  0.00  0.00    +0.000 A 
ATOM      5  C   UNL     1       1.932   2.883  21.829  0.00  0.00    +0.000 A 
ATOM      6  C   UNL     1       0.771   3.142  21.098  0.00  0.00    +0.000 A 
ATOM      7  C   UNL     1       0.851   3.448  19.739  0.00  0.00    +0.000 A 
ATOM      8  C   UNL     1       2.098   3.491  19.105  0.00  0.00    +0.000 A 
ATOM      9  C   UNL     1       2.158   3.836  17.649  0.00  0.00    +0.000 C 
ATOM     10  O   UNL     1       1.155   4.091  17.005  0.00  0.00    +0.000 OA
ATOM     11  C   UNL     1       3.473   3.838  17.098  0.00  0.00    +0.000 A 
ATOM     12  N   UNL     1       3.857   4.121  15.823  0.00  0.00    +0.000 N 
ATOM     13  C   UNL     1       5.229   3.992  15.754  0.00  0.00    +0.000 A 
ATOM     14  N   UNL     1       5.709   3.630  16.932  0.00  0.00    +0.000 NA
ATOM     15  C   UNL     1       4.628   3.552  17.777  0.00  0.00    +0.000 A 
ATOM     16  H   UNL     1       3.240   4.387  15.067  0.00  0.00    +0.000 HD
ENDROOT
BRANCH  13  17
ATOM     17  C   UNL     1       6.011   4.256  14.545  0.00  0.00    +0.000 A 
ATOM     18  C   UNL     1       5.695   3.596  13.353  0.00  0.00    +0.000 A 
ATOM     19  C   UNL     1       6.474   3.838  12.232  0.00  0.00    +0.000 A 
ATOM     20  N   UNL     1       7.543   4.663  12.227  0.00  0.00    +0.000 NA
ATOM     21  C   UNL     1       7.813   5.271  13.388  0.00  0.00    +0.000 A 
ATOM     22  C   UNL     1       7.097   5.128  14.555  0.00  0.00    +0.000 A 
BRANCH  21  23
ATOM     23  O   UNL     1       8.928   6.040  13.369  0.00  0.00    +0.000 OA
ATOM     24  H   UNL     1       9.570   5.386  13.036  0.00  0.00    +0.000 HD
ENDBRANCH  21  23
ENDBRANCH  13  17
TORSDOF 2
ENDMDL
MODEL 7
REMARK VINA RESULT:      -7.6      4.635      8.290
REMARK  Name = 
REMARK  2 active torsions:
REMARK  status: ('A' for Active; 'I' for Inactive)
REMARK    1  A    between atoms: C_13  and  C_14
REMARK    2  A    between atoms: C_18  and  O_19
REMARK                            x       y       z     vdW  Elec       q    Type
REMARK                         _______ _______ _______ _____ _____    ______ ____
ROOT
ATOM      1  O   UNL     1       3.387   7.559  17.268  0.00  0.00    +0.000 OA
ATOM      2  C   UNL     1       3.038   6.823  18.183  0.00  0.00    +0.000 C 
ATOM      3  C   UNL     1       3.399   5.368  18.180  0.00  0.00    +0.000 A 
ATOM      4  C   UNL     1       4.144   4.861  17.106  0.00  0.00    +0.000 A 
ATOM      5  C   UNL     1       4.483   3.507  17.065  0.00  0.00    +0.000 A 
ATOM      6  C   UNL     1       4.083   2.651  18.092  0.00  0.00    +0.000 A 
ATOM      7  C   UNL     1       3.349   3.144  19.171  0.00  0.00    +0.000 A 
ATOM      8  C   UNL     1       3.008   4.500  19.221  0.00  0.00    +0.000 A 
ATOM      9  C   UNL     1       2.231   5.008  20.397  0.00  0.00    +0.000 C 
ATOM     10  O   UNL     1       1.898   4.277  21.315  0.00  0.00    +0.000 OA
ATOM     11  C   UNL     1       1.924   6.400  20.344  0.00  0.00    +0.000 A 
ATOM     12  N   UNL     1       1.250   7.154  21.255  0.00  0.00    +0.000 N 
ATOM     13  C   UNL     1       1.193   8.447  20.777  0.00  0.00    +0.000 A 
ATOM     14  N   UNL     1       1.795   8.522  19.601  0.00  0.00    +0.000 NA
ATOM     15  C   UNL     1       2.269   7.259  19.334  0.00  0.00    +0.000 A 
ATOM     16  H   UNL     1       0.870   6.820  22.130  0.00  0.00    +0.000 HD
ENDROOT
BRANCH  13  17
ATOM     17  C   UNL     1       0.577   9.557  21.504  0.00  0.00    +0.000 A 
ATOM     18  C   UNL     1      -0.221   9.299  22.623  0.00  0.00    +0.000 A 
ATOM     19  C   UNL     1      -0.822  10.367  23.273  0.00  0.00    +0.000 A 
ATOM     20  N   UNL     1      -0.700  11.651  22.874  0.00  0.00    +0.000 NA
ATOM     21  C   UNL     1       0.068  11.853  21.797  0.00  0.00    +0.000 A 
ATOM     22  C   UNL     1       0.733  10.878  21.089  0.00  0.00    +0.000 A 
BRANCH  21  23
ATOM     23  O   UNL     1       0.118  13.142  21.382  0.00  0.00    +0.000 OA
ATOM     24  H   UNL     1      -0.835  13.313  21.271  0.00  0.00    +0.000 HD
ENDBRANCH  21  23
ENDBRANCH  13  17
TORSDOF 2
ENDMDL
MODEL 8
REMARK VINA RESULT:      -7.6      1.014      1.014
REMARK  Name = 
REMARK  2 active torsions:
REMARK  status: ('A' for Active; 'I' for Inactive)
REMARK    1  A    between atoms: C_13  and  C_14
REMARK    2  A    between atoms: C_18  and  O_19
REMARK                            x       y       z     vdW  Elec       q    Type
REMARK                         _______ _______ _______ _____ _____    ______ ____
ROOT
ATOM      1  O   UNL     1       5.222   5.431  19.744  0.00  0.00    +0.000 OA
ATOM      2  C   UNL     1       4.504   4.646  19.135  0.00  0.00    +0.000 C 
ATOM      3  C   UNL     1       3.335   3.993  19.810  0.00  0.00    +0.000 A 
ATOM      4  C   UNL     1       3.079   4.293  21.155  0.00  0.00    +0.000 A 
ATOM      5  C   UNL     1       2.008   3.690  21.816  0.00  0.00    +0.000 A 
ATOM      6  C   UNL     1       1.187   2.783  21.143  0.00  0.00    +0.000 A 
ATOM      7  C   UNL     1       1.426   2.481  19.803  0.00  0.00    +0.000 A 
ATOM      8  C   UNL     1       2.495   3.085  19.131  0.00  0.00    +0.000 A 
ATOM      9  C   UNL     1       2.722   2.755  17.688  0.00  0.00    +0.000 C 
ATOM     10  O   UNL     1       1.997   1.986  17.080  0.00  0.00    +0.000 OA
ATOM     11  C   UNL     1       3.844   3.412  17.103  0.00  0.00    +0.000 A 
ATOM     12  N   UNL     1       4.300   3.332  15.822  0.00  0.00    +0.000 N 
ATOM     13  C   UNL     1       5.414   4.140  15.717  0.00  0.00    +0.000 A 
ATOM     14  N   UNL     1       5.673   4.708  16.884  0.00  0.00    +0.000 NA
ATOM     15  C   UNL     1       4.691   4.278  17.744  0.00  0.00    +0.000 A 
ATOM     16  H   UNL     1       3.885   2.783  15.083  0.00  0.00    +0.000 HD
ENDROOT
BRANCH  13  17
ATOM     17  C   UNL     1       6.158   4.340  14.474  0.00  0.00    +0.000 A 
ATOM     18  C   UNL     1       5.815   3.611  13.331  0.00  0.00    +0.000 A 
ATOM     19  C   UNL     1       6.560   3.795  12.176  0.00  0.00    +0.000 A 
ATOM     20  N   UNL     1       7.620   4.628  12.092  0.00  0.00    +0.000 NA
ATOM     21  C   UNL     1       7.917   5.302  13.209  0.00  0.00    +0.000 A 
ATOM     22  C   UNL     1       7.236   5.221  14.403  0.00  0.00    +0.000 A 
BRANCH  21  23
ATOM     23  O   UNL     1       9.023   6.078  13.114  0.00  0.00    +0.000 OA
ATOM     24  H   UNL     1       9.008   6.490  13.997  0.00  0.00    +0.000 HD
ENDBRANCH  21  23
ENDBRANCH  13  17
TORSDOF 2
ENDMDL
MODEL 9
REMARK VINA RESULT:      -7.6      4.599      6.965
REMARK  Name = 
REMARK  2 active torsions:
REMARK  status: ('A' for Active; 'I' for Inactive)
REMARK    1  A    between atoms: C_13  and  C_14
REMARK    2  A    between atoms: C_18  and  O_19
REMARK                            x       y       z     vdW  Elec       q    Type
REMARK                         _______ _______ _______ _____ _____    ______ ____
ROOT
ATOM      1  O   UNL     1       1.889   9.656  17.156  0.00  0.00    +0.000 OA
ATOM      2  C   UNL     1       1.689   9.381  18.333  0.00  0.00    +0.000 C 
ATOM      3  C   UNL     1       1.162  10.413  19.283  0.00  0.00    +0.000 A 
ATOM      4  C   UNL     1       0.903  11.704  18.801  0.00  0.00    +0.000 A 
ATOM      5  C   UNL     1       0.426  12.693  19.665  0.00  0.00    +0.000 A 
ATOM      6  C   UNL     1       0.205  12.402  21.012  0.00  0.00    +0.000 A 
ATOM      7  C   UNL     1       0.451  11.120  21.503  0.00  0.00    +0.000 A 
ATOM      8  C   UNL     1       0.926  10.123  20.644  0.00  0.00    +0.000 A 
ATOM      9  C   UNL     1       1.168   8.750  21.192  0.00  0.00    +0.000 C 
ATOM     10  O   UNL     1       0.953   8.475  22.360  0.00  0.00    +0.000 OA
ATOM     11  C   UNL     1       1.663   7.813  20.238  0.00  0.00    +0.000 A 
ATOM     12  N   UNL     1       1.967   6.499  20.420  0.00  0.00    +0.000 N 
ATOM     13  C   UNL     1       2.413   5.995  19.215  0.00  0.00    +0.000 A 
ATOM     14  N   UNL     1       2.409   6.948  18.297  0.00  0.00    +0.000 NA
ATOM     15  C   UNL     1       1.925   8.075  18.919  0.00  0.00    +0.000 A 
ATOM     16  H   UNL     1       1.870   5.986  21.286  0.00  0.00    +0.000 HD
ENDROOT
BRANCH  13  17
ATOM     17  C   UNL     1       2.798   4.599  19.010  0.00  0.00    +0.000 A 
ATOM     18  C   UNL     1       2.012   3.771  18.201  0.00  0.00    +0.000 A 
ATOM     19  C   UNL     1       2.381   2.443  18.052  0.00  0.00    +0.000 A 
ATOM     20  N   UNL     1       3.450   1.888  18.663  0.00  0.00    +0.000 NA
ATOM     21  C   UNL     1       4.171   2.713  19.431  0.00  0.00    +0.000 A 
ATOM     22  C   UNL     1       3.918   4.051  19.633  0.00  0.00    +0.000 A 
BRANCH  21  23
ATOM     23  O   UNL     1       5.197   2.114  20.082  0.00  0.00    +0.000 OA
ATOM     24  H   UNL     1       5.901   2.766  19.909  0.00  0.00    +0.000 HD
ENDBRANCH  21  23
ENDBRANCH  13  17
TORSDOF 2
ENDMDL
