MODEL 1
REMARK VINA RESULT:      -7.9      0.000      0.000
REMARK  Name = 
REMARK  9 active torsions:
REMARK  status: ('A' for Active; 'I' for Inactive)
REMARK    1  A    between atoms: C_1  and  C_2
REMARK    2  A    between atoms: C_2  and  C_3
REMARK    3  A    between atoms: C_2  and  C_4
REMARK    4  A    between atoms: C_4  and  C_5
REMARK    5  A    between atoms: C_5  and  N_6
REMARK    6  A    between atoms: C_9  and  O_10
REMARK    7  A    between atoms: O_10  and  C_11
REMARK    8  A    between atoms: C_14  and  N_15
REMARK    9  A    between atoms: C_16  and  C_18
REMARK                            x       y       z     vdW  Elec       q    Type
REMARK                         _______ _______ _______ _____ _____    ______ ____
ROOT
ATOM      1  C   UNL     1       6.520   5.552  17.958  0.00  0.00    +0.000 A 
ATOM      2  C   UNL     1       7.530   5.860  18.868  0.00  0.00    +0.000 A 
ATOM      3  C   UNL     1       8.198   7.080  18.803  0.00  0.00    +0.000 A 
ATOM      4  C   UNL     1       7.873   8.027  17.838  0.00  0.00    +0.000 A 
ATOM      5  C   UNL     1       6.799   7.766  16.978  0.00  0.00    +0.000 A 
ATOM      6  C   UNL     1       6.122   6.538  17.046  0.00  0.00    +0.000 A 
ATOM      7 CL   UNL     1       4.803   6.275  15.958  0.00  0.00    +0.000 Cl
ENDROOT
BRANCH   4   8
ATOM      8  N   UNL     1       8.585   9.232  17.682  0.00  0.00    +0.000 N 
ATOM      9  C   UNL     1       9.054  10.055  18.700  0.00  0.00    +0.000 C 
ATOM     10  O   UNL     1       8.922   9.817  19.898  0.00  0.00    +0.000 OA
ATOM     11  H   UNL     1       8.852   9.499  16.743  0.00  0.00    +0.000 HD
BRANCH   9  12
ATOM     12  C   UNL     1       9.764  11.252  18.263  0.00  0.00    +0.000 A 
ATOM     13  C   UNL     1      11.139  11.405  18.215  0.00  0.00    +0.000 A 
ATOM     14  C   UNL     1      11.533  12.688  17.741  0.00  0.00    +0.000 A 
ATOM     15  C   UNL     1      10.446  13.476  17.444  0.00  0.00    +0.000 A 
ATOM     16  S   UNL     1       8.965  12.673  17.740  0.00  0.00    +0.000 S 
ENDBRANCH   9  12
ENDBRANCH   4   8
BRANCH   1  17
ATOM     17  O   UNL     1       5.894   4.332  17.921  0.00  0.00    +0.000 OA
BRANCH  17  21
ATOM     18  N   UNL     1       3.183   2.395  17.941  0.00  0.00    +0.000 NA
ATOM     19  C   UNL     1       4.289   1.922  18.793  0.00  0.00    +0.000 C 
ATOM     20  C   UNL     1       4.692   3.127  19.620  0.00  0.00    +0.000 C 
ATOM     21  C   UNL     1       4.630   4.252  18.601  0.00  0.00    +0.000 C 
ATOM     22  C   UNL     1       3.516   3.805  17.637  0.00  0.00    +0.000 C 
BRANCH  18  23
ATOM     23  C   UNL     1       1.883   2.253  18.610  0.00  0.00    +0.000 C 
BRANCH  23  24
ATOM     24  C   UNL     1       1.158   3.588  18.866  0.00  0.00    +0.000 C 
BRANCH  24  26
ATOM     25  C   UNL     1       1.364   2.816  21.283  0.00  0.00    +0.000 C 
ATOM     26  C   UNL     1       0.947   3.951  20.349  0.00  0.00    +0.000 C 
ATOM     27  C   UNL     1       1.743   5.216  20.686  0.00  0.00    +0.000 C 
ENDBRANCH  24  26
ENDBRANCH  23  24
ENDBRANCH  18  23
ENDBRANCH  17  21
ENDBRANCH   1  17
TORSDOF 7
ENDMDL
MODEL 2
REMARK VINA RESULT:      -7.3      1.178      1.687
REMARK  Name = 
REMARK  9 active torsions:
REMARK  status: ('A' for Active; 'I' for Inactive)
REMARK    1  A    between atoms: C_1  and  C_2
REMARK    2  A    between atoms: C_2  and  C_3
REMARK    3  A    between atoms: C_2  and  C_4
REMARK    4  A    between atoms: C_4  and  C_5
REMARK    5  A    between atoms: C_5  and  N_6
REMARK    6  A    between atoms: C_9  and  O_10
REMARK    7  A    between atoms: O_10  and  C_11
REMARK    8  A    between atoms: C_14  and  N_15
REMARK    9  A    between atoms: C_16  and  C_18
REMARK                            x       y       z     vdW  Elec       q    Type
REMARK                         _______ _______ _______ _____ _____    ______ ____
ROOT
ATOM      1  C   UNL     1       6.773   5.849  17.908  0.00  0.00    +0.000 A 
ATOM      2  C   UNL     1       7.802   6.042  18.828  0.00  0.00    +0.000 A 
ATOM      3  C   UNL     1       8.473   7.261  18.900  0.00  0.00    +0.000 A 
ATOM      4  C   UNL     1       8.131   8.319  18.065  0.00  0.00    +0.000 A 
ATOM      5  C   UNL     1       7.040   8.167  17.201  0.00  0.00    +0.000 A 
ATOM      6  C   UNL     1       6.361   6.940  17.132  0.00  0.00    +0.000 A 
ATOM      7 CL   UNL     1       5.020   6.814  16.046  0.00  0.00    +0.000 Cl
ENDROOT
BRANCH   4   8
ATOM      8  N   UNL     1       8.845   9.534  18.044  0.00  0.00    +0.000 N 
ATOM      9  C   UNL     1       9.173  10.322  19.142  0.00  0.00    +0.000 C 
ATOM     10  O   UNL     1       8.894  10.038  20.304  0.00  0.00    +0.000 OA
ATOM     11  H   UNL     1       9.224   9.837  17.156  0.00  0.00    +0.000 HD
BRANCH   9  12
ATOM     12  C   UNL     1       9.919  11.538  18.841  0.00  0.00    +0.000 A 
ATOM     13  C   UNL     1      10.256  11.989  17.576  0.00  0.00    +0.000 A 
ATOM     14  C   UNL     1      10.985  13.211  17.605  0.00  0.00    +0.000 A 
ATOM     15  C   UNL     1      11.185  13.654  18.891  0.00  0.00    +0.000 A 
ATOM     16  S   UNL     1      10.501  12.600  20.051  0.00  0.00    +0.000 S 
ENDBRANCH   9  12
ENDBRANCH   4   8
BRANCH   1  17
ATOM     17  O   UNL     1       6.144   4.644  17.734  0.00  0.00    +0.000 OA
BRANCH  17  21
ATOM     18  N   UNL     1       3.305   5.545  19.228  0.00  0.00    +0.000 NA
ATOM     19  C   UNL     1       3.135   4.693  18.037  0.00  0.00    +0.000 C 
ATOM     20  C   UNL     1       4.078   3.526  18.250  0.00  0.00    +0.000 C 
ATOM     21  C   UNL     1       5.310   4.206  18.820  0.00  0.00    +0.000 C 
ATOM     22  C   UNL     1       4.734   5.410  19.589  0.00  0.00    +0.000 C 
BRANCH  18  23
ATOM     23  C   UNL     1       2.406   5.139  20.318  0.00  0.00    +0.000 C 
BRANCH  23  24
ATOM     24  C   UNL     1       1.076   4.526  19.841  0.00  0.00    +0.000 C 
BRANCH  24  26
ATOM     25  C   UNL     1       0.711   2.109  19.130  0.00  0.00    +0.000 C 
ATOM     26  C   UNL     1       0.810   3.082  20.305  0.00  0.00    +0.000 C 
ATOM     27  C   UNL     1       1.925   2.633  21.254  0.00  0.00    +0.000 C 
ENDBRANCH  24  26
ENDBRANCH  23  24
ENDBRANCH  18  23
ENDBRANCH  17  21
ENDBRANCH   1  17
TORSDOF 7
ENDMDL
MODEL 3
REMARK VINA RESULT:      -7.1      6.278      8.560
REMARK  Name = 
REMARK  9 active torsions:
REMARK  status: ('A' for Active; 'I' for Inactive)
REMARK    1  A    between atoms: C_1  and  C_2
REMARK    2  A    between atoms: C_2  and  C_3
REMARK    3  A    between atoms: C_2  and  C_4
REMARK    4  A    between atoms: C_4  and  C_5
REMARK    5  A    between atoms: C_5  and  N_6
REMARK    6  A    between atoms: C_9  and  O_10
REMARK    7  A    between atoms: O_10  and  C_11
REMARK    8  A    between atoms: C_14  and  N_15
REMARK    9  A    between atoms: C_16  and  C_18
REMARK                            x       y       z     vdW  Elec       q    Type
REMARK                         _______ _______ _______ _____ _____    ______ ____
ROOT
ATOM      1  C   UNL     1       1.635   8.456  20.232  0.00  0.00    +0.000 A 
ATOM      2  C   UNL     1       1.443   8.280  21.601  0.00  0.00    +0.000 A 
ATOM      3  C   UNL     1       0.522   9.062  22.295  0.00  0.00    +0.000 A 
ATOM      4  C   UNL     1      -0.234  10.030  21.644  0.00  0.00    +0.000 A 
ATOM      5  C   UNL     1      -0.116  10.151  20.254  0.00  0.00    +0.000 A 
ATOM      6  C   UNL     1       0.808   9.360  19.554  0.00  0.00    +0.000 A 
ATOM      7 CL   UNL     1       0.908   9.555  17.837  0.00  0.00    +0.000 Cl
ENDROOT
BRANCH   4   8
ATOM      8  N   UNL     1      -1.107  10.901  22.326  0.00  0.00    +0.000 N 
ATOM      9  C   UNL     1      -0.904  12.254  22.570  0.00  0.00    +0.000 C 
ATOM     10  O   UNL     1       0.081  12.885  22.193  0.00  0.00    +0.000 OA
ATOM     11  H   UNL     1      -2.008  10.534  22.606  0.00  0.00    +0.000 HD
BRANCH   9  12
ATOM     12  C   UNL     1      -1.970  12.927  23.303  0.00  0.00    +0.000 A 
ATOM     13  C   UNL     1      -3.217  12.395  23.589  0.00  0.00    +0.000 A 
ATOM     14  C   UNL     1      -4.042  13.293  24.323  0.00  0.00    +0.000 A 
ATOM     15  C   UNL     1      -3.402  14.485  24.572  0.00  0.00    +0.000 A 
ATOM     16  S   UNL     1      -1.820  14.517  23.921  0.00  0.00    +0.000 S 
ENDBRANCH   9  12
ENDBRANCH   4   8
BRANCH   1  17
ATOM     17  O   UNL     1       2.591   7.777  19.519  0.00  0.00    +0.000 OA
BRANCH  17  21
ATOM     18  N   UNL     1       3.668   5.308  17.559  0.00  0.00    +0.000 NA
ATOM     19  C   UNL     1       4.493   5.553  18.756  0.00  0.00    +0.000 C 
ATOM     20  C   UNL     1       3.510   5.590  19.910  0.00  0.00    +0.000 C 
ATOM     21  C   UNL     1       2.351   6.374  19.321  0.00  0.00    +0.000 C 
ATOM     22  C   UNL     1       2.396   6.016  17.824  0.00  0.00    +0.000 C 
BRANCH  18  23
ATOM     23  C   UNL     1       3.476   3.871  17.318  0.00  0.00    +0.000 C 
BRANCH  23  24
ATOM     24  C   UNL     1       2.017   3.399  17.463  0.00  0.00    +0.000 C 
BRANCH  24  26
ATOM     25  C   UNL     1       3.063   1.908  19.242  0.00  0.00    +0.000 C 
ATOM     26  C   UNL     1       1.765   2.364  18.576  0.00  0.00    +0.000 C 
ATOM     27  C   UNL     1       0.827   2.962  19.630  0.00  0.00    +0.000 C 
ENDBRANCH  24  26
ENDBRANCH  23  24
ENDBRANCH  18  23
ENDBRANCH  17  21
ENDBRANCH   1  17
TORSDOF 7
ENDMDL
MODEL 4
REMARK VINA RESULT:      -7.1      1.154      1.314
REMARK  Name = 
REMARK  9 active torsions:
REMARK  status: ('A' for Active; 'I' for Inactive)
REMARK    1  A    between atoms: C_1  and  C_2
REMARK    2  A    between atoms: C_2  and  C_3
REMARK    3  A    between atoms: C_2  and  C_4
REMARK    4  A    between atoms: C_4  and  C_5
REMARK    5  A    between atoms: C_5  and  N_6
REMARK    6  A    between atoms: C_9  and  O_10
REMARK    7  A    between atoms: O_10  and  C_11
REMARK    8  A    between atoms: C_14  and  N_15
REMARK    9  A    between atoms: C_16  and  C_18
REMARK                            x       y       z     vdW  Elec       q    Type
REMARK                         _______ _______ _______ _____ _____    ______ ____
ROOT
ATOM      1  C   UNL     1       6.465   5.551  17.636  0.00  0.00    +0.000 A 
ATOM      2  C   UNL     1       7.358   5.400  18.695  0.00  0.00    +0.000 A 
ATOM      3  C   UNL     1       8.183   6.452  19.085  0.00  0.00    +0.000 A 
ATOM      4  C   UNL     1       8.133   7.682  18.438  0.00  0.00    +0.000 A 
ATOM      5  C   UNL     1       7.176   7.874  17.434  0.00  0.00    +0.000 A 
ATOM      6  C   UNL     1       6.341   6.814  17.044  0.00  0.00    +0.000 A 
ATOM      7 CL   UNL     1       5.178   7.113  15.799  0.00  0.00    +0.000 Cl
ENDROOT
BRANCH   4   8
ATOM      8  N   UNL     1       9.013   8.740  18.742  0.00  0.00    +0.000 N 
ATOM      9  C   UNL     1       8.859  10.075  18.387  0.00  0.00    +0.000 C 
ATOM     10  O   UNL     1       7.897  10.518  17.763  0.00  0.00    +0.000 OA
ATOM     11  H   UNL     1       9.802   8.533  19.342  0.00  0.00    +0.000 HD
BRANCH   9  12
ATOM     12  C   UNL     1       9.922  10.969  18.829  0.00  0.00    +0.000 A 
ATOM     13  C   UNL     1      11.006  11.377  18.070  0.00  0.00    +0.000 A 
ATOM     14  C   UNL     1      11.874  12.255  18.778  0.00  0.00    +0.000 A 
ATOM     15  C   UNL     1      11.428  12.488  20.058  0.00  0.00    +0.000 A 
ATOM     16  S   UNL     1       9.977  11.650  20.399  0.00  0.00    +0.000 S 
ENDBRANCH   9  12
ENDBRANCH   4   8
BRANCH   1  17
ATOM     17  O   UNL     1       5.697   4.522  17.154  0.00  0.00    +0.000 OA
BRANCH  17  21
ATOM     18  N   UNL     1       3.310   2.334  17.940  0.00  0.00    +0.000 NA
ATOM     19  C   UNL     1       4.196   2.713  19.056  0.00  0.00    +0.000 C 
ATOM     20  C   UNL     1       4.229   4.228  19.036  0.00  0.00    +0.000 C 
ATOM     21  C   UNL     1       4.315   4.528  17.549  0.00  0.00    +0.000 C 
ATOM     22  C   UNL     1       3.553   3.358  16.900  0.00  0.00    +0.000 C 
BRANCH  18  23
ATOM     23  C   UNL     1       1.902   2.277  18.359  0.00  0.00    +0.000 C 
BRANCH  23  24
ATOM     24  C   UNL     1       1.697   1.794  19.807  0.00  0.00    +0.000 C 
BRANCH  24  26
ATOM     25  C   UNL     1       2.078   3.143  21.932  0.00  0.00    +0.000 C 
ATOM     26  C   UNL     1       1.122   2.842  20.778  0.00  0.00    +0.000 C 
ATOM     27  C   UNL     1       0.812   4.134  20.015  0.00  0.00    +0.000 C 
ENDBRANCH  24  26
ENDBRANCH  23  24
ENDBRANCH  18  23
ENDBRANCH  17  21
ENDBRANCH   1  17
TORSDOF 7
ENDMDL
MODEL 5
REMARK VINA RESULT:      -7.1      1.417      1.813
REMARK  Name = 
REMARK  9 active torsions:
REMARK  status: ('A' for Active; 'I' for Inactive)
REMARK    1  A    between atoms: C_1  and  C_2
REMARK    2  A    between atoms: C_2  and  C_3
REMARK    3  A    between atoms: C_2  and  C_4
REMARK    4  A    between atoms: C_4  and  C_5
REMARK    5  A    between atoms: C_5  and  N_6
REMARK    6  A    between atoms: C_9  and  O_10
REMARK    7  A    between atoms: O_10  and  C_11
REMARK    8  A    between atoms: C_14  and  N_15
REMARK    9  A    between atoms: C_16  and  C_18
REMARK                            x       y       z     vdW  Elec       q    Type
REMARK                         _______ _______ _______ _____ _____    ______ ____
ROOT
ATOM      1  C   UNL     1       6.780   5.659  18.200  0.00  0.00    +0.000 A 
ATOM      2  C   UNL     1       6.413   6.434  17.101  0.00  0.00    +0.000 A 
ATOM      3  C   UNL     1       6.981   7.688  16.894  0.00  0.00    +0.000 A 
ATOM      4  C   UNL     1       7.933   8.200  17.769  0.00  0.00    +0.000 A 
ATOM      5  C   UNL     1       8.376   7.393  18.824  0.00  0.00    +0.000 A 
ATOM      6  C   UNL     1       7.808   6.126  19.030  0.00  0.00    +0.000 A 
ATOM      7 CL   UNL     1       8.397   5.176  20.350  0.00  0.00    +0.000 Cl
ENDROOT
BRANCH   4   8
ATOM      8  N   UNL     1       8.462   9.500  17.645  0.00  0.00    +0.000 N 
ATOM      9  C   UNL     1       8.997  10.278  18.666  0.00  0.00    +0.000 C 
ATOM     10  O   UNL     1       9.100   9.911  19.834  0.00  0.00    +0.000 OA
ATOM     11  H   UNL     1       8.532   9.889  16.713  0.00  0.00    +0.000 HD
BRANCH   9  12
ATOM     12  C   UNL     1       9.477  11.595  18.265  0.00  0.00    +0.000 A 
ATOM     13  C   UNL     1       8.731  12.761  18.259  0.00  0.00    +0.000 A 
ATOM     14  C   UNL     1       9.477  13.890  17.818  0.00  0.00    +0.000 A 
ATOM     15  C   UNL     1      10.771  13.550  17.498  0.00  0.00    +0.000 A 
ATOM     16  S   UNL     1      11.076  11.883  17.725  0.00  0.00    +0.000 S 
ENDBRANCH   9  12
ENDBRANCH   4   8
BRANCH   1  17
ATOM     17  O   UNL     1       6.188   4.460  18.499  0.00  0.00    +0.000 OA
BRANCH  17  21
ATOM     18  N   UNL     1       3.083   3.686  17.571  0.00  0.00    +0.000 NA
ATOM     19  C   UNL     1       3.845   2.575  18.169  0.00  0.00    +0.000 C 
ATOM     20  C   UNL     1       4.419   3.139  19.454  0.00  0.00    +0.000 C 
ATOM     21  C   UNL     1       4.853   4.531  19.029  0.00  0.00    +0.000 C 
ATOM     22  C   UNL     1       3.845   4.903  17.927  0.00  0.00    +0.000 C 
BRANCH  18  23
ATOM     23  C   UNL     1       1.698   3.721  18.063  0.00  0.00    +0.000 C 
BRANCH  23  24
ATOM     24  C   UNL     1       1.394   2.680  19.156  0.00  0.00    +0.000 C 
BRANCH  24  26
ATOM     25  C   UNL     1       1.599   2.551  21.691  0.00  0.00    +0.000 C 
ATOM     26  C   UNL     1       0.935   3.258  20.509  0.00  0.00    +0.000 C 
ATOM     27  C   UNL     1       1.250   4.756  20.561  0.00  0.00    +0.000 C 
ENDBRANCH  24  26
ENDBRANCH  23  24
ENDBRANCH  18  23
ENDBRANCH  17  21
ENDBRANCH   1  17
TORSDOF 7
ENDMDL
MODEL 6
REMARK VINA RESULT:      -6.8      6.839      9.572
REMARK  Name = 
REMARK  9 active torsions:
REMARK  status: ('A' for Active; 'I' for Inactive)
REMARK    1  A    between atoms: C_1  and  C_2
REMARK    2  A    between atoms: C_2  and  C_3
REMARK    3  A    between atoms: C_2  and  C_4
REMARK    4  A    between atoms: C_4  and  C_5
REMARK    5  A    between atoms: C_5  and  N_6
REMARK    6  A    between atoms: C_9  and  O_10
REMARK    7  A    between atoms: O_10  and  C_11
REMARK    8  A    between atoms: C_14  and  N_15
REMARK    9  A    between atoms: C_16  and  C_18
REMARK                            x       y       z     vdW  Elec       q    Type
REMARK                         _______ _______ _______ _____ _____    ______ ____
ROOT
ATOM      1  C   UNL     1       1.481   8.765  19.225  0.00  0.00    +0.000 A 
ATOM      2  C   UNL     1       1.061   9.293  18.005  0.00  0.00    +0.000 A 
ATOM      3  C   UNL     1      -0.081  10.086  17.929  0.00  0.00    +0.000 A 
ATOM      4  C   UNL     1      -0.828  10.381  19.064  0.00  0.00    +0.000 A 
ATOM      5  C   UNL     1      -0.365   9.933  20.307  0.00  0.00    +0.000 A 
ATOM      6  C   UNL     1       0.789   9.138  20.385  0.00  0.00    +0.000 A 
ATOM      7 CL   UNL     1       1.313   8.616  21.949  0.00  0.00    +0.000 Cl
ENDROOT
BRANCH   4   8
ATOM      8  N   UNL     1      -2.038  11.102  19.014  0.00  0.00    +0.000 N 
ATOM      9  C   UNL     1      -3.183  10.753  18.308  0.00  0.00    +0.000 C 
ATOM     10  O   UNL     1      -3.296   9.730  17.636  0.00  0.00    +0.000 OA
ATOM     11  H   UNL     1      -2.118  11.920  19.606  0.00  0.00    +0.000 HD
BRANCH   9  12
ATOM     12  C   UNL     1      -4.302  11.681  18.427  0.00  0.00    +0.000 A 
ATOM     13  C   UNL     1      -4.607  12.443  19.541  0.00  0.00    +0.000 A 
ATOM     14  C   UNL     1      -5.759  13.256  19.353  0.00  0.00    +0.000 A 
ATOM     15  C   UNL     1      -6.301  13.088  18.100  0.00  0.00    +0.000 A 
ATOM     16  S   UNL     1      -5.426  11.954  17.165  0.00  0.00    +0.000 S 
ENDBRANCH   9  12
ENDBRANCH   4   8
BRANCH   1  17
ATOM     17  O   UNL     1       2.543   7.906  19.341  0.00  0.00    +0.000 OA
BRANCH  17  21
ATOM     18  N   UNL     1       4.630   5.467  18.448  0.00  0.00    +0.000 NA
ATOM     19  C   UNL     1       3.647   5.094  19.482  0.00  0.00    +0.000 C 
ATOM     20  C   UNL     1       2.309   5.548  18.933  0.00  0.00    +0.000 C 
ATOM     21  C   UNL     1       2.651   6.896  18.324  0.00  0.00    +0.000 C 
ATOM     22  C   UNL     1       4.112   6.727  17.870  0.00  0.00    +0.000 C 
BRANCH  18  23
ATOM     23  C   UNL     1       4.789   4.407  17.442  0.00  0.00    +0.000 C 
BRANCH  23  24
ATOM     24  C   UNL     1       4.789   4.915  15.988  0.00  0.00    +0.000 C 
BRANCH  24  26
ATOM     25  C   UNL     1       7.307   4.681  16.279  0.00  0.00    +0.000 C 
ATOM     26  C   UNL     1       6.164   4.932  15.295  0.00  0.00    +0.000 C 
ATOM     27  C   UNL     1       6.195   3.874  14.188  0.00  0.00    +0.000 C 
ENDBRANCH  24  26
ENDBRANCH  23  24
ENDBRANCH  18  23
ENDBRANCH  17  21
ENDBRANCH   1  17
TORSDOF 7
ENDMDL
MODEL 7
REMARK VINA RESULT:      -6.8      0.798      1.128
REMARK  Name = 
REMARK  9 active torsions:
REMARK  status: ('A' for Active; 'I' for Inactive)
REMARK    1  A    between atoms: C_1  and  C_2
REMARK    2  A    between atoms: C_2  and  C_3
REMARK    3  A    between atoms: C_2  and  C_4
REMARK    4  A    between atoms: C_4  and  C_5
REMARK    5  A    between atoms: C_5  and  N_6
REMARK    6  A    between atoms: C_9  and  O_10
REMARK    7  A    between atoms: O_10  and  C_11
REMARK    8  A    between atoms: C_14  and  N_15
REMARK    9  A    between atoms: C_16  and  C_18
REMARK                            x       y       z     vdW  Elec       q    Type
REMARK                         _______ _______ _______ _____ _____    ______ ____
ROOT
ATOM      1  C   UNL     1       6.581   5.772  17.808  0.00  0.00    +0.000 A 
ATOM      2  C   UNL     1       7.579   5.962  18.762  0.00  0.00    +0.000 A 
ATOM      3  C   UNL     1       8.284   7.161  18.824  0.00  0.00    +0.000 A 
ATOM      4  C   UNL     1       8.009   8.203  17.944  0.00  0.00    +0.000 A 
ATOM      5  C   UNL     1       6.947   8.057  17.043  0.00  0.00    +0.000 A 
ATOM      6  C   UNL     1       6.233   6.850  16.985  0.00  0.00    +0.000 A 
ATOM      7 CL   UNL     1       4.931   6.731  15.851  0.00  0.00    +0.000 Cl
ENDROOT
BRANCH   4   8
ATOM      8  N   UNL     1       8.761   9.394  17.915  0.00  0.00    +0.000 N 
ATOM      9  C   UNL     1       9.142  10.161  19.011  0.00  0.00    +0.000 C 
ATOM     10  O   UNL     1       8.883   9.876  20.178  0.00  0.00    +0.000 OA
ATOM     11  H   UNL     1       9.128   9.693  17.021  0.00  0.00    +0.000 HD
BRANCH   9  12
ATOM     12  C   UNL     1       9.919  11.355  18.701  0.00  0.00    +0.000 A 
ATOM     13  C   UNL     1       9.688  12.221  17.645  0.00  0.00    +0.000 A 
ATOM     14  C   UNL     1      10.615  13.299  17.606  0.00  0.00    +0.000 A 
ATOM     15  C   UNL     1      11.529  13.223  18.631  0.00  0.00    +0.000 A 
ATOM     16  S   UNL     1      11.268  11.858  19.628  0.00  0.00    +0.000 S 
ENDBRANCH   9  12
ENDBRANCH   4   8
BRANCH   1  17
ATOM     17  O   UNL     1       5.920   4.581  17.646  0.00  0.00    +0.000 OA
BRANCH  17  21
ATOM     18  N   UNL     1       3.091   2.826  17.528  0.00  0.00    +0.000 NA
ATOM     19  C   UNL     1       4.231   2.122  18.142  0.00  0.00    +0.000 C 
ATOM     20  C   UNL     1       4.791   3.094  19.162  0.00  0.00    +0.000 C 
ATOM     21  C   UNL     1       4.719   4.417  18.418  0.00  0.00    +0.000 C 
ATOM     22  C   UNL     1       3.495   4.249  17.500  0.00  0.00    +0.000 C 
BRANCH  18  23
ATOM     23  C   UNL     1       1.848   2.605  18.281  0.00  0.00    +0.000 C 
BRANCH  23  24
ATOM     24  C   UNL     1       1.300   3.868  18.973  0.00  0.00    +0.000 C 
BRANCH  24  26
ATOM     25  C   UNL     1       1.498   5.535  20.886  0.00  0.00    +0.000 C 
ATOM     26  C   UNL     1       1.838   4.129  20.393  0.00  0.00    +0.000 C 
ATOM     27  C   UNL     1       1.261   3.089  21.360  0.00  0.00    +0.000 C 
ENDBRANCH  24  26
ENDBRANCH  23  24
ENDBRANCH  18  23
ENDBRANCH  17  21
ENDBRANCH   1  17
TORSDOF 7
ENDMDL
MODEL 8
REMARK VINA RESULT:      -6.7      6.646      9.078
REMARK  Name = 
REMARK  9 active torsions:
REMARK  status: ('A' for Active; 'I' for Inactive)
REMARK    1  A    between atoms: C_1  and  C_2
REMARK    2  A    between atoms: C_2  and  C_3
REMARK    3  A    between atoms: C_2  and  C_4
REMARK    4  A    between atoms: C_4  and  C_5
REMARK    5  A    between atoms: C_5  and  N_6
REMARK    6  A    between atoms: C_9  and  O_10
REMARK    7  A    between atoms: O_10  and  C_11
REMARK    8  A    between atoms: C_14  and  N_15
REMARK    9  A    between atoms: C_16  and  C_18
REMARK                            x       y       z     vdW  Elec       q    Type
REMARK                         _______ _______ _______ _____ _____    ______ ____
ROOT
ATOM      1  C   UNL     1       1.598   8.700  19.180  0.00  0.00    +0.000 A 
ATOM      2  C   UNL     1       1.173   9.188  17.946  0.00  0.00    +0.000 A 
ATOM      3  C   UNL     1      -0.004   9.925  17.840  0.00  0.00    +0.000 A 
ATOM      4  C   UNL     1      -0.782  10.202  18.959  0.00  0.00    +0.000 A 
ATOM      5  C   UNL     1      -0.317   9.796  20.216  0.00  0.00    +0.000 A 
ATOM      6  C   UNL     1       0.872   9.057  20.323  0.00  0.00    +0.000 A 
ATOM      7 CL   UNL     1       1.395   8.585  21.903  0.00  0.00    +0.000 Cl
ENDROOT
BRANCH   4   8
ATOM      8  N   UNL     1      -2.023  10.864  18.880  0.00  0.00    +0.000 N 
ATOM      9  C   UNL     1      -2.934  10.796  17.831  0.00  0.00    +0.000 C 
ATOM     10  O   UNL     1      -2.776  10.113  16.822  0.00  0.00    +0.000 OA
ATOM     11  H   UNL     1      -2.327  11.386  19.692  0.00  0.00    +0.000 HD
BRANCH   9  12
ATOM     12  C   UNL     1      -4.148  11.585  18.002  0.00  0.00    +0.000 A 
ATOM     13  C   UNL     1      -5.115  11.803  17.036  0.00  0.00    +0.000 A 
ATOM     14  C   UNL     1      -6.187  12.614  17.503  0.00  0.00    +0.000 A 
ATOM     15  C   UNL     1      -6.004  12.994  18.813  0.00  0.00    +0.000 A 
ATOM     16  S   UNL     1      -4.548  12.378  19.466  0.00  0.00    +0.000 S 
ENDBRANCH   9  12
ENDBRANCH   4   8
BRANCH   1  17
ATOM     17  O   UNL     1       2.698   7.894  19.325  0.00  0.00    +0.000 OA
BRANCH  17  21
ATOM     18  N   UNL     1       3.514   5.240  17.484  0.00  0.00    +0.000 NA
ATOM     19  C   UNL     1       4.498   5.602  18.521  0.00  0.00    +0.000 C 
ATOM     20  C   UNL     1       3.691   5.755  19.794  0.00  0.00    +0.000 C 
ATOM     21  C   UNL     1       2.449   6.479  19.303  0.00  0.00    +0.000 C 
ATOM     22  C   UNL     1       2.284   5.973  17.858  0.00  0.00    +0.000 C 
BRANCH  18  23
ATOM     23  C   UNL     1       3.307   3.786  17.417  0.00  0.00    +0.000 C 
BRANCH  23  24
ATOM     24  C   UNL     1       1.855   3.345  17.680  0.00  0.00    +0.000 C 
BRANCH  24  26
ATOM     25  C   UNL     1       2.969   2.106  19.605  0.00  0.00    +0.000 C 
ATOM     26  C   UNL     1       1.646   2.479  18.937  0.00  0.00    +0.000 C 
ATOM     27  C   UNL     1       0.757   3.228  19.935  0.00  0.00    +0.000 C 
ENDBRANCH  24  26
ENDBRANCH  23  24
ENDBRANCH  18  23
ENDBRANCH  17  21
ENDBRANCH   1  17
TORSDOF 7
ENDMDL
MODEL 9
REMARK VINA RESULT:      -6.6      1.440      2.060
REMARK  Name = 
REMARK  9 active torsions:
REMARK  status: ('A' for Active; 'I' for Inactive)
REMARK    1  A    between atoms: C_1  and  C_2
REMARK    2  A    between atoms: C_2  and  C_3
REMARK    3  A    between atoms: C_2  and  C_4
REMARK    4  A    between atoms: C_4  and  C_5
REMARK    5  A    between atoms: C_5  and  N_6
REMARK    6  A    between atoms: C_9  and  O_10
REMARK    7  A    between atoms: O_10  and  C_11
REMARK    8  A    between atoms: C_14  and  N_15
REMARK    9  A    between atoms: C_16  and  C_18
REMARK                            x       y       z     vdW  Elec       q    Type
REMARK                         _______ _______ _______ _____ _____    ______ ____
ROOT
ATOM      1  C   UNL     1       6.379   5.311  17.711  0.00  0.00    +0.000 A 
ATOM      2  C   UNL     1       7.216   5.215  18.821  0.00  0.00    +0.000 A 
ATOM      3  C   UNL     1       8.028   6.282  19.194  0.00  0.00    +0.000 A 
ATOM      4  C   UNL     1       8.023   7.474  18.477  0.00  0.00    +0.000 A 
ATOM      5  C   UNL     1       7.120   7.615  17.417  0.00  0.00    +0.000 A 
ATOM      6  C   UNL     1       6.297   6.540  17.044  0.00  0.00    +0.000 A 
ATOM      7 CL   UNL     1       5.201   6.775  15.725  0.00  0.00    +0.000 Cl
ENDROOT
BRANCH   4   8
ATOM      8  N   UNL     1       8.895   8.542  18.767  0.00  0.00    +0.000 N 
ATOM      9  C   UNL     1       8.725   9.873  18.403  0.00  0.00    +0.000 C 
ATOM     10  O   UNL     1       7.755  10.302  17.783  0.00  0.00    +0.000 OA
ATOM     11  H   UNL     1       9.690   8.347  19.362  0.00  0.00    +0.000 HD
BRANCH   9  12
ATOM     12  C   UNL     1       9.783  10.781  18.831  0.00  0.00    +0.000 A 
ATOM     13  C   UNL     1      10.809  11.261  18.035  0.00  0.00    +0.000 A 
ATOM     14  C   UNL     1      11.688  12.133  18.737  0.00  0.00    +0.000 A 
ATOM     15  C   UNL     1      11.308  12.289  20.050  0.00  0.00    +0.000 A 
ATOM     16  S   UNL     1       9.905  11.386  20.428  0.00  0.00    +0.000 S 
ENDBRANCH   9  12
ENDBRANCH   4   8
BRANCH   1  17
ATOM     17  O   UNL     1       5.628   4.261  17.248  0.00  0.00    +0.000 OA
BRANCH  17  21
ATOM     18  N   UNL     1       3.318   5.655  19.203  0.00  0.00    +0.000 NA
ATOM     19  C   UNL     1       2.963   5.589  17.774  0.00  0.00    +0.000 C 
ATOM     20  C   UNL     1       3.229   4.153  17.368  0.00  0.00    +0.000 C 
ATOM     21  C   UNL     1       4.533   3.852  18.085  0.00  0.00    +0.000 C 
ATOM     22  C   UNL     1       4.457   4.722  19.353  0.00  0.00    +0.000 C 
BRANCH  18  23
ATOM     23  C   UNL     1       2.180   5.300  20.062  0.00  0.00    +0.000 C 
BRANCH  23  24
ATOM     24  C   UNL     1       2.401   4.031  20.906  0.00  0.00    +0.000 C 
BRANCH  24  26
ATOM     25  C   UNL     1       0.381   3.229  19.581  0.00  0.00    +0.000 C 
ATOM     26  C   UNL     1       1.489   2.839  20.559  0.00  0.00    +0.000 C 
ATOM     27  C   UNL     1       2.329   1.706  19.961  0.00  0.00    +0.000 C 
ENDBRANCH  24  26
ENDBRANCH  23  24
ENDBRANCH  18  23
ENDBRANCH  17  21
ENDBRANCH   1  17
TORSDOF 7
ENDMDL
