MODEL 1
REMARK VINA RESULT:      -7.7      0.000      0.000
REMARK  Name = 
REMARK  4 active torsions:
REMARK  status: ('A' for Active; 'I' for Inactive)
REMARK    1  A    between atoms: C_2  and  C_3
REMARK    2  A    between atoms: C_4  and  C_5
REMARK    3  A    between atoms: N_11  and  N_12
REMARK    4  A    between atoms: N_12  and  C_13
REMARK                            x       y       z     vdW  Elec       q    Type
REMARK                         _______ _______ _______ _____ _____    ______ ____
ROOT
ATOM      1  O   UNL     1       7.852   6.269  18.668  0.00  0.00    +0.000 OA
ATOM      2  C   UNL     1       7.285   5.251  18.283  0.00  0.00    +0.000 C 
ATOM      3  N   UNL     1       6.480   4.517  19.124  0.00  0.00    +0.000 N 
ATOM      4  H   UNL     1       6.239   5.021  19.977  0.00  0.00    +0.000 HD
ENDROOT
BRANCH   2   5
ATOM      5  C   UNL     1       7.433   4.755  16.902  0.00  0.00    +0.000 C 
ATOM      6  C   UNL     1       6.688   5.323  15.947  0.00  0.00    +0.000 C 
BRANCH   6   7
ATOM      7  C   UNL     1       6.732   4.831  14.577  0.00  0.00    +0.000 A 
ATOM      8  C   UNL     1       7.674   5.353  13.684  0.00  0.00    +0.000 A 
ATOM      9  C   UNL     1       7.705   4.915  12.361  0.00  0.00    +0.000 A 
ATOM     10  C   UNL     1       6.795   3.951  11.926  0.00  0.00    +0.000 A 
ATOM     11  C   UNL     1       5.856   3.426  12.814  0.00  0.00    +0.000 A 
ATOM     12  C   UNL     1       5.823   3.864  14.138  0.00  0.00    +0.000 A 
ENDBRANCH   6   7
ENDBRANCH   2   5
BRANCH   3  13
ATOM     13  N   UNL     1       5.480   3.639  18.649  0.00  0.00    +0.000 N 
ATOM     14  H   UNL     1       5.743   2.651  18.725  0.00  0.00    +0.000 HD
BRANCH  13  15
ATOM     15  C   UNL     1       4.198   3.826  19.267  0.00  0.00    +0.000 A 
ATOM     16  C   UNL     1       3.257   4.801  18.876  0.00  0.00    +0.000 A 
ATOM     17 CL   UNL     1       3.514   5.947  17.607  0.00  0.00    +0.000 Cl
ATOM     18  C   UNL     1       2.019   4.840  19.516  0.00  0.00    +0.000 A 
ATOM     19  N   UNL     1       1.628   3.976  20.482  0.00  0.00    +0.000 NA
ATOM     20  C   UNL     1       2.515   3.016  20.816  0.00  0.00    +0.000 A 
ATOM     21  C   UNL     1       3.778   2.897  20.244  0.00  0.00    +0.000 A 
ATOM     22 CL   UNL     1       4.813   1.616  20.771  0.00  0.00    +0.000 Cl
ENDBRANCH  13  15
ENDBRANCH   3  13
TORSDOF 4
ENDMDL
MODEL 2
REMARK VINA RESULT:      -7.5      0.535      1.206
REMARK  Name = 
REMARK  4 active torsions:
REMARK  status: ('A' for Active; 'I' for Inactive)
REMARK    1  A    between atoms: C_2  and  C_3
REMARK    2  A    between atoms: C_4  and  C_5
REMARK    3  A    between atoms: N_11  and  N_12
REMARK    4  A    between atoms: N_12  and  C_13
REMARK                            x       y       z     vdW  Elec       q    Type
REMARK                         _______ _______ _______ _____ _____    ______ ____
ROOT
ATOM      1  O   UNL     1       7.579   5.790  18.540  0.00  0.00    +0.000 OA
ATOM      2  C   UNL     1       6.893   4.839  18.181  0.00  0.00    +0.000 C 
ATOM      3  N   UNL     1       6.064   4.180  19.060  0.00  0.00    +0.000 N 
ATOM      4  H   UNL     1       5.920   4.697  19.927  0.00  0.00    +0.000 HD
ENDROOT
BRANCH   2   5
ATOM      5  C   UNL     1       6.917   4.345  16.791  0.00  0.00    +0.000 C 
ATOM      6  C   UNL     1       6.923   5.247  15.804  0.00  0.00    +0.000 C 
BRANCH   6   7
ATOM      7  C   UNL     1       6.872   4.826  14.410  0.00  0.00    +0.000 A 
ATOM      8  C   UNL     1       5.961   3.839  14.018  0.00  0.00    +0.000 A 
ATOM      9  C   UNL     1       5.925   3.404  12.695  0.00  0.00    +0.000 A 
ATOM     10  C   UNL     1       6.800   3.954  11.757  0.00  0.00    +0.000 A 
ATOM     11  C   UNL     1       7.708   4.940  12.143  0.00  0.00    +0.000 A 
ATOM     12  C   UNL     1       7.746   5.376  13.468  0.00  0.00    +0.000 A 
ENDBRANCH   6   7
ENDBRANCH   2   5
BRANCH   3  13
ATOM     13  N   UNL     1       4.957   3.412  18.635  0.00  0.00    +0.000 N 
ATOM     14  H   UNL     1       5.176   2.416  18.527  0.00  0.00    +0.000 HD
BRANCH  13  15
ATOM     15  C   UNL     1       3.799   3.544  19.473  0.00  0.00    +0.000 A 
ATOM     16  C   UNL     1       2.725   4.421  19.219  0.00  0.00    +0.000 A 
ATOM     17 CL   UNL     1       2.648   5.501  17.870  0.00  0.00    +0.000 Cl
ATOM     18  C   UNL     1       1.626   4.411  20.077  0.00  0.00    +0.000 A 
ATOM     19  N   UNL     1       1.491   3.583  21.139  0.00  0.00    +0.000 NA
ATOM     20  C   UNL     1       2.501   2.712  21.347  0.00  0.00    +0.000 A 
ATOM     21  C   UNL     1       3.643   2.650  20.555  0.00  0.00    +0.000 A 
ATOM     22 CL   UNL     1       4.860   1.483  20.939  0.00  0.00    +0.000 Cl
ENDBRANCH  13  15
ENDBRANCH   3  13
TORSDOF 4
ENDMDL
MODEL 3
REMARK VINA RESULT:      -7.5      0.275      2.052
REMARK  Name = 
REMARK  4 active torsions:
REMARK  status: ('A' for Active; 'I' for Inactive)
REMARK    1  A    between atoms: C_2  and  C_3
REMARK    2  A    between atoms: C_4  and  C_5
REMARK    3  A    between atoms: N_11  and  N_12
REMARK    4  A    between atoms: N_12  and  C_13
REMARK                            x       y       z     vdW  Elec       q    Type
REMARK                         _______ _______ _______ _____ _____    ______ ____
ROOT
ATOM      1  O   UNL     1       7.803   5.972  18.845  0.00  0.00    +0.000 OA
ATOM      2  C   UNL     1       7.188   5.033  18.352  0.00  0.00    +0.000 C 
ATOM      3  N   UNL     1       6.271   4.311  19.082  0.00  0.00    +0.000 N 
ATOM      4  H   UNL     1       6.010   4.775  19.952  0.00  0.00    +0.000 HD
ENDROOT
BRANCH   2   5
ATOM      5  C   UNL     1       7.395   4.621  16.950  0.00  0.00    +0.000 C 
ATOM      6  C   UNL     1       6.648   5.205  16.007  0.00  0.00    +0.000 C 
BRANCH   6   7
ATOM      7  C   UNL     1       6.751   4.792  14.614  0.00  0.00    +0.000 A 
ATOM      8  C   UNL     1       7.698   5.397  13.780  0.00  0.00    +0.000 A 
ATOM      9  C   UNL     1       7.784   5.034  12.437  0.00  0.00    +0.000 A 
ATOM     10  C   UNL     1       6.924   4.064  11.922  0.00  0.00    +0.000 A 
ATOM     11  C   UNL     1       5.980   3.456  12.750  0.00  0.00    +0.000 A 
ATOM     12  C   UNL     1       5.892   3.819  14.095  0.00  0.00    +0.000 A 
ENDBRANCH   6   7
ENDBRANCH   2   5
BRANCH   3  13
ATOM     13  N   UNL     1       5.243   3.553  18.480  0.00  0.00    +0.000 N 
ATOM     14  H   UNL     1       5.526   2.591  18.264  0.00  0.00    +0.000 HD
BRANCH  13  15
ATOM     15  C   UNL     1       4.024   3.518  19.237  0.00  0.00    +0.000 A 
ATOM     16  C   UNL     1       3.784   2.656  20.326  0.00  0.00    +0.000 A 
ATOM     17 CL   UNL     1       4.913   1.480  20.904  0.00  0.00    +0.000 Cl
ATOM     18  C   UNL     1       2.579   2.762  21.020  0.00  0.00    +0.000 A 
ATOM     19  N   UNL     1       1.614   3.671  20.745  0.00  0.00    +0.000 NA
ATOM     20  C   UNL     1       1.872   4.525  19.733  0.00  0.00    +0.000 A 
ATOM     21  C   UNL     1       3.038   4.494  18.973  0.00  0.00    +0.000 A 
ATOM     22 CL   UNL     1       3.234   5.651  17.703  0.00  0.00    +0.000 Cl
ENDBRANCH  13  15
ENDBRANCH   3  13
TORSDOF 4
ENDMDL
MODEL 4
REMARK VINA RESULT:      -7.4      1.298      2.322
REMARK  Name = 
REMARK  4 active torsions:
REMARK  status: ('A' for Active; 'I' for Inactive)
REMARK    1  A    between atoms: C_2  and  C_3
REMARK    2  A    between atoms: C_4  and  C_5
REMARK    3  A    between atoms: N_11  and  N_12
REMARK    4  A    between atoms: N_12  and  C_13
REMARK                            x       y       z     vdW  Elec       q    Type
REMARK                         _______ _______ _______ _____ _____    ______ ____
ROOT
ATOM      1  O   UNL     1       7.522   5.234  18.893  0.00  0.00    +0.000 OA
ATOM      2  C   UNL     1       6.497   4.868  18.326  0.00  0.00    +0.000 C 
ATOM      3  N   UNL     1       5.275   4.904  18.958  0.00  0.00    +0.000 N 
ATOM      4  H   UNL     1       5.292   5.459  19.814  0.00  0.00    +0.000 HD
ENDROOT
BRANCH   2   5
ATOM      5  C   UNL     1       6.514   4.370  16.938  0.00  0.00    +0.000 C 
ATOM      6  C   UNL     1       6.852   5.224  15.967  0.00  0.00    +0.000 C 
BRANCH   6   7
ATOM      7  C   UNL     1       6.817   4.815  14.569  0.00  0.00    +0.000 A 
ATOM      8  C   UNL     1       5.901   3.843  14.156  0.00  0.00    +0.000 A 
ATOM      9  C   UNL     1       5.879   3.419  12.828  0.00  0.00    +0.000 A 
ATOM     10  C   UNL     1       6.774   3.966  11.908  0.00  0.00    +0.000 A 
ATOM     11  C   UNL     1       7.688   4.938  12.315  0.00  0.00    +0.000 A 
ATOM     12  C   UNL     1       7.711   5.363  13.644  0.00  0.00    +0.000 A 
ENDBRANCH   6   7
ENDBRANCH   2   5
BRANCH   3  13
ATOM     13  N   UNL     1       4.052   4.935  18.253  0.00  0.00    +0.000 N 
ATOM     14  H   UNL     1       4.130   4.573  17.297  0.00  0.00    +0.000 HD
BRANCH  13  15
ATOM     15  C   UNL     1       2.977   4.256  18.920  0.00  0.00    +0.000 A 
ATOM     16  C   UNL     1       2.779   2.860  18.899  0.00  0.00    +0.000 A 
ATOM     17 CL   UNL     1       3.786   1.746  18.041  0.00  0.00    +0.000 Cl
ATOM     18  C   UNL     1       1.730   2.315  19.639  0.00  0.00    +0.000 A 
ATOM     19  N   UNL     1       0.890   3.033  20.420  0.00  0.00    +0.000 NA
ATOM     20  C   UNL     1       1.116   4.362  20.473  0.00  0.00    +0.000 A 
ATOM     21  C   UNL     1       2.128   5.003  19.765  0.00  0.00    +0.000 A 
ATOM     22 CL   UNL     1       2.302   6.716  19.927  0.00  0.00    +0.000 Cl
ENDBRANCH  13  15
ENDBRANCH   3  13
TORSDOF 4
ENDMDL
MODEL 5
REMARK VINA RESULT:      -7.4      1.244      1.294
REMARK  Name = 
REMARK  4 active torsions:
REMARK  status: ('A' for Active; 'I' for Inactive)
REMARK    1  A    between atoms: C_2  and  C_3
REMARK    2  A    between atoms: C_4  and  C_5
REMARK    3  A    between atoms: N_11  and  N_12
REMARK    4  A    between atoms: N_12  and  C_13
REMARK                            x       y       z     vdW  Elec       q    Type
REMARK                         _______ _______ _______ _____ _____    ______ ____
ROOT
ATOM      1  O   UNL     1       7.647   5.291  18.913  0.00  0.00    +0.000 OA
ATOM      2  C   UNL     1       6.669   4.818  18.342  0.00  0.00    +0.000 C 
ATOM      3  N   UNL     1       5.446   4.728  18.966  0.00  0.00    +0.000 N 
ATOM      4  H   UNL     1       5.399   5.285  19.819  0.00  0.00    +0.000 HD
ENDROOT
BRANCH   2   5
ATOM      5  C   UNL     1       6.748   4.319  16.956  0.00  0.00    +0.000 C 
ATOM      6  C   UNL     1       6.845   5.216  15.969  0.00  0.00    +0.000 C 
BRANCH   6   7
ATOM      7  C   UNL     1       6.852   4.792  14.575  0.00  0.00    +0.000 A 
ATOM      8  C   UNL     1       7.746   5.384  13.676  0.00  0.00    +0.000 A 
ATOM      9  C   UNL     1       7.740   5.011  12.333  0.00  0.00    +0.000 A 
ATOM     10  C   UNL     1       6.840   4.045  11.884  0.00  0.00    +0.000 A 
ATOM     11  C   UNL     1       5.949   3.450  12.777  0.00  0.00    +0.000 A 
ATOM     12  C   UNL     1       5.953   3.822  14.122  0.00  0.00    +0.000 A 
ENDBRANCH   6   7
ENDBRANCH   2   5
BRANCH   3  13
ATOM     13  N   UNL     1       4.231   4.628  18.254  0.00  0.00    +0.000 N 
ATOM     14  H   UNL     1       4.306   4.049  17.410  0.00  0.00    +0.000 HD
BRANCH  13  15
ATOM     15  C   UNL     1       3.129   4.155  19.042  0.00  0.00    +0.000 A 
ATOM     16  C   UNL     1       2.274   4.984  19.798  0.00  0.00    +0.000 A 
ATOM     17 CL   UNL     1       2.439   6.702  19.917  0.00  0.00    +0.000 Cl
ATOM     18  C   UNL     1       1.199   4.409  20.474  0.00  0.00    +0.000 A 
ATOM     19  N   UNL     1       0.883   3.093  20.433  0.00  0.00    +0.000 NA
ATOM     20  C   UNL     1       1.677   2.315  19.668  0.00  0.00    +0.000 A 
ATOM     21  C   UNL     1       2.779   2.790  18.964  0.00  0.00    +0.000 A 
ATOM     22 CL   UNL     1       3.708   1.676  18.024  0.00  0.00    +0.000 Cl
ENDBRANCH  13  15
ENDBRANCH   3  13
TORSDOF 4
ENDMDL
MODEL 6
REMARK VINA RESULT:      -7.3      1.355      1.783
REMARK  Name = 
REMARK  4 active torsions:
REMARK  status: ('A' for Active; 'I' for Inactive)
REMARK    1  A    between atoms: C_2  and  C_3
REMARK    2  A    between atoms: C_4  and  C_5
REMARK    3  A    between atoms: N_11  and  N_12
REMARK    4  A    between atoms: N_12  and  C_13
REMARK                            x       y       z     vdW  Elec       q    Type
REMARK                         _______ _______ _______ _____ _____    ______ ____
ROOT
ATOM      1  O   UNL     1       7.578   4.940  18.688  0.00  0.00    +0.000 OA
ATOM      2  C   UNL     1       6.504   4.643  18.174  0.00  0.00    +0.000 C 
ATOM      3  N   UNL     1       5.335   4.642  18.901  0.00  0.00    +0.000 N 
ATOM      4  H   UNL     1       5.430   5.119  19.797  0.00  0.00    +0.000 HD
ENDROOT
BRANCH   2   5
ATOM      5  C   UNL     1       6.403   4.268  16.751  0.00  0.00    +0.000 C 
ATOM      6  C   UNL     1       7.116   4.971  15.864  0.00  0.00    +0.000 C 
BRANCH   6   7
ATOM      7  C   UNL     1       7.004   4.700  14.437  0.00  0.00    +0.000 A 
ATOM      8  C   UNL     1       6.110   3.723  13.986  0.00  0.00    +0.000 A 
ATOM      9  C   UNL     1       6.017   3.431  12.626  0.00  0.00    +0.000 A 
ATOM     10  C   UNL     1       6.818   4.116  11.711  0.00  0.00    +0.000 A 
ATOM     11  C   UNL     1       7.709   5.092  12.156  0.00  0.00    +0.000 A 
ATOM     12  C   UNL     1       7.803   5.385  13.518  0.00  0.00    +0.000 A 
ENDBRANCH   6   7
ENDBRANCH   2   5
BRANCH   3  13
ATOM     13  N   UNL     1       4.062   4.754  18.299  0.00  0.00    +0.000 N 
ATOM     14  H   UNL     1       4.024   4.344  17.360  0.00  0.00    +0.000 HD
BRANCH  13  15
ATOM     15  C   UNL     1       2.994   4.210  19.087  0.00  0.00    +0.000 A 
ATOM     16  C   UNL     1       2.117   4.975  19.883  0.00  0.00    +0.000 A 
ATOM     17 CL   UNL     1       2.211   6.694  20.058  0.00  0.00    +0.000 Cl
ATOM     18  C   UNL     1       1.078   4.333  20.554  0.00  0.00    +0.000 A 
ATOM     19  N   UNL     1       0.818   3.007  20.474  0.00  0.00    +0.000 NA
ATOM     20  C   UNL     1       1.631   2.289  19.672  0.00  0.00    +0.000 A 
ATOM     21  C   UNL     1       2.701   2.833  18.969  0.00  0.00    +0.000 A 
ATOM     22 CL   UNL     1       3.662   1.792  17.978  0.00  0.00    +0.000 Cl
ENDBRANCH  13  15
ENDBRANCH   3  13
TORSDOF 4
ENDMDL
MODEL 7
REMARK VINA RESULT:      -7.2      4.329      5.982
REMARK  Name = 
REMARK  4 active torsions:
REMARK  status: ('A' for Active; 'I' for Inactive)
REMARK    1  A    between atoms: C_2  and  C_3
REMARK    2  A    between atoms: C_4  and  C_5
REMARK    3  A    between atoms: N_11  and  N_12
REMARK    4  A    between atoms: N_12  and  C_13
REMARK                            x       y       z     vdW  Elec       q    Type
REMARK                         _______ _______ _______ _____ _____    ______ ____
ROOT
ATOM      1  O   UNL     1       1.554   4.420  21.037  0.00  0.00    +0.000 OA
ATOM      2  C   UNL     1       1.912   5.506  20.592  0.00  0.00    +0.000 C 
ATOM      3  N   UNL     1       1.307   6.678  20.986  0.00  0.00    +0.000 N 
ATOM      4  H   UNL     1       0.727   6.561  21.817  0.00  0.00    +0.000 HD
ENDROOT
BRANCH   2   5
ATOM      5  C   UNL     1       3.007   5.620  19.611  0.00  0.00    +0.000 C 
ATOM      6  C   UNL     1       2.787   5.174  18.369  0.00  0.00    +0.000 C 
BRANCH   6   7
ATOM      7  C   UNL     1       3.850   5.189  17.373  0.00  0.00    +0.000 A 
ATOM      8  C   UNL     1       4.374   6.412  16.939  0.00  0.00    +0.000 A 
ATOM      9  C   UNL     1       5.368   6.441  15.962  0.00  0.00    +0.000 A 
ATOM     10  C   UNL     1       5.843   5.249  15.416  0.00  0.00    +0.000 A 
ATOM     11  C   UNL     1       5.325   4.028  15.848  0.00  0.00    +0.000 A 
ATOM     12  C   UNL     1       4.330   3.996  16.825  0.00  0.00    +0.000 A 
ENDBRANCH   6   7
ENDBRANCH   2   5
BRANCH   3  13
ATOM     13  N   UNL     1       1.938   7.937  20.875  0.00  0.00    +0.000 N 
ATOM     14  H   UNL     1       2.716   7.940  20.206  0.00  0.00    +0.000 HD
BRANCH  13  15
ATOM     15  C   UNL     1       1.043   9.011  20.549  0.00  0.00    +0.000 A 
ATOM     16  C   UNL     1       0.261   9.713  21.489  0.00  0.00    +0.000 A 
ATOM     17 CL   UNL     1       0.236   9.369  23.184  0.00  0.00    +0.000 Cl
ATOM     18  C   UNL     1      -0.523  10.780  21.054  0.00  0.00    +0.000 A 
ATOM     19  N   UNL     1      -0.569  11.227  19.777  0.00  0.00    +0.000 NA
ATOM     20  C   UNL     1       0.219  10.581  18.893  0.00  0.00    +0.000 A 
ATOM     21  C   UNL     1       1.029   9.500  19.224  0.00  0.00    +0.000 A 
ATOM     22 CL   UNL     1       1.988   8.767  17.986  0.00  0.00    +0.000 Cl
ENDBRANCH  13  15
ENDBRANCH   3  13
TORSDOF 4
ENDMDL
MODEL 8
REMARK VINA RESULT:      -7.2      4.311      6.018
REMARK  Name = 
REMARK  4 active torsions:
REMARK  status: ('A' for Active; 'I' for Inactive)
REMARK    1  A    between atoms: C_2  and  C_3
REMARK    2  A    between atoms: C_4  and  C_5
REMARK    3  A    between atoms: N_11  and  N_12
REMARK    4  A    between atoms: N_12  and  C_13
REMARK                            x       y       z     vdW  Elec       q    Type
REMARK                         _______ _______ _______ _____ _____    ______ ____
ROOT
ATOM      1  O   UNL     1       1.685   4.452  21.078  0.00  0.00    +0.000 OA
ATOM      2  C   UNL     1       2.001   5.539  20.604  0.00  0.00    +0.000 C 
ATOM      3  N   UNL     1       1.373   6.701  20.991  0.00  0.00    +0.000 N 
ATOM      4  H   UNL     1       0.817   6.584  21.837  0.00  0.00    +0.000 HD
ENDROOT
BRANCH   2   5
ATOM      5  C   UNL     1       3.069   5.664  19.594  0.00  0.00    +0.000 C 
ATOM      6  C   UNL     1       2.837   5.175  18.371  0.00  0.00    +0.000 C 
BRANCH   6   7
ATOM      7  C   UNL     1       3.876   5.200  17.350  0.00  0.00    +0.000 A 
ATOM      8  C   UNL     1       4.324   3.999  16.790  0.00  0.00    +0.000 A 
ATOM      9  C   UNL     1       5.341   4.006  15.836  0.00  0.00    +0.000 A 
ATOM     10  C   UNL     1       5.913   5.214  15.439  0.00  0.00    +0.000 A 
ATOM     11  C   UNL     1       5.468   6.414  15.993  0.00  0.00    +0.000 A 
ATOM     12  C   UNL     1       4.451   6.409  16.949  0.00  0.00    +0.000 A 
ENDBRANCH   6   7
ENDBRANCH   2   5
BRANCH   3  13
ATOM     13  N   UNL     1       1.964   7.975  20.839  0.00  0.00    +0.000 N 
ATOM     14  H   UNL     1       2.729   7.985  20.156  0.00  0.00    +0.000 HD
BRANCH  13  15
ATOM     15  C   UNL     1       1.033   9.015  20.508  0.00  0.00    +0.000 A 
ATOM     16  C   UNL     1       0.240   9.707  21.447  0.00  0.00    +0.000 A 
ATOM     17 CL   UNL     1       0.245   9.389  23.147  0.00  0.00    +0.000 Cl
ATOM     18  C   UNL     1      -0.582  10.743  21.005  0.00  0.00    +0.000 A 
ATOM     19  N   UNL     1      -0.656  11.168  19.722  0.00  0.00    +0.000 NA
ATOM     20  C   UNL     1       0.142  10.533  18.838  0.00  0.00    +0.000 A 
ATOM     21  C   UNL     1       0.989   9.483  19.176  0.00  0.00    +0.000 A 
ATOM     22 CL   UNL     1       1.955   8.761  17.938  0.00  0.00    +0.000 Cl
ENDBRANCH  13  15
ENDBRANCH   3  13
TORSDOF 4
ENDMDL
MODEL 9
REMARK VINA RESULT:      -7.2      1.207      2.028
REMARK  Name = 
REMARK  4 active torsions:
REMARK  status: ('A' for Active; 'I' for Inactive)
REMARK    1  A    between atoms: C_2  and  C_3
REMARK    2  A    between atoms: C_4  and  C_5
REMARK    3  A    between atoms: N_11  and  N_12
REMARK    4  A    between atoms: N_12  and  C_13
REMARK                            x       y       z     vdW  Elec       q    Type
REMARK                         _______ _______ _______ _____ _____    ______ ____
ROOT
ATOM      1  O   UNL     1       7.708   5.275  18.910  0.00  0.00    +0.000 OA
ATOM      2  C   UNL     1       6.646   4.937  18.398  0.00  0.00    +0.000 C 
ATOM      3  N   UNL     1       5.454   5.048  19.076  0.00  0.00    +0.000 N 
ATOM      4  H   UNL     1       5.529   5.631  19.910  0.00  0.00    +0.000 HD
ENDROOT
BRANCH   2   5
ATOM      5  C   UNL     1       6.584   4.390  17.029  0.00  0.00    +0.000 C 
ATOM      6  C   UNL     1       6.970   5.178  16.020  0.00  0.00    +0.000 C 
BRANCH   6   7
ATOM      7  C   UNL     1       6.863   4.725  14.639  0.00  0.00    +0.000 A 
ATOM      8  C   UNL     1       7.720   5.257  13.669  0.00  0.00    +0.000 A 
ATOM      9  C   UNL     1       7.606   4.856  12.338  0.00  0.00    +0.000 A 
ATOM     10  C   UNL     1       6.637   3.923  11.973  0.00  0.00    +0.000 A 
ATOM     11  C   UNL     1       5.783   3.388  12.937  0.00  0.00    +0.000 A 
ATOM     12  C   UNL     1       5.894   3.788  14.270  0.00  0.00    +0.000 A 
ENDBRANCH   6   7
ENDBRANCH   2   5
BRANCH   3  13
ATOM     13  N   UNL     1       4.205   5.109  18.420  0.00  0.00    +0.000 N 
ATOM     14  H   UNL     1       4.240   4.760  17.456  0.00  0.00    +0.000 HD
BRANCH  13  15
ATOM     15  C   UNL     1       3.145   4.438  19.118  0.00  0.00    +0.000 A 
ATOM     16  C   UNL     1       2.974   3.038  19.156  0.00  0.00    +0.000 A 
ATOM     17 CL   UNL     1       4.001   1.910  18.341  0.00  0.00    +0.000 Cl
ATOM     18  C   UNL     1       1.939   2.505  19.922  0.00  0.00    +0.000 A 
ATOM     19  N   UNL     1       1.086   3.238  20.675  0.00  0.00    +0.000 NA
ATOM     20  C   UNL     1       1.287   4.572  20.672  0.00  0.00    +0.000 A 
ATOM     21  C   UNL     1       2.284   5.203  19.934  0.00  0.00    +0.000 A 
ATOM     22 CL   UNL     1       2.424   6.924  20.024  0.00  0.00    +0.000 Cl
ENDBRANCH  13  15
ENDBRANCH   3  13
TORSDOF 4
ENDMDL
