MODEL 1
REMARK VINA RESULT:      -8.4      0.000      0.000
REMARK  Name = 
REMARK  4 active torsions:
REMARK  status: ('A' for Active; 'I' for Inactive)
REMARK    1  A    between atoms: C_1  and  C_2
REMARK    2  A    between atoms: C_2  and  C_3
REMARK    3  A    between atoms: C_11  and  C_12
REMARK    4  A    between atoms: C_20  and  C_21
REMARK                            x       y       z     vdW  Elec       q    Type
REMARK                         _______ _______ _______ _____ _____    ______ ____
ROOT
ATOM      1  C   UNL     1       2.059   3.018  21.924  0.00  0.00    +0.000 C 
ATOM      2  C   UNL     1       2.100   3.263  20.408  0.00  0.00    +0.000 C 
ATOM      3  C   UNL     1       0.787   2.753  19.785  0.00  0.00    +0.000 C 
ATOM      4  C   UNL     1       2.255   4.736  20.116  0.00  0.00    +0.000 A 
ATOM      5  C   UNL     1       1.466   5.791  20.563  0.00  0.00    +0.000 A 
ATOM      6  C   UNL     1       1.753   7.078  20.111  0.00  0.00    +0.000 A 
ATOM      7  C   UNL     1       2.798   7.290  19.204  0.00  0.00    +0.000 A 
ATOM      8  C   UNL     1       3.587   6.221  18.764  0.00  0.00    +0.000 A 
ATOM      9  C   UNL     1       3.328   4.945  19.244  0.00  0.00    +0.000 A 
ATOM     10  N   UNL     1       4.082   3.774  18.986  0.00  0.00    +0.000 N 
ATOM     11  C   UNL     1       4.292   3.303  17.710  0.00  0.00    +0.000 C 
ATOM     12  N   UNL     1       3.706   2.165  17.432  0.00  0.00    +0.000 NA
ATOM     13  O   UNL     1       3.027   1.757  18.631  0.00  0.00    +0.000 OA
ATOM     14  C   UNL     1       3.378   2.687  19.684  0.00  0.00    +0.000 C 
ATOM     15  C   UNL     1       4.405   2.000  20.594  0.00  0.00    +0.000 C 
ENDROOT
BRANCH  11  16
ATOM     16  C   UNL     1       5.222   3.943  16.760  0.00  0.00    +0.000 A 
ATOM     17  C   UNL     1       6.449   4.418  17.237  0.00  0.00    +0.000 A 
ATOM     18  C   UNL     1       7.359   4.999  16.354  0.00  0.00    +0.000 A 
ATOM     19  C   UNL     1       7.038   5.105  15.000  0.00  0.00    +0.000 A 
ATOM     20  C   UNL     1       5.820   4.616  14.525  0.00  0.00    +0.000 A 
ATOM     21  C   UNL     1       4.910   4.022  15.402  0.00  0.00    +0.000 A 
ENDBRANCH  11  16
TORSDOF 1
ENDMDL
MODEL 2
REMARK VINA RESULT:      -8.3      0.064      1.059
REMARK  Name = 
REMARK  4 active torsions:
REMARK  status: ('A' for Active; 'I' for Inactive)
REMARK    1  A    between atoms: C_1  and  C_2
REMARK    2  A    between atoms: C_2  and  C_3
REMARK    3  A    between atoms: C_11  and  C_12
REMARK    4  A    between atoms: C_20  and  C_21
REMARK                            x       y       z     vdW  Elec       q    Type
REMARK                         _______ _______ _______ _____ _____    ______ ____
ROOT
ATOM      1  C   UNL     1       2.064   3.080  21.943  0.00  0.00    +0.000 C 
ATOM      2  C   UNL     1       2.107   3.306  20.424  0.00  0.00    +0.000 C 
ATOM      3  C   UNL     1       0.786   2.809  19.809  0.00  0.00    +0.000 C 
ATOM      4  C   UNL     1       2.284   4.773  20.115  0.00  0.00    +0.000 A 
ATOM      5  C   UNL     1       1.512   5.845  20.551  0.00  0.00    +0.000 A 
ATOM      6  C   UNL     1       1.818   7.122  20.084  0.00  0.00    +0.000 A 
ATOM      7  C   UNL     1       2.865   7.308  19.173  0.00  0.00    +0.000 A 
ATOM      8  C   UNL     1       3.637   6.222  18.745  0.00  0.00    +0.000 A 
ATOM      9  C   UNL     1       3.360   4.955  19.240  0.00  0.00    +0.000 A 
ATOM     10  N   UNL     1       4.095   3.771  18.995  0.00  0.00    +0.000 N 
ATOM     11  C   UNL     1       4.296   3.281  17.724  0.00  0.00    +0.000 C 
ATOM     12  N   UNL     1       3.693   2.150  17.460  0.00  0.00    +0.000 NA
ATOM     13  O   UNL     1       3.009   1.766  18.664  0.00  0.00    +0.000 OA
ATOM     14  C   UNL     1       3.375   2.702  19.706  0.00  0.00    +0.000 C 
ATOM     15  C   UNL     1       4.392   2.011  20.623  0.00  0.00    +0.000 C 
ENDROOT
BRANCH  11  16
ATOM     16  C   UNL     1       5.234   3.896  16.766  0.00  0.00    +0.000 A 
ATOM     17  C   UNL     1       4.848   4.011  15.425  0.00  0.00    +0.000 A 
ATOM     18  C   UNL     1       5.703   4.617  14.506  0.00  0.00    +0.000 A 
ATOM     19  C   UNL     1       6.941   5.103  14.928  0.00  0.00    +0.000 A 
ATOM     20  C   UNL     1       7.317   5.002  16.268  0.00  0.00    +0.000 A 
ATOM     21  C   UNL     1       6.460   4.407  17.196  0.00  0.00    +0.000 A 
ENDBRANCH  11  16
TORSDOF 1
ENDMDL
MODEL 3
REMARK VINA RESULT:      -7.5      1.944      5.115
REMARK  Name = 
REMARK  4 active torsions:
REMARK  status: ('A' for Active; 'I' for Inactive)
REMARK    1  A    between atoms: C_1  and  C_2
REMARK    2  A    between atoms: C_2  and  C_3
REMARK    3  A    between atoms: C_11  and  C_12
REMARK    4  A    between atoms: C_20  and  C_21
REMARK                            x       y       z     vdW  Elec       q    Type
REMARK                         _______ _______ _______ _____ _____    ______ ____
ROOT
ATOM      1  C   UNL     1       3.425   1.837  17.814  0.00  0.00    +0.000 C 
ATOM      2  C   UNL     1       3.704   3.130  18.595  0.00  0.00    +0.000 C 
ATOM      3  C   UNL     1       4.600   2.801  19.803  0.00  0.00    +0.000 C 
ATOM      4  C   UNL     1       4.401   4.138  17.712  0.00  0.00    +0.000 A 
ATOM      5  C   UNL     1       5.573   3.977  16.980  0.00  0.00    +0.000 A 
ATOM      6  C   UNL     1       6.080   5.071  16.281  0.00  0.00    +0.000 A 
ATOM      7  C   UNL     1       5.430   6.310  16.344  0.00  0.00    +0.000 A 
ATOM      8  C   UNL     1       4.249   6.458  17.080  0.00  0.00    +0.000 A 
ATOM      9  C   UNL     1       3.722   5.359  17.744  0.00  0.00    +0.000 A 
ATOM     10  N   UNL     1       2.494   5.305  18.448  0.00  0.00    +0.000 N 
ATOM     11  C   UNL     1       2.218   6.137  19.509  0.00  0.00    +0.000 C 
ATOM     12  N   UNL     1       2.129   5.546  20.674  0.00  0.00    +0.000 NA
ATOM     13  O   UNL     1       2.333   4.144  20.432  0.00  0.00    +0.000 OA
ATOM     14  C   UNL     1       2.414   3.943  19.001  0.00  0.00    +0.000 C 
ATOM     15  C   UNL     1       1.079   3.349  18.534  0.00  0.00    +0.000 C 
ENDROOT
BRANCH  11  16
ATOM     16  C   UNL     1       1.900   7.568  19.345  0.00  0.00    +0.000 A 
ATOM     17  C   UNL     1       2.024   8.144  18.074  0.00  0.00    +0.000 A 
ATOM     18  C   UNL     1       1.699   9.486  17.886  0.00  0.00    +0.000 A 
ATOM     19  C   UNL     1       1.255  10.250  18.966  0.00  0.00    +0.000 A 
ATOM     20  C   UNL     1       1.118   9.669  20.229  0.00  0.00    +0.000 A 
ATOM     21  C   UNL     1       1.430   8.322  20.420  0.00  0.00    +0.000 A 
ENDBRANCH  11  16
TORSDOF 1
ENDMDL
MODEL 4
REMARK VINA RESULT:      -7.4      1.970      5.067
REMARK  Name = 
REMARK  4 active torsions:
REMARK  status: ('A' for Active; 'I' for Inactive)
REMARK    1  A    between atoms: C_1  and  C_2
REMARK    2  A    between atoms: C_2  and  C_3
REMARK    3  A    between atoms: C_11  and  C_12
REMARK    4  A    between atoms: C_20  and  C_21
REMARK                            x       y       z     vdW  Elec       q    Type
REMARK                         _______ _______ _______ _____ _____    ______ ____
ROOT
ATOM      1  C   UNL     1       3.417   1.860  17.823  0.00  0.00    +0.000 C 
ATOM      2  C   UNL     1       3.694   3.168  18.580  0.00  0.00    +0.000 C 
ATOM      3  C   UNL     1       4.603   2.864  19.785  0.00  0.00    +0.000 C 
ATOM      4  C   UNL     1       4.378   4.165  17.674  0.00  0.00    +0.000 A 
ATOM      5  C   UNL     1       5.544   3.999  16.934  0.00  0.00    +0.000 A 
ATOM      6  C   UNL     1       6.037   5.085  16.214  0.00  0.00    +0.000 A 
ATOM      7  C   UNL     1       5.380   6.320  16.262  0.00  0.00    +0.000 A 
ATOM      8  C   UNL     1       4.205   6.474  17.006  0.00  0.00    +0.000 A 
ATOM      9  C   UNL     1       3.690   5.383  17.693  0.00  0.00    +0.000 A 
ATOM     10  N   UNL     1       2.469   5.332  18.408  0.00  0.00    +0.000 N 
ATOM     11  C   UNL     1       2.197   6.180  19.457  0.00  0.00    +0.000 C 
ATOM     12  N   UNL     1       2.122   5.608  20.632  0.00  0.00    +0.000 NA
ATOM     13  O   UNL     1       2.333   4.203  20.413  0.00  0.00    +0.000 OA
ATOM     14  C   UNL     1       2.403   3.979  18.984  0.00  0.00    +0.000 C 
ATOM     15  C   UNL     1       1.068   3.369  18.538  0.00  0.00    +0.000 C 
ENDROOT
BRANCH  11  16
ATOM     16  C   UNL     1       1.869   7.606  19.272  0.00  0.00    +0.000 A 
ATOM     17  C   UNL     1       1.392   8.335  20.369  0.00  0.00    +0.000 A 
ATOM     18  C   UNL     1       1.104   9.691  20.229  0.00  0.00    +0.000 A 
ATOM     19  C   UNL     1       1.291  10.315  18.995  0.00  0.00    +0.000 A 
ATOM     20  C   UNL     1       1.781   9.590  17.907  0.00  0.00    +0.000 A 
ATOM     21  C   UNL     1       2.083   8.234  18.045  0.00  0.00    +0.000 A 
ENDBRANCH  11  16
TORSDOF 1
ENDMDL
MODEL 5
REMARK VINA RESULT:      -7.2      1.549      2.048
REMARK  Name = 
REMARK  4 active torsions:
REMARK  status: ('A' for Active; 'I' for Inactive)
REMARK    1  A    between atoms: C_1  and  C_2
REMARK    2  A    between atoms: C_2  and  C_3
REMARK    3  A    between atoms: C_11  and  C_12
REMARK    4  A    between atoms: C_20  and  C_21
REMARK                            x       y       z     vdW  Elec       q    Type
REMARK                         _______ _______ _______ _____ _____    ______ ____
ROOT
ATOM      1  C   UNL     1       1.582   2.243  21.021  0.00  0.00    +0.000 C 
ATOM      2  C   UNL     1       2.040   3.057  19.801  0.00  0.00    +0.000 C 
ATOM      3  C   UNL     1       1.161   2.682  18.593  0.00  0.00    +0.000 C 
ATOM      4  C   UNL     1       1.909   4.537  20.076  0.00  0.00    +0.000 A 
ATOM      5  C   UNL     1       0.784   5.239  20.495  0.00  0.00    +0.000 A 
ATOM      6  C   UNL     1       0.870   6.624  20.622  0.00  0.00    +0.000 A 
ATOM      7  C   UNL     1       2.062   7.288  20.307  0.00  0.00    +0.000 A 
ATOM      8  C   UNL     1       3.189   6.570  19.891  0.00  0.00    +0.000 A 
ATOM      9  C   UNL     1       3.116   5.187  19.802  0.00  0.00    +0.000 A 
ATOM     10  N   UNL     1       4.178   4.301  19.497  0.00  0.00    +0.000 N 
ATOM     11  C   UNL     1       4.891   4.386  18.323  0.00  0.00    +0.000 C 
ATOM     12  N   UNL     1       4.725   3.386  17.495  0.00  0.00    +0.000 NA
ATOM     13  O   UNL     1       3.824   2.472  18.141  0.00  0.00    +0.000 OA
ATOM     14  C   UNL     1       3.581   2.956  19.484  0.00  0.00    +0.000 C 
ATOM     15  C   UNL     1       4.403   2.093  20.451  0.00  0.00    +0.000 C 
ENDROOT
BRANCH  11  16
ATOM     16  C   UNL     1       5.885   5.445  18.062  0.00  0.00    +0.000 A 
ATOM     17  C   UNL     1       5.628   6.373  17.045  0.00  0.00    +0.000 A 
ATOM     18  C   UNL     1       6.535   7.402  16.800  0.00  0.00    +0.000 A 
ATOM     19  C   UNL     1       7.696   7.500  17.568  0.00  0.00    +0.000 A 
ATOM     20  C   UNL     1       7.942   6.584  18.592  0.00  0.00    +0.000 A 
ATOM     21  C   UNL     1       7.030   5.558  18.851  0.00  0.00    +0.000 A 
ENDBRANCH  11  16
TORSDOF 1
ENDMDL
MODEL 6
REMARK VINA RESULT:      -7.1      1.511      1.766
REMARK  Name = 
REMARK  4 active torsions:
REMARK  status: ('A' for Active; 'I' for Inactive)
REMARK    1  A    between atoms: C_1  and  C_2
REMARK    2  A    between atoms: C_2  and  C_3
REMARK    3  A    between atoms: C_11  and  C_12
REMARK    4  A    between atoms: C_20  and  C_21
REMARK                            x       y       z     vdW  Elec       q    Type
REMARK                         _______ _______ _______ _____ _____    ______ ____
ROOT
ATOM      1  C   UNL     1       1.641   2.220  21.067  0.00  0.00    +0.000 C 
ATOM      2  C   UNL     1       2.070   3.035  19.837  0.00  0.00    +0.000 C 
ATOM      3  C   UNL     1       1.180   2.642  18.643  0.00  0.00    +0.000 C 
ATOM      4  C   UNL     1       1.923   4.513  20.107  0.00  0.00    +0.000 A 
ATOM      5  C   UNL     1       0.795   5.203  20.539  0.00  0.00    +0.000 A 
ATOM      6  C   UNL     1       0.865   6.590  20.658  0.00  0.00    +0.000 A 
ATOM      7  C   UNL     1       2.042   7.268  20.323  0.00  0.00    +0.000 A 
ATOM      8  C   UNL     1       3.173   6.563  19.895  0.00  0.00    +0.000 A 
ATOM      9  C   UNL     1       3.117   5.178  19.812  0.00  0.00    +0.000 A 
ATOM     10  N   UNL     1       4.187   4.306  19.497  0.00  0.00    +0.000 N 
ATOM     11  C   UNL     1       4.882   4.395  18.312  0.00  0.00    +0.000 C 
ATOM     12  N   UNL     1       4.718   3.388  17.491  0.00  0.00    +0.000 NA
ATOM     13  O   UNL     1       3.839   2.465  18.154  0.00  0.00    +0.000 OA
ATOM     14  C   UNL     1       3.608   2.952  19.498  0.00  0.00    +0.000 C 
ATOM     15  C   UNL     1       4.456   2.105  20.457  0.00  0.00    +0.000 C 
ENDROOT
BRANCH  11  16
ATOM     16  C   UNL     1       5.857   5.466  18.032  0.00  0.00    +0.000 A 
ATOM     17  C   UNL     1       6.989   5.576  18.849  0.00  0.00    +0.000 A 
ATOM     18  C   UNL     1       7.942   6.559  18.586  0.00  0.00    +0.000 A 
ATOM     19  C   UNL     1       7.759   7.431  17.512  0.00  0.00    +0.000 A 
ATOM     20  C   UNL     1       6.637   7.309  16.690  0.00  0.00    +0.000 A 
ATOM     21  C   UNL     1       5.686   6.318  16.941  0.00  0.00    +0.000 A 
ENDBRANCH  11  16
TORSDOF 1
ENDMDL
MODEL 7
REMARK VINA RESULT:      -6.8      5.600      8.281
REMARK  Name = 
REMARK  4 active torsions:
REMARK  status: ('A' for Active; 'I' for Inactive)
REMARK    1  A    between atoms: C_1  and  C_2
REMARK    2  A    between atoms: C_2  and  C_3
REMARK    3  A    between atoms: C_11  and  C_12
REMARK    4  A    between atoms: C_20  and  C_21
REMARK                            x       y       z     vdW  Elec       q    Type
REMARK                         _______ _______ _______ _____ _____    ______ ____
ROOT
ATOM      1  C   UNL     1      -1.106  14.157  19.934  0.00  0.00    +0.000 C 
ATOM      2  C   UNL     1      -1.107  12.672  20.327  0.00  0.00    +0.000 C 
ATOM      3  C   UNL     1      -1.995  12.486  21.571  0.00  0.00    +0.000 C 
ATOM      4  C   UNL     1      -1.645  11.828  19.196  0.00  0.00    +0.000 A 
ATOM      5  C   UNL     1      -2.857  11.957  18.526  0.00  0.00    +0.000 A 
ATOM      6  C   UNL     1      -3.183  11.018  17.549  0.00  0.00    +0.000 A 
ATOM      7  C   UNL     1      -2.314   9.955  17.276  0.00  0.00    +0.000 A 
ATOM      8  C   UNL     1      -1.096   9.838  17.953  0.00  0.00    +0.000 A 
ATOM      9  C   UNL     1      -0.751  10.795  18.898  0.00  0.00    +0.000 A 
ATOM     10  N   UNL     1       0.475  10.888  19.601  0.00  0.00    +0.000 N 
ATOM     11  C   UNL     1       0.945   9.867  20.395  0.00  0.00    +0.000 C 
ATOM     12  N   UNL     1       0.975  10.126  21.678  0.00  0.00    +0.000 NA
ATOM     13  O   UNL     1       0.505  11.476  21.828  0.00  0.00    +0.000 OA
ATOM     14  C   UNL     1       0.326  12.039  20.506  0.00  0.00    +0.000 C 
ATOM     15  C   UNL     1       1.508  12.979  20.232  0.00  0.00    +0.000 C 
ENDROOT
BRANCH  11  16
ATOM     16  C   UNL     1       1.514   8.621  19.847  0.00  0.00    +0.000 A 
ATOM     17  C   UNL     1       2.019   8.629  18.541  0.00  0.00    +0.000 A 
ATOM     18  C   UNL     1       2.590   7.473  18.011  0.00  0.00    +0.000 A 
ATOM     19  C   UNL     1       2.653   6.314  18.785  0.00  0.00    +0.000 A 
ATOM     20  C   UNL     1       2.163   6.313  20.093  0.00  0.00    +0.000 A 
ATOM     21  C   UNL     1       1.601   7.472  20.633  0.00  0.00    +0.000 A 
ENDBRANCH  11  16
TORSDOF 1
ENDMDL
MODEL 8
REMARK VINA RESULT:      -6.6      1.729      5.162
REMARK  Name = 
REMARK  4 active torsions:
REMARK  status: ('A' for Active; 'I' for Inactive)
REMARK    1  A    between atoms: C_1  and  C_2
REMARK    2  A    between atoms: C_2  and  C_3
REMARK    3  A    between atoms: C_11  and  C_12
REMARK    4  A    between atoms: C_20  and  C_21
REMARK                            x       y       z     vdW  Elec       q    Type
REMARK                         _______ _______ _______ _____ _____    ______ ____
ROOT
ATOM      1  C   UNL     1       6.015   6.343  15.361  0.00  0.00    +0.000 C 
ATOM      2  C   UNL     1       5.721   6.128  16.854  0.00  0.00    +0.000 C 
ATOM      3  C   UNL     1       6.883   6.711  17.679  0.00  0.00    +0.000 C 
ATOM      4  C   UNL     1       4.435   6.818  17.242  0.00  0.00    +0.000 A 
ATOM      5  C   UNL     1       4.083   8.151  17.061  0.00  0.00    +0.000 A 
ATOM      6  C   UNL     1       2.860   8.593  17.562  0.00  0.00    +0.000 A 
ATOM      7  C   UNL     1       2.022   7.711  18.255  0.00  0.00    +0.000 A 
ATOM      8  C   UNL     1       2.385   6.371  18.427  0.00  0.00    +0.000 A 
ATOM      9  C   UNL     1       3.585   5.919  17.894  0.00  0.00    +0.000 A 
ATOM     10  N   UNL     1       4.059   4.585  17.887  0.00  0.00    +0.000 N 
ATOM     11  C   UNL     1       4.250   3.868  19.046  0.00  0.00    +0.000 C 
ATOM     12  N   UNL     1       5.497   3.589  19.331  0.00  0.00    +0.000 NA
ATOM     13  O   UNL     1       6.287   4.133  18.262  0.00  0.00    +0.000 OA
ATOM     14  C   UNL     1       5.385   4.639  17.249  0.00  0.00    +0.000 C 
ATOM     15  C   UNL     1       5.365   3.632  16.092  0.00  0.00    +0.000 C 
ENDROOT
BRANCH  11  16
ATOM     16  C   UNL     1       3.136   3.320  19.843  0.00  0.00    +0.000 A 
ATOM     17  C   UNL     1       3.137   3.523  21.229  0.00  0.00    +0.000 A 
ATOM     18  C   UNL     1       2.080   3.043  22.001  0.00  0.00    +0.000 A 
ATOM     19  C   UNL     1       1.028   2.361  21.388  0.00  0.00    +0.000 A 
ATOM     20  C   UNL     1       1.022   2.174  20.005  0.00  0.00    +0.000 A 
ATOM     21  C   UNL     1       2.072   2.663  19.225  0.00  0.00    +0.000 A 
ENDBRANCH  11  16
TORSDOF 1
ENDMDL
MODEL 9
REMARK VINA RESULT:      -6.6      2.391      5.738
REMARK  Name = 
REMARK  4 active torsions:
REMARK  status: ('A' for Active; 'I' for Inactive)
REMARK    1  A    between atoms: C_1  and  C_2
REMARK    2  A    between atoms: C_2  and  C_3
REMARK    3  A    between atoms: C_11  and  C_12
REMARK    4  A    between atoms: C_20  and  C_21
REMARK                            x       y       z     vdW  Elec       q    Type
REMARK                         _______ _______ _______ _____ _____    ______ ____
ROOT
ATOM      1  C   UNL     1       6.782   4.014  16.651  0.00  0.00    +0.000 C 
ATOM      2  C   UNL     1       5.426   4.699  16.419  0.00  0.00    +0.000 C 
ATOM      3  C   UNL     1       5.071   4.608  14.923  0.00  0.00    +0.000 C 
ATOM      4  C   UNL     1       4.349   4.023  17.233  0.00  0.00    +0.000 A 
ATOM      5  C   UNL     1       4.000   2.676  17.252  0.00  0.00    +0.000 A 
ATOM      6  C   UNL     1       2.918   2.278  18.034  0.00  0.00    +0.000 A 
ATOM      7  C   UNL     1       2.188   3.224  18.762  0.00  0.00    +0.000 A 
ATOM      8  C   UNL     1       2.551   4.575  18.740  0.00  0.00    +0.000 A 
ATOM      9  C   UNL     1       3.652   4.969  17.992  0.00  0.00    +0.000 A 
ATOM     10  N   UNL     1       4.217   6.266  17.934  0.00  0.00    +0.000 N 
ATOM     11  C   UNL     1       3.493   7.365  17.531  0.00  0.00    +0.000 C 
ATOM     12  N   UNL     1       3.866   7.893  16.393  0.00  0.00    +0.000 NA
ATOM     13  O   UNL     1       4.987   7.120  15.937  0.00  0.00    +0.000 OA
ATOM     14  C   UNL     1       5.331   6.172  16.976  0.00  0.00    +0.000 C 
ATOM     15  C   UNL     1       6.582   6.694  17.694  0.00  0.00    +0.000 C 
ENDROOT
BRANCH  11  16
ATOM     16  C   UNL     1       2.464   8.002  18.376  0.00  0.00    +0.000 A 
ATOM     17  C   UNL     1       2.311   7.562  19.696  0.00  0.00    +0.000 A 
ATOM     18  C   UNL     1       1.368   8.169  20.525  0.00  0.00    +0.000 A 
ATOM     19  C   UNL     1       0.580   9.209  20.031  0.00  0.00    +0.000 A 
ATOM     20  C   UNL     1       0.745   9.656  18.719  0.00  0.00    +0.000 A 
ATOM     21  C   UNL     1       1.697   9.060  17.888  0.00  0.00    +0.000 A 
ENDBRANCH  11  16
TORSDOF 1
ENDMDL
