MODEL 1
REMARK VINA RESULT:      -7.7      0.000      0.000
REMARK  Name = 
REMARK  5 active torsions:
REMARK  status: ('A' for Active; 'I' for Inactive)
REMARK    1  A    between atoms: C_1  and  C_2
REMARK    2  A    between atoms: C_2  and  N_3
REMARK    3  A    between atoms: C_4  and  C_6
REMARK    4  A    between atoms: C_6  and  C_7
REMARK    5  A    between atoms: C_10  and  C_11
REMARK                            x       y       z     vdW  Elec       q    Type
REMARK                         _______ _______ _______ _____ _____    ______ ____
ROOT
ATOM      1  C   UNL     1       1.367   8.458  20.565  0.00  0.00    +0.000 C 
ENDROOT
BRANCH   1   2
ATOM      2  C   UNL     1       0.722   9.694  20.029  0.00  0.00    +0.000 A 
ATOM      3  C   UNL     1       1.046  10.998  20.339  0.00  0.00    +0.000 A 
ATOM      4  S   UNL     1      -0.017  12.072  19.541  0.00  0.00    +0.000 S 
ATOM      5  C   UNL     1      -0.861  10.735  18.857  0.00  0.00    +0.000 A 
ATOM      6  N   UNL     1      -0.344   9.556  19.145  0.00  0.00    +0.000 NA
BRANCH   5   7
ATOM      7  C   UNL     1      -2.056  10.922  18.022  0.00  0.00    +0.000 A 
ATOM      8  C   UNL     1      -3.241  11.488  18.522  0.00  0.00    +0.000 A 
ATOM      9  C   UNL     1      -4.370  11.622  17.715  0.00  0.00    +0.000 A 
ATOM     10  C   UNL     1      -4.338  11.182  16.393  0.00  0.00    +0.000 A 
ATOM     11  C   UNL     1      -3.177  10.601  15.889  0.00  0.00    +0.000 A 
ATOM     12 CL   UNL     1      -3.143  10.043  14.262  0.00  0.00    +0.000 Cl
ATOM     13  C   UNL     1      -2.045  10.464  16.693  0.00  0.00    +0.000 A 
ENDBRANCH   5   7
ENDBRANCH   1   2
BRANCH   1  15
ATOM     14  N   UNL     1       2.548   6.404  19.867  0.00  0.00    +0.000 N 
ATOM     15  C   UNL     1       2.102   7.660  19.495  0.00  0.00    +0.000 C 
ATOM     16  O   UNL     1       2.224   8.095  18.352  0.00  0.00    +0.000 OA
ATOM     17  H   UNL     1       2.314   6.121  20.822  0.00  0.00    +0.000 HD
BRANCH  14  19
ATOM     18  C   UNL     1       4.300   6.118  18.176  0.00  0.00    +0.000 C 
ATOM     19  C   UNL     1       3.163   5.432  18.953  0.00  0.00    +0.000 C 
ATOM     20  C   UNL     1       2.113   4.942  17.922  0.00  0.00    +0.000 C 
ATOM     21  C   UNL     1       1.305   3.828  18.559  0.00  0.00    +0.000 C 
ATOM     22  S   UNL     1       2.494   2.887  19.480  0.00  0.00    +0.000 S 
ATOM     23  O   UNL     1       3.064   1.894  18.590  0.00  0.00    +0.000 OA
ATOM     24  O   UNL     1       1.909   2.529  20.754  0.00  0.00    +0.000 OA
ATOM     25  C   UNL     1       3.690   4.190  19.707  0.00  0.00    +0.000 C 
ENDBRANCH  14  19
ENDBRANCH   1  15
TORSDOF 4
ENDMDL
MODEL 2
REMARK VINA RESULT:      -7.4      2.500      3.187
REMARK  Name = 
REMARK  5 active torsions:
REMARK  status: ('A' for Active; 'I' for Inactive)
REMARK    1  A    between atoms: C_1  and  C_2
REMARK    2  A    between atoms: C_2  and  N_3
REMARK    3  A    between atoms: C_4  and  C_6
REMARK    4  A    between atoms: C_6  and  C_7
REMARK    5  A    between atoms: C_10  and  C_11
REMARK                            x       y       z     vdW  Elec       q    Type
REMARK                         _______ _______ _______ _____ _____    ______ ____
ROOT
ATOM      1  C   UNL     1       2.693   8.997  17.874  0.00  0.00    +0.000 C 
ENDROOT
BRANCH   1   2
ATOM      2  C   UNL     1       1.403   9.408  18.505  0.00  0.00    +0.000 A 
ATOM      3  C   UNL     1       1.074   9.330  19.843  0.00  0.00    +0.000 A 
ATOM      4  S   UNL     1      -0.539   9.844  20.080  0.00  0.00    +0.000 S 
ATOM      5  C   UNL     1      -0.708  10.108  18.386  0.00  0.00    +0.000 A 
ATOM      6  N   UNL     1       0.389   9.896  17.687  0.00  0.00    +0.000 NA
BRANCH   5   7
ATOM      7  C   UNL     1      -1.984  10.538  17.796  0.00  0.00    +0.000 A 
ATOM      8  C   UNL     1      -2.928  11.290  18.514  0.00  0.00    +0.000 A 
ATOM      9  C   UNL     1      -4.145  11.655  17.939  0.00  0.00    +0.000 A 
ATOM     10  C   UNL     1      -4.444  11.264  16.636  0.00  0.00    +0.000 A 
ATOM     11  C   UNL     1      -3.526  10.502  15.918  0.00  0.00    +0.000 A 
ATOM     12 CL   UNL     1      -3.903  10.006  14.314  0.00  0.00    +0.000 Cl
ATOM     13  C   UNL     1      -2.308  10.134  16.489  0.00  0.00    +0.000 A 
ENDBRANCH   5   7
ENDBRANCH   1   2
BRANCH   1  15
ATOM     14  N   UNL     1       3.923   6.949  17.247  0.00  0.00    +0.000 N 
ATOM     15  C   UNL     1       3.046   7.539  18.141  0.00  0.00    +0.000 C 
ATOM     16  O   UNL     1       2.620   6.954  19.134  0.00  0.00    +0.000 OA
ATOM     17  H   UNL     1       4.273   7.563  16.507  0.00  0.00    +0.000 HD
BRANCH  14  19
ATOM     18  C   UNL     1       3.335   4.577  17.454  0.00  0.00    +0.000 C 
ATOM     19  C   UNL     1       4.484   5.599  17.396  0.00  0.00    +0.000 C 
ATOM     20  C   UNL     1       5.272   5.502  18.728  0.00  0.00    +0.000 C 
ATOM     21  C   UNL     1       6.666   6.052  18.497  0.00  0.00    +0.000 C 
ATOM     22  S   UNL     1       7.115   5.465  16.885  0.00  0.00    +0.000 S 
ATOM     23  O   UNL     1       7.715   4.155  17.037  0.00  0.00    +0.000 OA
ATOM     24  O   UNL     1       7.782   6.536  16.176  0.00  0.00    +0.000 OA
ATOM     25  C   UNL     1       5.462   5.255  16.250  0.00  0.00    +0.000 C 
ENDBRANCH  14  19
ENDBRANCH   1  15
TORSDOF 4
ENDMDL
MODEL 3
REMARK VINA RESULT:      -7.4      1.803      2.171
REMARK  Name = 
REMARK  5 active torsions:
REMARK  status: ('A' for Active; 'I' for Inactive)
REMARK    1  A    between atoms: C_1  and  C_2
REMARK    2  A    between atoms: C_2  and  N_3
REMARK    3  A    between atoms: C_4  and  C_6
REMARK    4  A    between atoms: C_6  and  C_7
REMARK    5  A    between atoms: C_10  and  C_11
REMARK                            x       y       z     vdW  Elec       q    Type
REMARK                         _______ _______ _______ _____ _____    ______ ____
ROOT
ATOM      1  C   UNL     1       2.470   8.563  17.919  0.00  0.00    +0.000 C 
ENDROOT
BRANCH   1   2
ATOM      2  C   UNL     1       1.287   9.287  18.473  0.00  0.00    +0.000 A 
ATOM      3  C   UNL     1       1.094   9.679  19.782  0.00  0.00    +0.000 A 
ATOM      4  S   UNL     1      -0.442  10.407  19.956  0.00  0.00    +0.000 S 
ATOM      5  C   UNL     1      -0.768  10.128  18.287  0.00  0.00    +0.000 A 
ATOM      6  N   UNL     1       0.232   9.589  17.617  0.00  0.00    +0.000 NA
BRANCH   5   7
ATOM      7  C   UNL     1      -2.063  10.476  17.684  0.00  0.00    +0.000 A 
ATOM      8  C   UNL     1      -2.387  10.143  16.359  0.00  0.00    +0.000 A 
ATOM      9  C   UNL     1      -3.611  10.515  15.803  0.00  0.00    +0.000 A 
ATOM     10  C   UNL     1      -4.529  11.238  16.561  0.00  0.00    +0.000 A 
ATOM     11  C   UNL     1      -4.213  11.592  17.871  0.00  0.00    +0.000 A 
ATOM     12 CL   UNL     1      -5.341  12.499  18.802  0.00  0.00    +0.000 Cl
ATOM     13  C   UNL     1      -2.991  11.222  18.431  0.00  0.00    +0.000 A 
ENDBRANCH   5   7
ENDBRANCH   1   2
BRANCH   1  15
ATOM     14  N   UNL     1       3.582   6.358  17.956  0.00  0.00    +0.000 N 
ATOM     15  C   UNL     1       2.723   7.227  18.606  0.00  0.00    +0.000 C 
ATOM     16  O   UNL     1       2.236   6.977  19.707  0.00  0.00    +0.000 OA
ATOM     17  H   UNL     1       3.989   6.712  17.087  0.00  0.00    +0.000 HD
BRANCH  14  19
ATOM     18  C   UNL     1       5.294   5.334  19.381  0.00  0.00    +0.000 C 
ATOM     19  C   UNL     1       4.052   5.080  18.509  0.00  0.00    +0.000 C 
ATOM     20  C   UNL     1       4.468   4.130  17.356  0.00  0.00    +0.000 C 
ATOM     21  C   UNL     1       3.222   3.442  16.835  0.00  0.00    +0.000 C 
ATOM     22  S   UNL     1       2.267   3.089  18.287  0.00  0.00    +0.000 S 
ATOM     23  O   UNL     1       2.697   1.804  18.803  0.00  0.00    +0.000 OA
ATOM     24  O   UNL     1       0.877   3.375  18.002  0.00  0.00    +0.000 OA
ATOM     25  C   UNL     1       2.949   4.368  19.325  0.00  0.00    +0.000 C 
ENDBRANCH  14  19
ENDBRANCH   1  15
TORSDOF 4
ENDMDL
MODEL 4
REMARK VINA RESULT:      -7.2      1.306      1.940
REMARK  Name = 
REMARK  5 active torsions:
REMARK  status: ('A' for Active; 'I' for Inactive)
REMARK    1  A    between atoms: C_1  and  C_2
REMARK    2  A    between atoms: C_2  and  N_3
REMARK    3  A    between atoms: C_4  and  C_6
REMARK    4  A    between atoms: C_6  and  C_7
REMARK    5  A    between atoms: C_10  and  C_11
REMARK                            x       y       z     vdW  Elec       q    Type
REMARK                         _______ _______ _______ _____ _____    ______ ____
ROOT
ATOM      1  C   UNL     1       2.270   8.456  18.206  0.00  0.00    +0.000 C 
ENDROOT
BRANCH   1   2
ATOM      2  C   UNL     1       1.259   9.507  18.535  0.00  0.00    +0.000 A 
ATOM      3  C   UNL     1       1.301  10.393  19.591  0.00  0.00    +0.000 A 
ATOM      4  S   UNL     1      -0.112  11.354  19.605  0.00  0.00    +0.000 S 
ATOM      5  C   UNL     1      -0.705  10.511  18.225  0.00  0.00    +0.000 A 
ATOM      6  N   UNL     1       0.126   9.613  17.734  0.00  0.00    +0.000 NA
BRANCH   5   7
ATOM      7  C   UNL     1      -2.033  10.792  17.660  0.00  0.00    +0.000 A 
ATOM      8  C   UNL     1      -3.049  11.413  18.404  0.00  0.00    +0.000 A 
ATOM      9  C   UNL     1      -4.311  11.637  17.851  0.00  0.00    +0.000 A 
ATOM     10  C   UNL     1      -4.580  11.232  16.546  0.00  0.00    +0.000 A 
ATOM     11  C   UNL     1      -3.588  10.598  15.803  0.00  0.00    +0.000 A 
ATOM     12 CL   UNL     1      -3.927  10.084  14.196  0.00  0.00    +0.000 Cl
ATOM     13  C   UNL     1      -2.326  10.371  16.351  0.00  0.00    +0.000 A 
ENDBRANCH   5   7
ENDBRANCH   1   2
BRANCH   1  15
ATOM     14  N   UNL     1       2.142   6.011  18.523  0.00  0.00    +0.000 N 
ATOM     15  C   UNL     1       2.195   7.251  19.135  0.00  0.00    +0.000 C 
ATOM     16  O   UNL     1       2.249   7.386  20.355  0.00  0.00    +0.000 OA
ATOM     17  H   UNL     1       2.187   6.024  17.501  0.00  0.00    +0.000 HD
BRANCH  14  19
ATOM     18  C   UNL     1       0.970   4.612  20.162  0.00  0.00    +0.000 C 
ATOM     19  C   UNL     1       2.193   4.726  19.235  0.00  0.00    +0.000 C 
ATOM     20  C   UNL     1       3.466   4.665  20.119  0.00  0.00    +0.000 C 
ATOM     21  C   UNL     1       4.628   4.227  19.249  0.00  0.00    +0.000 C 
ATOM     22  S   UNL     1       3.944   2.984  18.185  0.00  0.00    +0.000 S 
ATOM     23  O   UNL     1       4.041   1.708  18.867  0.00  0.00    +0.000 OA
ATOM     24  O   UNL     1       4.469   3.182  16.851  0.00  0.00    +0.000 OA
ATOM     25  C   UNL     1       2.248   3.531  18.256  0.00  0.00    +0.000 C 
ENDBRANCH  14  19
ENDBRANCH   1  15
TORSDOF 4
ENDMDL
MODEL 5
REMARK VINA RESULT:      -7.2      5.671      8.150
REMARK  Name = 
REMARK  5 active torsions:
REMARK  status: ('A' for Active; 'I' for Inactive)
REMARK    1  A    between atoms: C_1  and  C_2
REMARK    2  A    between atoms: C_2  and  N_3
REMARK    3  A    between atoms: C_4  and  C_6
REMARK    4  A    between atoms: C_6  and  C_7
REMARK    5  A    between atoms: C_10  and  C_11
REMARK                            x       y       z     vdW  Elec       q    Type
REMARK                         _______ _______ _______ _____ _____    ______ ____
ROOT
ATOM      1  C   UNL     1       4.265   7.169  17.869  0.00  0.00    +0.000 C 
ENDROOT
BRANCH   1   2
ATOM      2  C   UNL     1       5.317   6.253  17.333  0.00  0.00    +0.000 A 
ATOM      3  C   UNL     1       6.348   5.674  18.043  0.00  0.00    +0.000 A 
ATOM      4  S   UNL     1       7.345   4.766  16.992  0.00  0.00    +0.000 S 
ATOM      5  C   UNL     1       6.360   5.226  15.654  0.00  0.00    +0.000 A 
ATOM      6  N   UNL     1       5.308   5.955  15.974  0.00  0.00    +0.000 NA
BRANCH   5   7
ATOM      7  C   UNL     1       6.688   4.823  14.279  0.00  0.00    +0.000 A 
ATOM      8  C   UNL     1       7.682   5.467  13.525  0.00  0.00    +0.000 A 
ATOM      9  C   UNL     1       7.948   5.084  12.210  0.00  0.00    +0.000 A 
ATOM     10  C   UNL     1       7.216   4.055  11.623  0.00  0.00    +0.000 A 
ATOM     11  C   UNL     1       6.214   3.420  12.353  0.00  0.00    +0.000 A 
ATOM     12 CL   UNL     1       5.299   2.159  11.621  0.00  0.00    +0.000 Cl
ATOM     13  C   UNL     1       5.944   3.799  13.667  0.00  0.00    +0.000 A 
ENDBRANCH   5   7
ENDBRANCH   1   2
BRANCH   1  15
ATOM     14  N   UNL     1       3.051   5.050  18.239  0.00  0.00    +0.000 N 
ATOM     15  C   UNL     1       3.013   6.431  18.328  0.00  0.00    +0.000 C 
ATOM     16  O   UNL     1       2.059   7.038  18.809  0.00  0.00    +0.000 OA
ATOM     17  H   UNL     1       3.932   4.657  17.899  0.00  0.00    +0.000 HD
BRANCH  14  19
ATOM     18  C   UNL     1       0.896   4.021  17.685  0.00  0.00    +0.000 C 
ATOM     19  C   UNL     1       2.004   4.153  18.745  0.00  0.00    +0.000 C 
ATOM     20  C   UNL     1       1.366   4.755  20.023  0.00  0.00    +0.000 C 
ATOM     21  C   UNL     1       2.243   4.394  21.207  0.00  0.00    +0.000 C 
ATOM     22  S   UNL     1       2.752   2.725  20.890  0.00  0.00    +0.000 S 
ATOM     23  O   UNL     1       1.743   1.838  21.433  0.00  0.00    +0.000 OA
ATOM     24  O   UNL     1       4.152   2.598  21.238  0.00  0.00    +0.000 OA
ATOM     25  C   UNL     1       2.570   2.763  19.116  0.00  0.00    +0.000 C 
ENDBRANCH  14  19
ENDBRANCH   1  15
TORSDOF 4
ENDMDL
MODEL 6
REMARK VINA RESULT:      -7.1      3.723      5.209
REMARK  Name = 
REMARK  5 active torsions:
REMARK  status: ('A' for Active; 'I' for Inactive)
REMARK    1  A    between atoms: C_1  and  C_2
REMARK    2  A    between atoms: C_2  and  N_3
REMARK    3  A    between atoms: C_4  and  C_6
REMARK    4  A    between atoms: C_6  and  C_7
REMARK    5  A    between atoms: C_10  and  C_11
REMARK                            x       y       z     vdW  Elec       q    Type
REMARK                         _______ _______ _______ _____ _____    ______ ____
ROOT
ATOM      1  C   UNL     1       3.168   4.856  20.037  0.00  0.00    +0.000 C 
ENDROOT
BRANCH   1   2
ATOM      2  C   UNL     1       2.573   6.180  19.681  0.00  0.00    +0.000 A 
ATOM      3  C   UNL     1       2.694   6.846  18.479  0.00  0.00    +0.000 A 
ATOM      4  S   UNL     1       1.905   8.360  18.566  0.00  0.00    +0.000 S 
ATOM      5  C   UNL     1       1.479   8.048  20.206  0.00  0.00    +0.000 A 
ATOM      6  N   UNL     1       1.838   6.859  20.648  0.00  0.00    +0.000 NA
BRANCH   5   7
ATOM      7  C   UNL     1       0.770   9.044  21.022  0.00  0.00    +0.000 A 
ATOM      8  C   UNL     1       0.494   8.840  22.384  0.00  0.00    +0.000 A 
ATOM      9  C   UNL     1      -0.211   9.789  23.125  0.00  0.00    +0.000 A 
ATOM     10  C   UNL     1      -0.660  10.956  22.513  0.00  0.00    +0.000 A 
ATOM     11  C   UNL     1      -0.410  11.164  21.159  0.00  0.00    +0.000 A 
ATOM     12 CL   UNL     1      -0.980  12.599  20.399  0.00  0.00    +0.000 Cl
ATOM     13  C   UNL     1       0.293  10.218  20.413  0.00  0.00    +0.000 A 
ENDBRANCH   5   7
ENDBRANCH   1   2
BRANCH   1  15
ATOM     14  N   UNL     1       5.096   5.706  18.748  0.00  0.00    +0.000 N 
ATOM     15  C   UNL     1       4.515   4.613  19.367  0.00  0.00    +0.000 C 
ATOM     16  O   UNL     1       5.071   3.519  19.439  0.00  0.00    +0.000 OA
ATOM     17  H   UNL     1       4.575   6.583  18.827  0.00  0.00    +0.000 HD
BRANCH  14  19
ATOM     18  C   UNL     1       7.488   5.714  19.287  0.00  0.00    +0.000 C 
ATOM     19  C   UNL     1       6.442   5.713  18.159  0.00  0.00    +0.000 C 
ATOM     20  C   UNL     1       6.644   7.004  17.324  0.00  0.00    +0.000 C 
ATOM     21  C   UNL     1       6.046   6.779  15.949  0.00  0.00    +0.000 C 
ATOM     22  S   UNL     1       6.475   5.107  15.544  0.00  0.00    +0.000 S 
ATOM     23  O   UNL     1       7.782   5.119  14.917  0.00  0.00    +0.000 OA
ATOM     24  O   UNL     1       5.331   4.477  14.921  0.00  0.00    +0.000 OA
ATOM     25  C   UNL     1       6.661   4.509  17.214  0.00  0.00    +0.000 C 
ENDBRANCH  14  19
ENDBRANCH   1  15
TORSDOF 4
ENDMDL
MODEL 7
REMARK VINA RESULT:      -7.1      6.292      8.475
REMARK  Name = 
REMARK  5 active torsions:
REMARK  status: ('A' for Active; 'I' for Inactive)
REMARK    1  A    between atoms: C_1  and  C_2
REMARK    2  A    between atoms: C_2  and  N_3
REMARK    3  A    between atoms: C_4  and  C_6
REMARK    4  A    between atoms: C_6  and  C_7
REMARK    5  A    between atoms: C_10  and  C_11
REMARK                            x       y       z     vdW  Elec       q    Type
REMARK                         _______ _______ _______ _____ _____    ______ ____
ROOT
ATOM      1  C   UNL     1       4.334   5.931  17.231  0.00  0.00    +0.000 C 
ENDROOT
BRANCH   1   2
ATOM      2  C   UNL     1       5.358   5.448  16.256  0.00  0.00    +0.000 A 
ATOM      3  C   UNL     1       6.703   5.755  16.248  0.00  0.00    +0.000 A 
ATOM      4  S   UNL     1       7.462   5.032  14.898  0.00  0.00    +0.000 S 
ATOM      5  C   UNL     1       5.949   4.381  14.392  0.00  0.00    +0.000 A 
ATOM      6  N   UNL     1       4.946   4.624  15.213  0.00  0.00    +0.000 NA
BRANCH   5   7
ATOM      7  C   UNL     1       5.817   3.617  13.143  0.00  0.00    +0.000 A 
ATOM      8  C   UNL     1       6.883   2.886  12.593  0.00  0.00    +0.000 A 
ATOM      9  C   UNL     1       6.737   2.198  11.388  0.00  0.00    +0.000 A 
ATOM     10  C   UNL     1       5.523   2.237  10.706  0.00  0.00    +0.000 A 
ATOM     11  C   UNL     1       4.463   2.974  11.230  0.00  0.00    +0.000 A 
ATOM     12 CL   UNL     1       2.969   3.035  10.378  0.00  0.00    +0.000 Cl
ATOM     13  C   UNL     1       4.604   3.664  12.433  0.00  0.00    +0.000 A 
ENDBRANCH   5   7
ENDBRANCH   1   2
BRANCH   1  15
ATOM     14  N   UNL     1       3.262   3.826  17.950  0.00  0.00    +0.000 N 
ATOM     15  C   UNL     1       4.030   4.914  18.324  0.00  0.00    +0.000 C 
ATOM     16  O   UNL     1       4.503   5.035  19.452  0.00  0.00    +0.000 OA
ATOM     17  H   UNL     1       2.997   3.795  16.962  0.00  0.00    +0.000 HD
BRANCH  14  19
ATOM     18  C   UNL     1       3.628   1.417  18.232  0.00  0.00    +0.000 C 
ATOM     19  C   UNL     1       2.965   2.677  18.816  0.00  0.00    +0.000 C 
ATOM     20  C   UNL     1       1.434   2.431  18.857  0.00  0.00    +0.000 C 
ATOM     21  C   UNL     1       0.831   3.362  19.891  0.00  0.00    +0.000 C 
ATOM     22  S   UNL     1       2.000   3.366  21.224  0.00  0.00    +0.000 S 
ATOM     23  O   UNL     1       1.676   2.262  22.106  0.00  0.00    +0.000 OA
ATOM     24  O   UNL     1       2.137   4.722  21.711  0.00  0.00    +0.000 OA
ATOM     25  C   UNL     1       3.437   2.917  20.268  0.00  0.00    +0.000 C 
ENDBRANCH  14  19
ENDBRANCH   1  15
TORSDOF 4
ENDMDL
MODEL 8
REMARK VINA RESULT:      -7.1      3.373      4.638
REMARK  Name = 
REMARK  5 active torsions:
REMARK  status: ('A' for Active; 'I' for Inactive)
REMARK    1  A    between atoms: C_1  and  C_2
REMARK    2  A    between atoms: C_2  and  N_3
REMARK    3  A    between atoms: C_4  and  C_6
REMARK    4  A    between atoms: C_6  and  C_7
REMARK    5  A    between atoms: C_10  and  C_11
REMARK                            x       y       z     vdW  Elec       q    Type
REMARK                         _______ _______ _______ _____ _____    ______ ____
ROOT
ATOM      1  C   UNL     1       2.214   6.286  20.167  0.00  0.00    +0.000 C 
ENDROOT
BRANCH   1   2
ATOM      2  C   UNL     1       1.690   7.652  19.867  0.00  0.00    +0.000 A 
ATOM      3  C   UNL     1       2.004   8.438  18.777  0.00  0.00    +0.000 A 
ATOM      4  S   UNL     1       1.220   9.952  18.901  0.00  0.00    +0.000 S 
ATOM      5  C   UNL     1       0.536   9.479  20.410  0.00  0.00    +0.000 A 
ATOM      6  N   UNL     1       0.814   8.242  20.773  0.00  0.00    +0.000 NA
BRANCH   5   7
ATOM      7  C   UNL     1      -0.289  10.399  21.207  0.00  0.00    +0.000 A 
ATOM      8  C   UNL     1      -0.493  10.222  22.585  0.00  0.00    +0.000 A 
ATOM      9  C   UNL     1      -1.308  11.092  23.309  0.00  0.00    +0.000 A 
ATOM     10  C   UNL     1      -1.943  12.151  22.662  0.00  0.00    +0.000 A 
ATOM     11  C   UNL     1      -1.765  12.327  21.292  0.00  0.00    +0.000 A 
ATOM     12 CL   UNL     1      -2.562  13.626  20.492  0.00  0.00    +0.000 Cl
ATOM     13  C   UNL     1      -0.951  11.460  20.565  0.00  0.00    +0.000 A 
ENDBRANCH   5   7
ENDBRANCH   1   2
BRANCH   1  15
ATOM     14  N   UNL     1       4.198   5.485  18.933  0.00  0.00    +0.000 N 
ATOM     15  C   UNL     1       2.819   5.601  18.948  0.00  0.00    +0.000 C 
ATOM     16  O   UNL     1       2.105   5.125  18.068  0.00  0.00    +0.000 OA
ATOM     17  H   UNL     1       4.677   5.847  19.762  0.00  0.00    +0.000 HD
BRANCH  14  19
ATOM     18  C   UNL     1       4.214   3.455  17.559  0.00  0.00    +0.000 C 
ATOM     19  C   UNL     1       4.963   4.751  17.916  0.00  0.00    +0.000 C 
ATOM     20  C   UNL     1       6.350   4.355  18.485  0.00  0.00    +0.000 C 
ATOM     21  C   UNL     1       7.284   5.540  18.327  0.00  0.00    +0.000 C 
ATOM     22  S   UNL     1       6.877   6.219  16.740  0.00  0.00    +0.000 S 
ATOM     23  O   UNL     1       7.669   5.528  15.742  0.00  0.00    +0.000 OA
ATOM     24  O   UNL     1       6.867   7.663  16.847  0.00  0.00    +0.000 OA
ATOM     25  C   UNL     1       5.204   5.606  16.652  0.00  0.00    +0.000 C 
ENDBRANCH  14  19
ENDBRANCH   1  15
TORSDOF 4
ENDMDL
MODEL 9
REMARK VINA RESULT:      -7.0      1.815      2.247
REMARK  Name = 
REMARK  5 active torsions:
REMARK  status: ('A' for Active; 'I' for Inactive)
REMARK    1  A    between atoms: C_1  and  C_2
REMARK    2  A    between atoms: C_2  and  N_3
REMARK    3  A    between atoms: C_4  and  C_6
REMARK    4  A    between atoms: C_6  and  C_7
REMARK    5  A    between atoms: C_10  and  C_11
REMARK                            x       y       z     vdW  Elec       q    Type
REMARK                         _______ _______ _______ _____ _____    ______ ____
ROOT
ATOM      1  C   UNL     1       1.604   8.331  20.309  0.00  0.00    +0.000 C 
ENDROOT
BRANCH   1   2
ATOM      2  C   UNL     1       0.902   9.580  19.886  0.00  0.00    +0.000 A 
ATOM      3  C   UNL     1       1.180  10.866  20.300  0.00  0.00    +0.000 A 
ATOM      4  S   UNL     1       0.063  11.959  19.607  0.00  0.00    +0.000 S 
ATOM      5  C   UNL     1      -0.739  10.650  18.825  0.00  0.00    +0.000 A 
ATOM      6  N   UNL     1      -0.171   9.473  19.007  0.00  0.00    +0.000 NA
BRANCH   5   7
ATOM      7  C   UNL     1      -1.953  10.857  18.023  0.00  0.00    +0.000 A 
ATOM      8  C   UNL     1      -3.112  11.446  18.554  0.00  0.00    +0.000 A 
ATOM      9  C   UNL     1      -4.261  11.599  17.779  0.00  0.00    +0.000 A 
ATOM     10  C   UNL     1      -4.274  11.155  16.458  0.00  0.00    +0.000 A 
ATOM     11  C   UNL     1      -3.139  10.552  15.924  0.00  0.00    +0.000 A 
ATOM     12 CL   UNL     1      -3.161   9.989  14.298  0.00  0.00    +0.000 Cl
ATOM     13  C   UNL     1      -1.988  10.396  16.695  0.00  0.00    +0.000 A 
ENDBRANCH   5   7
ENDBRANCH   1   2
BRANCH   1  15
ATOM     14  N   UNL     1       2.568   6.240  19.418  0.00  0.00    +0.000 N 
ATOM     15  C   UNL     1       2.142   7.525  19.134  0.00  0.00    +0.000 C 
ATOM     16  O   UNL     1       2.129   7.982  17.993  0.00  0.00    +0.000 OA
ATOM     17  H   UNL     1       2.453   5.944  20.390  0.00  0.00    +0.000 HD
BRANCH  14  19
ATOM     18  C   UNL     1       1.760   4.653  17.732  0.00  0.00    +0.000 C 
ATOM     19  C   UNL     1       3.000   5.262  18.410  0.00  0.00    +0.000 C 
ATOM     20  C   UNL     1       3.779   4.109  19.095  0.00  0.00    +0.000 C 
ATOM     21  C   UNL     1       5.218   4.551  19.278  0.00  0.00    +0.000 C 
ATOM     22  S   UNL     1       5.606   5.434  17.789  0.00  0.00    +0.000 S 
ATOM     23  O   UNL     1       6.079   4.475  16.811  0.00  0.00    +0.000 OA
ATOM     24  O   UNL     1       6.369   6.612  18.141  0.00  0.00    +0.000 OA
ATOM     25  C   UNL     1       3.938   5.898  17.359  0.00  0.00    +0.000 C 
ENDBRANCH  14  19
ENDBRANCH   1  15
TORSDOF 4
ENDMDL
