MODEL 1
REMARK VINA RESULT:      -8.1      0.000      0.000
REMARK  Name = 
REMARK  10 active torsions:
REMARK  status: ('A' for Active; 'I' for Inactive)
REMARK    1  A    between atoms: C_1  and  O_2
REMARK    2  A    between atoms: O_2  and  C_3
REMARK    3  A    between atoms: C_6  and  C_7
REMARK    4  A    between atoms: N_9  and  C_10
REMARK    5  A    between atoms: C_10  and  C_11
REMARK    6  A    between atoms: C_11  and  O_13
REMARK    7  A    between atoms: O_13  and  C_14
REMARK    8  A    between atoms: C_14  and  C_15
REMARK    9  A    between atoms: N_21  and  C_22
REMARK   10  A    between atoms: C_27  and  C_28
REMARK                            x       y       z     vdW  Elec       q    Type
REMARK                         _______ _______ _______ _____ _____    ______ ____
ROOT
ATOM      1  C   UNL     1       1.160   8.889  20.581  0.00  0.00    +0.000 A 
ATOM      2  N   UNL     1       1.171   9.804  19.608  0.00  0.00    +0.000 NA
ATOM      3  C   UNL     1       1.771   9.434  18.489  0.00  0.00    +0.000 A 
ATOM      4  N   UNL     1       1.867  10.381  17.501  0.00  0.00    +0.000 N 
ATOM      5  N   UNL     1       2.309   8.241  18.268  0.00  0.00    +0.000 NA
ATOM      6  C   UNL     1       2.242   7.390  19.288  0.00  0.00    +0.000 A 
ATOM      7  N   UNL     1       2.796   6.112  19.117  0.00  0.00    +0.000 N 
ATOM      8  N   UNL     1       1.687   7.679  20.462  0.00  0.00    +0.000 NA
ATOM      9  H   UNL     1       1.271  11.186  17.613  0.00  0.00    +0.000 HD
ATOM     10  H   UNL     1       2.115  10.045  16.585  0.00  0.00    +0.000 HD
ATOM     11  H   UNL     1       3.086   6.000  18.155  0.00  0.00    +0.000 HD
ENDROOT
BRANCH   7  12
ATOM     12  C   UNL     1       2.313   4.926  19.711  0.00  0.00    +0.000 A 
ATOM     13  C   UNL     1       2.567   4.645  21.066  0.00  0.00    +0.000 A 
ATOM     14  C   UNL     1       2.092   3.483  21.673  0.00  0.00    +0.000 A 
ATOM     15  C   UNL     1       1.322   2.589  20.938  0.00  0.00    +0.000 A 
ATOM     16  C   UNL     1       1.040   2.857  19.600  0.00  0.00    +0.000 A 
ATOM     17  C   UNL     1       1.536   4.015  18.969  0.00  0.00    +0.000 A 
ATOM     18  C   UNL     1       1.255   4.217  17.506  0.00  0.00    +0.000 C 
ENDBRANCH   7  12
BRANCH   1  19
ATOM     19  C   UNL     1       0.519   9.224  21.911  0.00  0.00    +0.000 C 
BRANCH  19  20
ATOM     20  O   UNL     1       0.380  10.639  22.054  0.00  0.00    +0.000 OA
BRANCH  20  21
ATOM     21  C   UNL     1      -0.810  11.033  22.566  0.00  0.00    +0.000 C 
ATOM     22  O   UNL     1      -1.271  10.686  23.649  0.00  0.00    +0.000 OA
BRANCH  21  23
ATOM     23  C   UNL     1      -1.518  11.972  21.604  0.00  0.00    +0.000 C 
BRANCH  23  26
ATOM     24  C   UNL     1      -2.648  11.782  19.433  0.00  0.00    +0.000 C 
ATOM     25  O   UNL     1      -3.563  12.506  19.808  0.00  0.00    +0.000 OA
ATOM     26  N   UNL     1      -1.592  11.445  20.259  0.00  0.00    +0.000 N 
ATOM     27  H   UNL     1      -0.802  10.920  19.925  0.00  0.00    +0.000 HD
BRANCH  24  31
ATOM     28  C   UNL     1      -2.802  10.253  15.403  0.00  0.00    +0.000 A 
ATOM     29  C   UNL     1      -3.696  11.227  15.846  0.00  0.00    +0.000 A 
ATOM     30  C   UNL     1      -3.621  11.718  17.150  0.00  0.00    +0.000 A 
ATOM     31  C   UNL     1      -2.660  11.223  18.045  0.00  0.00    +0.000 A 
ATOM     32  C   UNL     1      -1.777  10.232  17.604  0.00  0.00    +0.000 A 
ATOM     33  C   UNL     1      -1.851   9.746  16.287  0.00  0.00    +0.000 A 
BRANCH  28  35
ATOM     34  C   UNL     1      -4.318   9.828  13.642  0.00  0.00    +0.000 C 
ATOM     35  O   UNL     1      -2.975   9.845  14.111  0.00  0.00    +0.000 OA
ENDBRANCH  28  35
ENDBRANCH  24  31
ENDBRANCH  23  26
ENDBRANCH  21  23
ENDBRANCH  20  21
ENDBRANCH  19  20
ENDBRANCH   1  19
TORSDOF 8
ENDMDL
MODEL 2
REMARK VINA RESULT:      -7.9      3.080      4.685
REMARK  Name = 
REMARK  10 active torsions:
REMARK  status: ('A' for Active; 'I' for Inactive)
REMARK    1  A    between atoms: C_1  and  O_2
REMARK    2  A    between atoms: O_2  and  C_3
REMARK    3  A    between atoms: C_6  and  C_7
REMARK    4  A    between atoms: N_9  and  C_10
REMARK    5  A    between atoms: C_10  and  C_11
REMARK    6  A    between atoms: C_11  and  O_13
REMARK    7  A    between atoms: O_13  and  C_14
REMARK    8  A    between atoms: C_14  and  C_15
REMARK    9  A    between atoms: N_21  and  C_22
REMARK   10  A    between atoms: C_27  and  C_28
REMARK                            x       y       z     vdW  Elec       q    Type
REMARK                         _______ _______ _______ _____ _____    ______ ____
ROOT
ATOM      1  C   UNL     1       2.240   5.752  20.365  0.00  0.00    +0.000 A 
ATOM      2  N   UNL     1       1.700   4.678  20.946  0.00  0.00    +0.000 NA
ATOM      3  C   UNL     1       2.274   3.524  20.649  0.00  0.00    +0.000 A 
ATOM      4  N   UNL     1       1.692   2.396  21.170  0.00  0.00    +0.000 N 
ATOM      5  N   UNL     1       3.337   3.378  19.868  0.00  0.00    +0.000 NA
ATOM      6  C   UNL     1       3.814   4.503  19.342  0.00  0.00    +0.000 A 
ATOM      7  N   UNL     1       4.936   4.413  18.504  0.00  0.00    +0.000 N 
ATOM      8  N   UNL     1       3.288   5.705  19.556  0.00  0.00    +0.000 NA
ATOM      9  H   UNL     1       1.035   2.552  21.917  0.00  0.00    +0.000 HD
ATOM     10  H   UNL     1       2.243   1.554  21.135  0.00  0.00    +0.000 HD
ATOM     11  H   UNL     1       5.287   3.465  18.515  0.00  0.00    +0.000 HD
ENDROOT
BRANCH   7  12
ATOM     12  C   UNL     1       5.945   5.394  18.383  0.00  0.00    +0.000 A 
ATOM     13  C   UNL     1       7.030   5.425  19.278  0.00  0.00    +0.000 A 
ATOM     14  C   UNL     1       8.040   6.380  19.171  0.00  0.00    +0.000 A 
ATOM     15  C   UNL     1       7.998   7.311  18.140  0.00  0.00    +0.000 A 
ATOM     16  C   UNL     1       6.944   7.287  17.229  0.00  0.00    +0.000 A 
ATOM     17  C   UNL     1       5.905   6.343  17.342  0.00  0.00    +0.000 A 
ATOM     18  C   UNL     1       4.759   6.409  16.371  0.00  0.00    +0.000 C 
ENDBRANCH   7  12
BRANCH   1  19
ATOM     19  C   UNL     1       1.638   7.118  20.621  0.00  0.00    +0.000 C 
BRANCH  19  20
ATOM     20  O   UNL     1       1.939   8.005  19.542  0.00  0.00    +0.000 OA
BRANCH  20  21
ATOM     21  C   UNL     1       1.360   9.225  19.646  0.00  0.00    +0.000 C 
ATOM     22  O   UNL     1       1.063   9.787  20.696  0.00  0.00    +0.000 OA
BRANCH  21  23
ATOM     23  C   UNL     1       1.114   9.817  18.268  0.00  0.00    +0.000 C 
BRANCH  23  26
ATOM     24  C   UNL     1      -0.889  11.236  18.236  0.00  0.00    +0.000 C 
ATOM     25  O   UNL     1      -0.272  12.176  18.723  0.00  0.00    +0.000 OA
ATOM     26  N   UNL     1      -0.291  10.015  17.986  0.00  0.00    +0.000 N 
ATOM     27  H   UNL     1      -0.775   9.272  17.512  0.00  0.00    +0.000 HD
BRANCH  24  31
ATOM     28  C   UNL     1      -5.098  11.709  17.423  0.00  0.00    +0.000 A 
ATOM     29  C   UNL     1      -4.564  11.995  18.679  0.00  0.00    +0.000 A 
ATOM     30  C   UNL     1      -3.196  11.847  18.918  0.00  0.00    +0.000 A 
ATOM     31  C   UNL     1      -2.341  11.387  17.905  0.00  0.00    +0.000 A 
ATOM     32  C   UNL     1      -2.882  11.083  16.652  0.00  0.00    +0.000 A 
ATOM     33  C   UNL     1      -4.259  11.241  16.414  0.00  0.00    +0.000 A 
BRANCH  28  35
ATOM     34  C   UNL     1      -7.164  11.992  18.534  0.00  0.00    +0.000 C 
ATOM     35  O   UNL     1      -6.448  11.885  17.308  0.00  0.00    +0.000 OA
ENDBRANCH  28  35
ENDBRANCH  24  31
ENDBRANCH  23  26
ENDBRANCH  21  23
ENDBRANCH  20  21
ENDBRANCH  19  20
ENDBRANCH   1  19
TORSDOF 8
ENDMDL
MODEL 3
REMARK VINA RESULT:      -7.9      7.087      9.767
REMARK  Name = 
REMARK  10 active torsions:
REMARK  status: ('A' for Active; 'I' for Inactive)
REMARK    1  A    between atoms: C_1  and  O_2
REMARK    2  A    between atoms: O_2  and  C_3
REMARK    3  A    between atoms: C_6  and  C_7
REMARK    4  A    between atoms: N_9  and  C_10
REMARK    5  A    between atoms: C_10  and  C_11
REMARK    6  A    between atoms: C_11  and  O_13
REMARK    7  A    between atoms: O_13  and  C_14
REMARK    8  A    between atoms: C_14  and  C_15
REMARK    9  A    between atoms: N_21  and  C_22
REMARK   10  A    between atoms: C_27  and  C_28
REMARK                            x       y       z     vdW  Elec       q    Type
REMARK                         _______ _______ _______ _____ _____    ______ ____
ROOT
ATOM      1  C   UNL     1       6.572   5.232  17.670  0.00  0.00    +0.000 A 
ATOM      2  N   UNL     1       6.834   5.305  16.362  0.00  0.00    +0.000 NA
ATOM      3  C   UNL     1       6.147   4.470  15.599  0.00  0.00    +0.000 A 
ATOM      4  N   UNL     1       6.453   4.468  14.261  0.00  0.00    +0.000 N 
ATOM      5  N   UNL     1       5.223   3.624  16.033  0.00  0.00    +0.000 NA
ATOM      6  C   UNL     1       5.020   3.628  17.347  0.00  0.00    +0.000 A 
ATOM      7  N   UNL     1       4.055   2.751  17.867  0.00  0.00    +0.000 N 
ATOM      8  N   UNL     1       5.681   4.407  18.198  0.00  0.00    +0.000 NA
ATOM      9  H   UNL     1       6.991   5.257  13.938  0.00  0.00    +0.000 HD
ATOM     10  H   UNL     1       5.793   4.009  13.655  0.00  0.00    +0.000 HD
ATOM     11  H   UNL     1       3.567   2.301  17.105  0.00  0.00    +0.000 HD
ENDROOT
BRANCH   7  12
ATOM     12  C   UNL     1       3.244   3.005  18.995  0.00  0.00    +0.000 A 
ATOM     13  C   UNL     1       3.587   2.490  20.258  0.00  0.00    +0.000 A 
ATOM     14  C   UNL     1       2.804   2.736  21.385  0.00  0.00    +0.000 A 
ATOM     15  C   UNL     1       1.671   3.533  21.274  0.00  0.00    +0.000 A 
ATOM     16  C   UNL     1       1.323   4.072  20.038  0.00  0.00    +0.000 A 
ATOM     17  C   UNL     1       2.092   3.810  18.887  0.00  0.00    +0.000 A 
ATOM     18  C   UNL     1       1.630   4.362  17.568  0.00  0.00    +0.000 C 
ENDBRANCH   7  12
BRANCH   1  19
ATOM     19  C   UNL     1       7.324   6.129  18.631  0.00  0.00    +0.000 C 
BRANCH  19  20
ATOM     20  O   UNL     1       8.265   6.938  17.923  0.00  0.00    +0.000 OA
BRANCH  20  21
ATOM     21  C   UNL     1       7.916   8.243  17.828  0.00  0.00    +0.000 C 
ATOM     22  O   UNL     1       7.033   8.695  17.105  0.00  0.00    +0.000 OA
BRANCH  21  23
ATOM     23  C   UNL     1       8.781   9.094  18.742  0.00  0.00    +0.000 C 
BRANCH  23  26
ATOM     24  C   UNL     1       9.873  11.293  18.750  0.00  0.00    +0.000 C 
ATOM     25  O   UNL     1      10.756  10.889  19.498  0.00  0.00    +0.000 OA
ATOM     26  N   UNL     1       8.837  10.480  18.330  0.00  0.00    +0.000 N 
ATOM     27  H   UNL     1       8.161  10.788  17.652  0.00  0.00    +0.000 HD
BRANCH  24  31
ATOM     28  C   UNL     1      10.057  15.361  17.330  0.00  0.00    +0.000 A 
ATOM     29  C   UNL     1      11.105  14.468  17.114  0.00  0.00    +0.000 A 
ATOM     30  C   UNL     1      11.021  13.152  17.571  0.00  0.00    +0.000 A 
ATOM     31  C   UNL     1       9.889  12.712  18.275  0.00  0.00    +0.000 A 
ATOM     32  C   UNL     1       8.847  13.616  18.507  0.00  0.00    +0.000 A 
ATOM     33  C   UNL     1       8.934  14.939  18.039  0.00  0.00    +0.000 A 
BRANCH  28  35
ATOM     34  C   UNL     1      11.402  17.303  17.338  0.00  0.00    +0.000 C 
ATOM     35  O   UNL     1      10.254  16.623  16.844  0.00  0.00    +0.000 OA
ENDBRANCH  28  35
ENDBRANCH  24  31
ENDBRANCH  23  26
ENDBRANCH  21  23
ENDBRANCH  20  21
ENDBRANCH  19  20
ENDBRANCH   1  19
TORSDOF 8
ENDMDL
MODEL 4
REMARK VINA RESULT:      -7.9      4.352      8.438
REMARK  Name = 
REMARK  10 active torsions:
REMARK  status: ('A' for Active; 'I' for Inactive)
REMARK    1  A    between atoms: C_1  and  O_2
REMARK    2  A    between atoms: O_2  and  C_3
REMARK    3  A    between atoms: C_6  and  C_7
REMARK    4  A    between atoms: N_9  and  C_10
REMARK    5  A    between atoms: C_10  and  C_11
REMARK    6  A    between atoms: C_11  and  O_13
REMARK    7  A    between atoms: O_13  and  C_14
REMARK    8  A    between atoms: C_14  and  C_15
REMARK    9  A    between atoms: N_21  and  C_22
REMARK   10  A    between atoms: C_27  and  C_28
REMARK                            x       y       z     vdW  Elec       q    Type
REMARK                         _______ _______ _______ _____ _____    ______ ____
ROOT
ATOM      1  C   UNL     1       2.019   7.267  19.546  0.00  0.00    +0.000 A 
ATOM      2  N   UNL     1       3.054   6.868  18.803  0.00  0.00    +0.000 NA
ATOM      3  C   UNL     1       3.324   7.625  17.752  0.00  0.00    +0.000 A 
ATOM      4  N   UNL     1       4.332   7.195  16.927  0.00  0.00    +0.000 N 
ATOM      5  N   UNL     1       2.676   8.736  17.426  0.00  0.00    +0.000 NA
ATOM      6  C   UNL     1       1.668   9.063  18.228  0.00  0.00    +0.000 A 
ATOM      7  N   UNL     1       0.941  10.227  17.933  0.00  0.00    +0.000 N 
ATOM      8  N   UNL     1       1.301   8.350  19.289  0.00  0.00    +0.000 NA
ATOM      9  H   UNL     1       4.934   6.484  17.312  0.00  0.00    +0.000 HD
ATOM     10  H   UNL     1       4.684   7.869  16.267  0.00  0.00    +0.000 HD
ATOM     11  H   UNL     1       1.390  10.716  17.170  0.00  0.00    +0.000 HD
ENDROOT
BRANCH   7  12
ATOM     12  C   UNL     1       0.343  11.080  18.886  0.00  0.00    +0.000 A 
ATOM     13  C   UNL     1       1.131  11.897  19.715  0.00  0.00    +0.000 A 
ATOM     14  C   UNL     1       0.559  12.752  20.657  0.00  0.00    +0.000 A 
ATOM     15  C   UNL     1      -0.824  12.826  20.766  0.00  0.00    +0.000 A 
ATOM     16  C   UNL     1      -1.627  12.041  19.941  0.00  0.00    +0.000 A 
ATOM     17  C   UNL     1      -1.060  11.156  19.003  0.00  0.00    +0.000 A 
ATOM     18  C   UNL     1      -1.974  10.285  18.188  0.00  0.00    +0.000 C 
ENDBRANCH   7  12
BRANCH   1  19
ATOM     19  C   UNL     1       1.614   6.453  20.757  0.00  0.00    +0.000 C 
BRANCH  19  20
ATOM     20  O   UNL     1       2.492   5.338  20.924  0.00  0.00    +0.000 OA
BRANCH  20  21
ATOM     21  C   UNL     1       1.960   4.149  20.554  0.00  0.00    +0.000 C 
ATOM     22  O   UNL     1       0.761   3.904  20.455  0.00  0.00    +0.000 OA
BRANCH  21  23
ATOM     23  C   UNL     1       3.058   3.136  20.280  0.00  0.00    +0.000 C 
BRANCH  23  26
ATOM     24  C   UNL     1       4.028   3.349  18.035  0.00  0.00    +0.000 C 
ATOM     25  O   UNL     1       3.151   2.641  17.553  0.00  0.00    +0.000 OA
ATOM     26  N   UNL     1       4.076   3.641  19.385  0.00  0.00    +0.000 N 
ATOM     27  H   UNL     1       4.745   4.288  19.766  0.00  0.00    +0.000 HD
BRANCH  24  31
ATOM     28  C   UNL     1       7.026   4.951  15.381  0.00  0.00    +0.000 A 
ATOM     29  C   UNL     1       5.814   4.460  14.897  0.00  0.00    +0.000 A 
ATOM     30  C   UNL     1       4.851   3.957  15.774  0.00  0.00    +0.000 A 
ATOM     31  C   UNL     1       5.097   3.917  17.155  0.00  0.00    +0.000 A 
ATOM     32  C   UNL     1       6.320   4.393  17.636  0.00  0.00    +0.000 A 
ATOM     33  C   UNL     1       7.284   4.905  16.749  0.00  0.00    +0.000 A 
BRANCH  28  35
ATOM     34  C   UNL     1       7.603   5.024  13.091  0.00  0.00    +0.000 C 
ATOM     35  O   UNL     1       7.891   5.412  14.430  0.00  0.00    +0.000 OA
ENDBRANCH  28  35
ENDBRANCH  24  31
ENDBRANCH  23  26
ENDBRANCH  21  23
ENDBRANCH  20  21
ENDBRANCH  19  20
ENDBRANCH   1  19
TORSDOF 8
ENDMDL
MODEL 5
REMARK VINA RESULT:      -7.9      3.417      6.104
REMARK  Name = 
REMARK  10 active torsions:
REMARK  status: ('A' for Active; 'I' for Inactive)
REMARK    1  A    between atoms: C_1  and  O_2
REMARK    2  A    between atoms: O_2  and  C_3
REMARK    3  A    between atoms: C_6  and  C_7
REMARK    4  A    between atoms: N_9  and  C_10
REMARK    5  A    between atoms: C_10  and  C_11
REMARK    6  A    between atoms: C_11  and  O_13
REMARK    7  A    between atoms: O_13  and  C_14
REMARK    8  A    between atoms: C_14  and  C_15
REMARK    9  A    between atoms: N_21  and  C_22
REMARK   10  A    between atoms: C_27  and  C_28
REMARK                            x       y       z     vdW  Elec       q    Type
REMARK                         _______ _______ _______ _____ _____    ______ ____
ROOT
ATOM      1  C   UNL     1       1.966   6.296  20.273  0.00  0.00    +0.000 A 
ATOM      2  N   UNL     1       1.181   5.290  20.669  0.00  0.00    +0.000 NA
ATOM      3  C   UNL     1       1.497   4.100  20.184  0.00  0.00    +0.000 A 
ATOM      4  N   UNL     1       0.661   3.062  20.511  0.00  0.00    +0.000 N 
ATOM      5  N   UNL     1       2.528   3.849  19.388  0.00  0.00    +0.000 NA
ATOM      6  C   UNL     1       3.261   4.907  19.055  0.00  0.00    +0.000 A 
ATOM      7  N   UNL     1       4.365   4.706  18.213  0.00  0.00    +0.000 N 
ATOM      8  N   UNL     1       3.006   6.146  19.466  0.00  0.00    +0.000 NA
ATOM      9  H   UNL     1       0.028   3.239  21.275  0.00  0.00    +0.000 HD
ATOM     10  H   UNL     1       1.014   2.136  20.336  0.00  0.00    +0.000 HD
ATOM     11  H   UNL     1       4.496   3.714  18.066  0.00  0.00    +0.000 HD
ENDROOT
BRANCH   7  12
ATOM     12  C   UNL     1       5.569   5.442  18.255  0.00  0.00    +0.000 A 
ATOM     13  C   UNL     1       6.501   5.239  19.289  0.00  0.00    +0.000 A 
ATOM     14  C   UNL     1       7.699   5.951  19.344  0.00  0.00    +0.000 A 
ATOM     15  C   UNL     1       8.002   6.863  18.341  0.00  0.00    +0.000 A 
ATOM     16  C   UNL     1       7.104   7.066  17.295  0.00  0.00    +0.000 A 
ATOM     17  C   UNL     1       5.880   6.372  17.242  0.00  0.00    +0.000 A 
ATOM     18  C   UNL     1       4.921   6.682  16.127  0.00  0.00    +0.000 C 
ENDBRANCH   7  12
BRANCH   1  19
ATOM     19  C   UNL     1       1.672   7.702  20.753  0.00  0.00    +0.000 C 
BRANCH  19  20
ATOM     20  O   UNL     1       1.522   8.586  19.641  0.00  0.00    +0.000 OA
BRANCH  20  21
ATOM     21  C   UNL     1       0.745   9.667  19.890  0.00  0.00    +0.000 C 
ATOM     22  O   UNL     1       0.027  10.233  19.072  0.00  0.00    +0.000 OA
BRANCH  21  23
ATOM     23  C   UNL     1       0.887  10.102  21.339  0.00  0.00    +0.000 C 
BRANCH  23  26
ATOM     24  C   UNL     1      -0.848  11.177  22.704  0.00  0.00    +0.000 C 
ATOM     25  O   UNL     1      -1.008  10.157  23.363  0.00  0.00    +0.000 OA
ATOM     26  N   UNL     1       0.061  11.245  21.664  0.00  0.00    +0.000 N 
ATOM     27  H   UNL     1       0.251  12.105  21.179  0.00  0.00    +0.000 HD
BRANCH  24  31
ATOM     28  C   UNL     1      -3.306  14.606  23.597  0.00  0.00    +0.000 A 
ATOM     29  C   UNL     1      -3.811  13.309  23.675  0.00  0.00    +0.000 A 
ATOM     30  C   UNL     1      -2.996  12.212  23.394  0.00  0.00    +0.000 A 
ATOM     31  C   UNL     1      -1.660  12.397  23.007  0.00  0.00    +0.000 A 
ATOM     32  C   UNL     1      -1.160  13.700  22.911  0.00  0.00    +0.000 A 
ATOM     33  C   UNL     1      -1.984  14.802  23.202  0.00  0.00    +0.000 A 
BRANCH  28  35
ATOM     34  C   UNL     1      -3.862  16.425  24.999  0.00  0.00    +0.000 C 
ATOM     35  O   UNL     1      -4.197  15.600  23.889  0.00  0.00    +0.000 OA
ENDBRANCH  28  35
ENDBRANCH  24  31
ENDBRANCH  23  26
ENDBRANCH  21  23
ENDBRANCH  20  21
ENDBRANCH  19  20
ENDBRANCH   1  19
TORSDOF 8
ENDMDL
MODEL 6
REMARK VINA RESULT:      -7.8      5.942      9.735
REMARK  Name = 
REMARK  10 active torsions:
REMARK  status: ('A' for Active; 'I' for Inactive)
REMARK    1  A    between atoms: C_1  and  O_2
REMARK    2  A    between atoms: O_2  and  C_3
REMARK    3  A    between atoms: C_6  and  C_7
REMARK    4  A    between atoms: N_9  and  C_10
REMARK    5  A    between atoms: C_10  and  C_11
REMARK    6  A    between atoms: C_11  and  O_13
REMARK    7  A    between atoms: O_13  and  C_14
REMARK    8  A    between atoms: C_14  and  C_15
REMARK    9  A    between atoms: N_21  and  C_22
REMARK   10  A    between atoms: C_27  and  C_28
REMARK                            x       y       z     vdW  Elec       q    Type
REMARK                         _______ _______ _______ _____ _____    ______ ____
ROOT
ATOM      1  C   UNL     1       3.870   4.545  19.536  0.00  0.00    +0.000 A 
ATOM      2  N   UNL     1       3.354   3.341  19.798  0.00  0.00    +0.000 NA
ATOM      3  C   UNL     1       2.174   3.348  20.394  0.00  0.00    +0.000 A 
ATOM      4  N   UNL     1       1.656   2.127  20.746  0.00  0.00    +0.000 N 
ATOM      5  N   UNL     1       1.480   4.436  20.704  0.00  0.00    +0.000 NA
ATOM      6  C   UNL     1       2.066   5.589  20.396  0.00  0.00    +0.000 A 
ATOM      7  N   UNL     1       1.383   6.777  20.702  0.00  0.00    +0.000 N 
ATOM      8  N   UNL     1       3.263   5.686  19.824  0.00  0.00    +0.000 NA
ATOM      9  H   UNL     1       2.093   1.329  20.312  0.00  0.00    +0.000 HD
ATOM     10  H   UNL     1       0.679   2.111  20.990  0.00  0.00    +0.000 HD
ATOM     11  H   UNL     1       0.455   6.552  21.034  0.00  0.00    +0.000 HD
ENDROOT
BRANCH   7  12
ATOM     12  C   UNL     1       1.449   7.972  19.953  0.00  0.00    +0.000 A 
ATOM     13  C   UNL     1       1.970   7.975  18.647  0.00  0.00    +0.000 A 
ATOM     14  C   UNL     1       2.037   9.143  17.888  0.00  0.00    +0.000 A 
ATOM     15  C   UNL     1       1.551  10.334  18.416  0.00  0.00    +0.000 A 
ATOM     16  C   UNL     1       1.011  10.351  19.700  0.00  0.00    +0.000 A 
ATOM     17  C   UNL     1       0.962   9.183  20.485  0.00  0.00    +0.000 A 
ATOM     18  C   UNL     1       0.430   9.277  21.888  0.00  0.00    +0.000 C 
ENDBRANCH   7  12
BRANCH   1  19
ATOM     19  C   UNL     1       5.230   4.645  18.877  0.00  0.00    +0.000 C 
BRANCH  19  20
ATOM     20  O   UNL     1       5.849   5.891  19.199  0.00  0.00    +0.000 OA
BRANCH  20  21
ATOM     21  C   UNL     1       7.189   5.817  19.382  0.00  0.00    +0.000 C 
ATOM     22  O   UNL     1       7.752   5.217  20.293  0.00  0.00    +0.000 OA
BRANCH  21  23
ATOM     23  C   UNL     1       7.918   6.593  18.299  0.00  0.00    +0.000 C 
BRANCH  23  26
ATOM     24  C   UNL     1       8.436   8.992  18.232  0.00  0.00    +0.000 C 
ATOM     25  O   UNL     1       7.711   9.155  17.258  0.00  0.00    +0.000 OA
ATOM     26  N   UNL     1       8.617   7.751  18.813  0.00  0.00    +0.000 N 
ATOM     27  H   UNL     1       9.145   7.632  19.661  0.00  0.00    +0.000 HD
BRANCH  24  31
ATOM     28  C   UNL     1      10.603  12.379  19.793  0.00  0.00    +0.000 A 
ATOM     29  C   UNL     1      10.595  12.086  18.430  0.00  0.00    +0.000 A 
ATOM     30  C   UNL     1       9.877  10.992  17.943  0.00  0.00    +0.000 A 
ATOM     31  C   UNL     1       9.170  10.156  18.821  0.00  0.00    +0.000 A 
ATOM     32  C   UNL     1       9.194  10.441  20.189  0.00  0.00    +0.000 A 
ATOM     33  C   UNL     1       9.913  11.548  20.674  0.00  0.00    +0.000 A 
BRANCH  28  35
ATOM     34  C   UNL     1      10.668  14.720  20.098  0.00  0.00    +0.000 C 
ATOM     35  O   UNL     1      11.343  13.469  20.153  0.00  0.00    +0.000 OA
ENDBRANCH  28  35
ENDBRANCH  24  31
ENDBRANCH  23  26
ENDBRANCH  21  23
ENDBRANCH  20  21
ENDBRANCH  19  20
ENDBRANCH   1  19
TORSDOF 8
ENDMDL
MODEL 7
REMARK VINA RESULT:      -7.8      2.995      4.471
REMARK  Name = 
REMARK  10 active torsions:
REMARK  status: ('A' for Active; 'I' for Inactive)
REMARK    1  A    between atoms: C_1  and  O_2
REMARK    2  A    between atoms: O_2  and  C_3
REMARK    3  A    between atoms: C_6  and  C_7
REMARK    4  A    between atoms: N_9  and  C_10
REMARK    5  A    between atoms: C_10  and  C_11
REMARK    6  A    between atoms: C_11  and  O_13
REMARK    7  A    between atoms: O_13  and  C_14
REMARK    8  A    between atoms: C_14  and  C_15
REMARK    9  A    between atoms: N_21  and  C_22
REMARK   10  A    between atoms: C_27  and  C_28
REMARK                            x       y       z     vdW  Elec       q    Type
REMARK                         _______ _______ _______ _____ _____    ______ ____
ROOT
ATOM      1  C   UNL     1       4.822   6.074  16.987  0.00  0.00    +0.000 A 
ATOM      2  N   UNL     1       5.283   5.833  15.757  0.00  0.00    +0.000 NA
ATOM      3  C   UNL     1       5.430   4.555  15.447  0.00  0.00    +0.000 A 
ATOM      4  N   UNL     1       5.976   4.280  14.218  0.00  0.00    +0.000 N 
ATOM      5  N   UNL     1       5.124   3.537  16.240  0.00  0.00    +0.000 NA
ATOM      6  C   UNL     1       4.661   3.871  17.441  0.00  0.00    +0.000 A 
ATOM      7  N   UNL     1       4.322   2.836  18.327  0.00  0.00    +0.000 N 
ATOM      8  N   UNL     1       4.507   5.125  17.856  0.00  0.00    +0.000 NA
ATOM      9  H   UNL     1       5.993   5.051  13.569  0.00  0.00    +0.000 HD
ATOM     10  H   UNL     1       5.882   3.332  13.893  0.00  0.00    +0.000 HD
ATOM     11  H   UNL     1       4.392   1.949  17.848  0.00  0.00    +0.000 HD
ENDROOT
BRANCH   7  12
ATOM     12  C   UNL     1       3.287   2.889  19.285  0.00  0.00    +0.000 A 
ATOM     13  C   UNL     1       3.549   2.631  20.643  0.00  0.00    +0.000 A 
ATOM     14  C   UNL     1       2.542   2.685  21.606  0.00  0.00    +0.000 A 
ATOM     15  C   UNL     1       1.249   3.030  21.229  0.00  0.00    +0.000 A 
ATOM     16  C   UNL     1       0.969   3.309  19.893  0.00  0.00    +0.000 A 
ATOM     17  C   UNL     1       1.973   3.233  18.908  0.00  0.00    +0.000 A 
ATOM     18  C   UNL     1       1.598   3.479  17.474  0.00  0.00    +0.000 C 
ENDBRANCH   7  12
BRANCH   1  19
ATOM     19  C   UNL     1       4.642   7.505  17.448  0.00  0.00    +0.000 C 
BRANCH  19  20
ATOM     20  O   UNL     1       3.383   8.016  17.007  0.00  0.00    +0.000 OA
BRANCH  20  21
ATOM     21  C   UNL     1       2.491   8.232  18.002  0.00  0.00    +0.000 C 
ATOM     22  O   UNL     1       2.135   7.403  18.834  0.00  0.00    +0.000 OA
BRANCH  21  23
ATOM     23  C   UNL     1       1.970   9.659  17.950  0.00  0.00    +0.000 C 
BRANCH  23  26
ATOM     24  C   UNL     1      -0.181  10.735  18.443  0.00  0.00    +0.000 C 
ATOM     25  O   UNL     1       0.365  11.584  19.138  0.00  0.00    +0.000 OA
ATOM     26  N   UNL     1       0.530   9.725  17.822  0.00  0.00    +0.000 N 
ATOM     27  H   UNL     1       0.093   9.080  17.187  0.00  0.00    +0.000 HD
BRANCH  24  31
ATOM     28  C   UNL     1      -4.466  10.935  18.002  0.00  0.00    +0.000 A 
ATOM     29  C   UNL     1      -3.770  11.871  18.765  0.00  0.00    +0.000 A 
ATOM     30  C   UNL     1      -2.381  11.796  18.886  0.00  0.00    +0.000 A 
ATOM     31  C   UNL     1      -1.666  10.764  18.258  0.00  0.00    +0.000 A 
ATOM     32  C   UNL     1      -2.369   9.816  17.508  0.00  0.00    +0.000 A 
ATOM     33  C   UNL     1      -3.767   9.900  17.384  0.00  0.00    +0.000 A 
BRANCH  28  35
ATOM     34  C   UNL     1      -6.574  10.281  18.844  0.00  0.00    +0.000 C 
ATOM     35  O   UNL     1      -5.821  11.105  17.962  0.00  0.00    +0.000 OA
ENDBRANCH  28  35
ENDBRANCH  24  31
ENDBRANCH  23  26
ENDBRANCH  21  23
ENDBRANCH  20  21
ENDBRANCH  19  20
ENDBRANCH   1  19
TORSDOF 8
ENDMDL
MODEL 8
REMARK VINA RESULT:      -7.8      4.281      6.091
REMARK  Name = 
REMARK  10 active torsions:
REMARK  status: ('A' for Active; 'I' for Inactive)
REMARK    1  A    between atoms: C_1  and  O_2
REMARK    2  A    between atoms: O_2  and  C_3
REMARK    3  A    between atoms: C_6  and  C_7
REMARK    4  A    between atoms: N_9  and  C_10
REMARK    5  A    between atoms: C_10  and  C_11
REMARK    6  A    between atoms: C_11  and  O_13
REMARK    7  A    between atoms: O_13  and  C_14
REMARK    8  A    between atoms: C_14  and  C_15
REMARK    9  A    between atoms: N_21  and  C_22
REMARK   10  A    between atoms: C_27  and  C_28
REMARK                            x       y       z     vdW  Elec       q    Type
REMARK                         _______ _______ _______ _____ _____    ______ ____
ROOT
ATOM      1  C   UNL     1       1.960   6.165  20.251  0.00  0.00    +0.000 A 
ATOM      2  N   UNL     1       1.187   5.138  20.615  0.00  0.00    +0.000 NA
ATOM      3  C   UNL     1       1.520   3.967  20.099  0.00  0.00    +0.000 A 
ATOM      4  N   UNL     1       0.696   2.909  20.393  0.00  0.00    +0.000 N 
ATOM      5  N   UNL     1       2.557   3.751  19.301  0.00  0.00    +0.000 NA
ATOM      6  C   UNL     1       3.277   4.828  19.000  0.00  0.00    +0.000 A 
ATOM      7  N   UNL     1       4.387   4.664  18.157  0.00  0.00    +0.000 N 
ATOM      8  N   UNL     1       3.005   6.051  19.445  0.00  0.00    +0.000 NA
ATOM      9  H   UNL     1       0.059   3.057  21.159  0.00  0.00    +0.000 HD
ATOM     10  H   UNL     1       1.062   1.992  20.194  0.00  0.00    +0.000 HD
ATOM     11  H   UNL     1       4.532   3.679  17.982  0.00  0.00    +0.000 HD
ENDROOT
BRANCH   7  12
ATOM     12  C   UNL     1       5.581   5.414  18.224  0.00  0.00    +0.000 A 
ATOM     13  C   UNL     1       6.503   5.208  19.267  0.00  0.00    +0.000 A 
ATOM     14  C   UNL     1       7.691   5.933  19.347  0.00  0.00    +0.000 A 
ATOM     15  C   UNL     1       7.995   6.864  18.361  0.00  0.00    +0.000 A 
ATOM     16  C   UNL     1       7.108   7.071  17.307  0.00  0.00    +0.000 A 
ATOM     17  C   UNL     1       5.893   6.363  17.229  0.00  0.00    +0.000 A 
ATOM     18  C   UNL     1       4.944   6.677  16.107  0.00  0.00    +0.000 C 
ENDBRANCH   7  12
BRANCH   1  19
ATOM     19  C   UNL     1       1.646   7.553  20.768  0.00  0.00    +0.000 C 
BRANCH  19  20
ATOM     20  O   UNL     1       1.734   8.510  19.711  0.00  0.00    +0.000 OA
BRANCH  20  21
ATOM     21  C   UNL     1       0.809   9.497  19.775  0.00  0.00    +0.000 C 
ATOM     22  O   UNL     1       0.133   9.779  20.761  0.00  0.00    +0.000 OA
BRANCH  21  23
ATOM     23  C   UNL     1       0.707  10.218  18.442  0.00  0.00    +0.000 C 
BRANCH  23  26
ATOM     24  C   UNL     1       0.813  12.668  18.569  0.00  0.00    +0.000 C 
ATOM     25  O   UNL     1      -0.402  12.747  18.705  0.00  0.00    +0.000 OA
ATOM     26  N   UNL     1       1.458  11.455  18.416  0.00  0.00    +0.000 N 
ATOM     27  H   UNL     1       2.461  11.385  18.388  0.00  0.00    +0.000 HD
BRANCH  24  31
ATOM     28  C   UNL     1       3.329  16.170  18.490  0.00  0.00    +0.000 A 
ATOM     29  C   UNL     1       3.827  14.910  18.162  0.00  0.00    +0.000 A 
ATOM     30  C   UNL     1       2.993  13.790  18.181  0.00  0.00    +0.000 A 
ATOM     31  C   UNL     1       1.645  13.912  18.554  0.00  0.00    +0.000 A 
ATOM     32  C   UNL     1       1.153  15.174  18.901  0.00  0.00    +0.000 A 
ATOM     33  C   UNL     1       1.996  16.299  18.873  0.00  0.00    +0.000 A 
BRANCH  28  35
ATOM     34  C   UNL     1       5.551  16.868  18.890  0.00  0.00    +0.000 C 
ATOM     35  O   UNL     1       4.238  17.188  18.442  0.00  0.00    +0.000 OA
ENDBRANCH  28  35
ENDBRANCH  24  31
ENDBRANCH  23  26
ENDBRANCH  21  23
ENDBRANCH  20  21
ENDBRANCH  19  20
ENDBRANCH   1  19
TORSDOF 8
ENDMDL
MODEL 9
REMARK VINA RESULT:      -7.8      3.079      5.279
REMARK  Name = 
REMARK  10 active torsions:
REMARK  status: ('A' for Active; 'I' for Inactive)
REMARK    1  A    between atoms: C_1  and  O_2
REMARK    2  A    between atoms: O_2  and  C_3
REMARK    3  A    between atoms: C_6  and  C_7
REMARK    4  A    between atoms: N_9  and  C_10
REMARK    5  A    between atoms: C_10  and  C_11
REMARK    6  A    between atoms: C_11  and  O_13
REMARK    7  A    between atoms: O_13  and  C_14
REMARK    8  A    between atoms: C_14  and  C_15
REMARK    9  A    between atoms: N_21  and  C_22
REMARK   10  A    between atoms: C_27  and  C_28
REMARK                            x       y       z     vdW  Elec       q    Type
REMARK                         _______ _______ _______ _____ _____    ______ ____
ROOT
ATOM      1  C   UNL     1       4.774   6.554  17.223  0.00  0.00    +0.000 A 
ATOM      2  N   UNL     1       5.722   6.430  16.290  0.00  0.00    +0.000 NA
ATOM      3  C   UNL     1       6.434   5.316  16.350  0.00  0.00    +0.000 A 
ATOM      4  N   UNL     1       7.466   5.198  15.454  0.00  0.00    +0.000 N 
ATOM      5  N   UNL     1       6.246   4.336  17.224  0.00  0.00    +0.000 NA
ATOM      6  C   UNL     1       5.274   4.540  18.108  0.00  0.00    +0.000 A 
ATOM      7  N   UNL     1       5.028   3.539  19.061  0.00  0.00    +0.000 N 
ATOM      8  N   UNL     1       4.525   5.638  18.147  0.00  0.00    +0.000 NA
ATOM      9  H   UNL     1       7.445   5.844  14.681  0.00  0.00    +0.000 HD
ATOM     10  H   UNL     1       7.859   4.277  15.347  0.00  0.00    +0.000 HD
ATOM     11  H   UNL     1       5.596   2.730  18.849  0.00  0.00    +0.000 HD
ENDROOT
BRANCH   7  12
ATOM     12  C   UNL     1       3.766   3.225  19.608  0.00  0.00    +0.000 A 
ATOM     13  C   UNL     1       3.402   3.682  20.888  0.00  0.00    +0.000 A 
ATOM     14  C   UNL     1       2.157   3.388  21.443  0.00  0.00    +0.000 A 
ATOM     15  C   UNL     1       1.234   2.652  20.710  0.00  0.00    +0.000 A 
ATOM     16  C   UNL     1       1.564   2.207  19.431  0.00  0.00    +0.000 A 
ATOM     17  C   UNL     1       2.828   2.475  18.870  0.00  0.00    +0.000 A 
ATOM     18  C   UNL     1       3.151   1.911  17.515  0.00  0.00    +0.000 C 
ENDBRANCH   7  12
BRANCH   1  19
ATOM     19  C   UNL     1       3.921   7.804  17.255  0.00  0.00    +0.000 C 
BRANCH  19  20
ATOM     20  O   UNL     1       2.671   7.538  17.895  0.00  0.00    +0.000 OA
BRANCH  20  21
ATOM     21  C   UNL     1       1.993   8.647  18.275  0.00  0.00    +0.000 C 
ATOM     22  O   UNL     1       1.678   9.578  17.539  0.00  0.00    +0.000 OA
BRANCH  21  23
ATOM     23  C   UNL     1       1.673   8.593  19.759  0.00  0.00    +0.000 C 
BRANCH  23  26
ATOM     24  C   UNL     1       0.503  10.010  21.387  0.00  0.00    +0.000 C 
ATOM     25  O   UNL     1       1.352   9.786  22.242  0.00  0.00    +0.000 OA
ATOM     26  N   UNL     1       0.566   9.451  20.125  0.00  0.00    +0.000 N 
ATOM     27  H   UNL     1      -0.084   9.700  19.399  0.00  0.00    +0.000 HD
BRANCH  24  31
ATOM     28  C   UNL     1      -2.829  12.638  22.153  0.00  0.00    +0.000 A 
ATOM     29  C   UNL     1      -2.277  12.517  20.878  0.00  0.00    +0.000 A 
ATOM     30  C   UNL     1      -1.207  11.651  20.649  0.00  0.00    +0.000 A 
ATOM     31  C   UNL     1      -0.654  10.906  21.702  0.00  0.00    +0.000 A 
ATOM     32  C   UNL     1      -1.197  11.044  22.983  0.00  0.00    +0.000 A 
ATOM     33  C   UNL     1      -2.280  11.912  23.207  0.00  0.00    +0.000 A 
BRANCH  28  35
ATOM     34  C   UNL     1      -4.466  13.920  21.030  0.00  0.00    +0.000 C 
ATOM     35  O   UNL     1      -3.868  13.519  22.258  0.00  0.00    +0.000 OA
ENDBRANCH  28  35
ENDBRANCH  24  31
ENDBRANCH  23  26
ENDBRANCH  21  23
ENDBRANCH  20  21
ENDBRANCH  19  20
ENDBRANCH   1  19
TORSDOF 8
ENDMDL
