MODEL 1
REMARK VINA RESULT:      -8.4      0.000      0.000
REMARK  Name = 
REMARK  7 active torsions:
REMARK  status: ('A' for Active; 'I' for Inactive)
REMARK    1  A    between atoms: N_1  and  C_2
REMARK    2  A    between atoms: C_3  and  C_4
REMARK    3  A    between atoms: C_4  and  C_6
REMARK    4  A    between atoms: C_6  and  S_7
REMARK    5  A    between atoms: S_7  and  C_8
REMARK    6  A    between atoms: C_11  and  C_12
REMARK    7  A    between atoms: N_24  and  C_25
REMARK                            x       y       z     vdW  Elec       q    Type
REMARK                         _______ _______ _______ _____ _____    ______ ____
ROOT
ATOM      1  C   UNL     1       5.744   4.374  16.662  0.00  0.00    +0.000 C 
ATOM      2  O   UNL     1       5.402   3.623  15.743  0.00  0.00    +0.000 OA
ENDROOT
BRANCH   1   4
ATOM      3  C   UNL     1       4.203   4.169  18.660  0.00  0.00    +0.000 A 
ATOM      4  C   UNL     1       4.685   4.910  17.622  0.00  0.00    +0.000 A 
ATOM      5  C   UNL     1       4.161   6.289  17.455  0.00  0.00    +0.000 A 
ATOM      6  O   UNL     1       4.446   7.007  16.503  0.00  0.00    +0.000 OA
ATOM      7  N   UNL     1       3.342   6.769  18.421  0.00  0.00    +0.000 N 
ATOM      8  C   UNL     1       2.807   6.039  19.429  0.00  0.00    +0.000 A 
ATOM      9  O   UNL     1       2.000   6.574  20.190  0.00  0.00    +0.000 OA
ATOM     10  N   UNL     1       3.226   4.716  19.514  0.00  0.00    +0.000 N 
ATOM     11  H   UNL     1       2.996   7.710  18.311  0.00  0.00    +0.000 HD
BRANCH   3  12
ATOM     12  N   UNL     1       4.644   2.874  18.909  0.00  0.00    +0.000 N 
ATOM     13  H   UNL     1       5.600   2.830  19.282  0.00  0.00    +0.000 HD
ATOM     14  H   UNL     1       3.993   2.330  19.465  0.00  0.00    +0.000 HD
ENDBRANCH   3  12
BRANCH  10  15
ATOM     15  C   UNL     1       2.652   3.927  20.599  0.00  0.00    +0.000 C 
ATOM     16  C   UNL     1       1.168   3.602  20.589  0.00  0.00    +0.000 C 
ATOM     17  C   UNL     1       2.170   2.501  20.485  0.00  0.00    +0.000 C 
ENDBRANCH  10  15
ENDBRANCH   1   4
BRANCH   1  18
ATOM     18  C   UNL     1       7.208   4.763  16.907  0.00  0.00    +0.000 C 
BRANCH  18  19
ATOM     19  S   UNL     1       7.514   5.406  18.572  0.00  0.00    +0.000 S 
BRANCH  19  20
ATOM     20  C   UNL     1       7.862   7.084  18.232  0.00  0.00    +0.000 A 
ATOM     21  N   UNL     1       7.420   7.641  17.102  0.00  0.00    +0.000 NA
ATOM     22  N   UNL     1       7.874   8.894  17.223  0.00  0.00    +0.000 N 
ATOM     23  C   UNL     1       8.550   9.089  18.399  0.00  0.00    +0.000 A 
ATOM     24  N   UNL     1       8.578   7.931  19.042  0.00  0.00    +0.000 NA
ATOM     25  H   UNL     1       7.707   9.557  16.476  0.00  0.00    +0.000 HD
BRANCH  23  26
ATOM     26  C   UNL     1       9.141  10.374  18.785  0.00  0.00    +0.000 A 
ATOM     27  C   UNL     1       9.768  10.547  20.033  0.00  0.00    +0.000 A 
ATOM     28  C   UNL     1      10.299  11.787  20.406  0.00  0.00    +0.000 A 
ATOM     29  C   UNL     1      10.211  12.872  19.540  0.00  0.00    +0.000 A 
ATOM     30  C   UNL     1       9.604  12.715  18.295  0.00  0.00    +0.000 A 
ATOM     31  C   UNL     1       9.078  11.473  17.918  0.00  0.00    +0.000 A 
ENDBRANCH  23  26
ENDBRANCH  19  20
ENDBRANCH  18  19
ENDBRANCH   1  18
TORSDOF 7
ENDMDL
MODEL 2
REMARK VINA RESULT:      -8.1      4.063      7.050
REMARK  Name = 
REMARK  7 active torsions:
REMARK  status: ('A' for Active; 'I' for Inactive)
REMARK    1  A    between atoms: N_1  and  C_2
REMARK    2  A    between atoms: C_3  and  C_4
REMARK    3  A    between atoms: C_4  and  C_6
REMARK    4  A    between atoms: C_6  and  S_7
REMARK    5  A    between atoms: S_7  and  C_8
REMARK    6  A    between atoms: C_11  and  C_12
REMARK    7  A    between atoms: N_24  and  C_25
REMARK                            x       y       z     vdW  Elec       q    Type
REMARK                         _______ _______ _______ _____ _____    ______ ____
ROOT
ATOM      1  C   UNL     1       5.369   4.750  18.845  0.00  0.00    +0.000 C 
ATOM      2  O   UNL     1       5.655   3.787  19.564  0.00  0.00    +0.000 OA
ENDROOT
BRANCH   1   4
ATOM      3  C   UNL     1       5.791   4.115  16.431  0.00  0.00    +0.000 A 
ATOM      4  C   UNL     1       6.072   4.913  17.500  0.00  0.00    +0.000 A 
ATOM      5  C   UNL     1       7.086   5.982  17.317  0.00  0.00    +0.000 A 
ATOM      6  O   UNL     1       7.490   6.690  18.232  0.00  0.00    +0.000 OA
ATOM      7  N   UNL     1       7.565   6.183  16.067  0.00  0.00    +0.000 N 
ATOM      8  C   UNL     1       7.344   5.374  15.002  0.00  0.00    +0.000 A 
ATOM      9  O   UNL     1       7.914   5.618  13.939  0.00  0.00    +0.000 OA
ATOM     10  N   UNL     1       6.472   4.313  15.214  0.00  0.00    +0.000 N 
ATOM     11  H   UNL     1       8.245   6.918  15.943  0.00  0.00    +0.000 HD
BRANCH   3  12
ATOM     12  N   UNL     1       4.844   3.098  16.499  0.00  0.00    +0.000 N 
ATOM     13  H   UNL     1       5.160   2.214  16.081  0.00  0.00    +0.000 HD
ATOM     14  H   UNL     1       4.468   2.965  17.432  0.00  0.00    +0.000 HD
ENDBRANCH   3  12
BRANCH  10  15
ATOM     15  C   UNL     1       6.230   3.439  14.070  0.00  0.00    +0.000 C 
ATOM     16  C   UNL     1       5.101   3.759  13.105  0.00  0.00    +0.000 C 
ATOM     17  C   UNL     1       6.515   3.784  12.629  0.00  0.00    +0.000 C 
ENDBRANCH  10  15
ENDBRANCH   1   4
BRANCH   1  18
ATOM     18  C   UNL     1       4.297   5.778  19.232  0.00  0.00    +0.000 C 
BRANCH  18  19
ATOM     19  S   UNL     1       3.220   6.249  17.855  0.00  0.00    +0.000 S 
BRANCH  19  20
ATOM     20  C   UNL     1       2.389   7.631  18.528  0.00  0.00    +0.000 A 
ATOM     21  N   UNL     1       2.269   8.751  17.811  0.00  0.00    +0.000 NA
ATOM     22  N   UNL     1       1.585   9.537  18.650  0.00  0.00    +0.000 N 
ATOM     23  C   UNL     1       1.285   8.901  19.827  0.00  0.00    +0.000 A 
ATOM     24  N   UNL     1       1.821   7.691  19.777  0.00  0.00    +0.000 NA
ATOM     25  H   UNL     1       1.368  10.487  18.375  0.00  0.00    +0.000 HD
BRANCH  23  26
ATOM     26  C   UNL     1       0.533   9.534  20.915  0.00  0.00    +0.000 A 
ATOM     27  C   UNL     1      -0.167  10.739  20.719  0.00  0.00    +0.000 A 
ATOM     28  C   UNL     1      -0.853  11.353  21.772  0.00  0.00    +0.000 A 
ATOM     29  C   UNL     1      -0.849  10.775  23.038  0.00  0.00    +0.000 A 
ATOM     30  C   UNL     1      -0.171   9.576  23.247  0.00  0.00    +0.000 A 
ATOM     31  C   UNL     1       0.510   8.956  22.192  0.00  0.00    +0.000 A 
ENDBRANCH  23  26
ENDBRANCH  19  20
ENDBRANCH  18  19
ENDBRANCH   1  18
TORSDOF 7
ENDMDL
MODEL 3
REMARK VINA RESULT:      -7.9      0.944      1.479
REMARK  Name = 
REMARK  7 active torsions:
REMARK  status: ('A' for Active; 'I' for Inactive)
REMARK    1  A    between atoms: N_1  and  C_2
REMARK    2  A    between atoms: C_3  and  C_4
REMARK    3  A    between atoms: C_4  and  C_6
REMARK    4  A    between atoms: C_6  and  S_7
REMARK    5  A    between atoms: S_7  and  C_8
REMARK    6  A    between atoms: C_11  and  C_12
REMARK    7  A    between atoms: N_24  and  C_25
REMARK                            x       y       z     vdW  Elec       q    Type
REMARK                         _______ _______ _______ _____ _____    ______ ____
ROOT
ATOM      1  C   UNL     1       4.916   4.357  17.270  0.00  0.00    +0.000 C 
ATOM      2  O   UNL     1       4.517   3.555  16.419  0.00  0.00    +0.000 OA
ENDROOT
BRANCH   1   4
ATOM      3  C   UNL     1       3.520   4.184  19.376  0.00  0.00    +0.000 A 
ATOM      4  C   UNL     1       3.929   4.909  18.296  0.00  0.00    +0.000 A 
ATOM      5  C   UNL     1       3.397   6.287  18.147  0.00  0.00    +0.000 A 
ATOM      6  O   UNL     1       3.615   6.990  17.168  0.00  0.00    +0.000 OA
ATOM      7  N   UNL     1       2.650   6.783  19.162  0.00  0.00    +0.000 N 
ATOM      8  C   UNL     1       2.187   6.069  20.216  0.00  0.00    +0.000 A 
ATOM      9  O   UNL     1       1.438   6.617  21.025  0.00  0.00    +0.000 OA
ATOM     10  N   UNL     1       2.608   4.746  20.289  0.00  0.00    +0.000 N 
ATOM     11  H   UNL     1       2.300   7.723  19.064  0.00  0.00    +0.000 HD
BRANCH   3  12
ATOM     12  N   UNL     1       3.976   2.891  19.611  0.00  0.00    +0.000 N 
ATOM     13  H   UNL     1       3.270   2.167  19.429  0.00  0.00    +0.000 HD
ATOM     14  H   UNL     1       4.856   2.688  19.149  0.00  0.00    +0.000 HD
ENDBRANCH   3  12
BRANCH  10  15
ATOM     15  C   UNL     1       2.112   3.974  21.424  0.00  0.00    +0.000 C 
ATOM     16  C   UNL     1       1.032   2.928  21.206  0.00  0.00    +0.000 C 
ATOM     17  C   UNL     1       2.386   2.511  21.675  0.00  0.00    +0.000 C 
ENDBRANCH  10  15
ENDBRANCH   1   4
BRANCH   1  18
ATOM     18  C   UNL     1       6.383   4.794  17.368  0.00  0.00    +0.000 C 
BRANCH  18  19
ATOM     19  S   UNL     1       6.787   6.205  16.308  0.00  0.00    +0.000 S 
BRANCH  19  20
ATOM     20  C   UNL     1       7.601   7.260  17.437  0.00  0.00    +0.000 A 
ATOM     21  N   UNL     1       8.097   6.765  18.574  0.00  0.00    +0.000 NA
ATOM     22  N   UNL     1       8.630   7.856  19.135  0.00  0.00    +0.000 N 
ATOM     23  C   UNL     1       8.478   8.969  18.350  0.00  0.00    +0.000 A 
ATOM     24  N   UNL     1       7.793   8.610  17.274  0.00  0.00    +0.000 NA
ATOM     25  H   UNL     1       9.065   7.784  20.047  0.00  0.00    +0.000 HD
BRANCH  23  26
ATOM     26  C   UNL     1       8.980  10.294  18.725  0.00  0.00    +0.000 A 
ATOM     27  C   UNL     1       8.943  11.374  17.824  0.00  0.00    +0.000 A 
ATOM     28  C   UNL     1       9.456  12.626  18.179  0.00  0.00    +0.000 A 
ATOM     29  C   UNL     1      10.013  12.819  19.440  0.00  0.00    +0.000 A 
ATOM     30  C   UNL     1      10.046  11.764  20.349  0.00  0.00    +0.000 A 
ATOM     31  C   UNL     1       9.527  10.512  19.997  0.00  0.00    +0.000 A 
ENDBRANCH  23  26
ENDBRANCH  19  20
ENDBRANCH  18  19
ENDBRANCH   1  18
TORSDOF 7
ENDMDL
MODEL 4
REMARK VINA RESULT:      -7.9      4.071      6.057
REMARK  Name = 
REMARK  7 active torsions:
REMARK  status: ('A' for Active; 'I' for Inactive)
REMARK    1  A    between atoms: N_1  and  C_2
REMARK    2  A    between atoms: C_3  and  C_4
REMARK    3  A    between atoms: C_4  and  C_6
REMARK    4  A    between atoms: C_6  and  S_7
REMARK    5  A    between atoms: S_7  and  C_8
REMARK    6  A    between atoms: C_11  and  C_12
REMARK    7  A    between atoms: N_24  and  C_25
REMARK                            x       y       z     vdW  Elec       q    Type
REMARK                         _______ _______ _______ _____ _____    ______ ____
ROOT
ATOM      1  C   UNL     1       3.422   4.130  18.692  0.00  0.00    +0.000 C 
ATOM      2  O   UNL     1       2.778   3.513  17.837  0.00  0.00    +0.000 OA
ENDROOT
BRANCH   1   4
ATOM      3  C   UNL     1       2.749   6.571  18.709  0.00  0.00    +0.000 A 
ATOM      4  C   UNL     1       2.805   5.366  19.344  0.00  0.00    +0.000 A 
ATOM      5  C   UNL     1       2.222   5.274  20.706  0.00  0.00    +0.000 A 
ATOM      6  O   UNL     1       2.305   4.273  21.408  0.00  0.00    +0.000 OA
ATOM      7  N   UNL     1       1.551   6.353  21.174  0.00  0.00    +0.000 N 
ATOM      8  C   UNL     1       1.526   7.575  20.589  0.00  0.00    +0.000 A 
ATOM      9  O   UNL     1       0.955   8.501  21.165  0.00  0.00    +0.000 OA
ATOM     10  N   UNL     1       2.167   7.676  19.359  0.00  0.00    +0.000 N 
ATOM     11  H   UNL     1       1.146   6.285  22.094  0.00  0.00    +0.000 HD
BRANCH   3  12
ATOM     12  N   UNL     1       3.253   6.752  17.425  0.00  0.00    +0.000 N 
ATOM     13  H   UNL     1       4.263   6.583  17.352  0.00  0.00    +0.000 HD
ATOM     14  H   UNL     1       2.731   6.247  16.717  0.00  0.00    +0.000 HD
ENDBRANCH   3  12
BRANCH  10  15
ATOM     15  C   UNL     1       2.143   8.990  18.725  0.00  0.00    +0.000 C 
ATOM     16  C   UNL     1       1.084   9.301  17.681  0.00  0.00    +0.000 C 
ATOM     17  C   UNL     1       1.105  10.060  18.966  0.00  0.00    +0.000 C 
ENDBRANCH  10  15
ENDBRANCH   1   4
BRANCH   1  18
ATOM     18  C   UNL     1       4.811   3.680  19.163  0.00  0.00    +0.000 C 
BRANCH  18  19
ATOM     19  S   UNL     1       5.982   5.046  19.362  0.00  0.00    +0.000 S 
BRANCH  19  20
ATOM     20  C   UNL     1       6.498   5.298  17.712  0.00  0.00    +0.000 A 
ATOM     21  N   UNL     1       7.333   6.298  17.420  0.00  0.00    +0.000 NA
ATOM     22  N   UNL     1       7.485   6.147  16.100  0.00  0.00    +0.000 N 
ATOM     23  C   UNL     1       6.778   5.077  15.616  0.00  0.00    +0.000 A 
ATOM     24  N   UNL     1       6.116   4.542  16.631  0.00  0.00    +0.000 NA
ATOM     25  H   UNL     1       8.061   6.804  15.587  0.00  0.00    +0.000 HD
BRANCH  23  26
ATOM     26  C   UNL     1       6.778   4.684  14.204  0.00  0.00    +0.000 A 
ATOM     27  C   UNL     1       5.890   3.708  13.715  0.00  0.00    +0.000 A 
ATOM     28  C   UNL     1       5.921   3.314  12.372  0.00  0.00    +0.000 A 
ATOM     29  C   UNL     1       6.838   3.889  11.498  0.00  0.00    +0.000 A 
ATOM     30  C   UNL     1       7.717   4.866  11.963  0.00  0.00    +0.000 A 
ATOM     31  C   UNL     1       7.683   5.265  13.305  0.00  0.00    +0.000 A 
ENDBRANCH  23  26
ENDBRANCH  19  20
ENDBRANCH  18  19
ENDBRANCH   1  18
TORSDOF 7
ENDMDL
MODEL 5
REMARK VINA RESULT:      -7.7      3.594      6.593
REMARK  Name = 
REMARK  7 active torsions:
REMARK  status: ('A' for Active; 'I' for Inactive)
REMARK    1  A    between atoms: N_1  and  C_2
REMARK    2  A    between atoms: C_3  and  C_4
REMARK    3  A    between atoms: C_4  and  C_6
REMARK    4  A    between atoms: C_6  and  S_7
REMARK    5  A    between atoms: S_7  and  C_8
REMARK    6  A    between atoms: C_11  and  C_12
REMARK    7  A    between atoms: N_24  and  C_25
REMARK                            x       y       z     vdW  Elec       q    Type
REMARK                         _______ _______ _______ _____ _____    ______ ____
ROOT
ATOM      1  C   UNL     1       5.031   6.387  17.249  0.00  0.00    +0.000 C 
ATOM      2  O   UNL     1       4.772   6.741  16.095  0.00  0.00    +0.000 OA
ENDROOT
BRANCH   1   4
ATOM      3  C   UNL     1       3.752   4.528  18.399  0.00  0.00    +0.000 A 
ATOM      4  C   UNL     1       3.908   5.857  18.138  0.00  0.00    +0.000 A 
ATOM      5  C   UNL     1       2.952   6.803  18.769  0.00  0.00    +0.000 A 
ATOM      6  O   UNL     1       2.935   8.003  18.527  0.00  0.00    +0.000 OA
ATOM      7  N   UNL     1       2.075   6.298  19.668  0.00  0.00    +0.000 N 
ATOM      8  C   UNL     1       1.864   4.980  19.904  0.00  0.00    +0.000 A 
ATOM      9  O   UNL     1       0.969   4.650  20.682  0.00  0.00    +0.000 OA
ATOM     10  N   UNL     1       2.698   4.099  19.227  0.00  0.00    +0.000 N 
ATOM     11  H   UNL     1       1.434   6.943  20.105  0.00  0.00    +0.000 HD
BRANCH   3  12
ATOM     12  N   UNL     1       4.607   3.568  17.868  0.00  0.00    +0.000 N 
ATOM     13  H   UNL     1       5.062   2.984  18.580  0.00  0.00    +0.000 HD
ATOM     14  H   UNL     1       4.177   3.011  17.137  0.00  0.00    +0.000 HD
ENDBRANCH   3  12
BRANCH  10  15
ATOM     15  C   UNL     1       2.474   2.678  19.478  0.00  0.00    +0.000 C 
ATOM     16  C   UNL     1       1.316   1.968  18.799  0.00  0.00    +0.000 C 
ATOM     17  C   UNL     1       2.719   1.564  18.490  0.00  0.00    +0.000 C 
ENDBRANCH  10  15
ENDBRANCH   1   4
BRANCH   1  18
ATOM     18  C   UNL     1       6.454   6.419  17.822  0.00  0.00    +0.000 C 
BRANCH  18  19
ATOM     19  S   UNL     1       7.416   4.932  17.446  0.00  0.00    +0.000 S 
BRANCH  19  20
ATOM     20  C   UNL     1       7.137   4.769  15.729  0.00  0.00    +0.000 A 
ATOM     21  N   UNL     1       7.742   5.597  14.874  0.00  0.00    +0.000 NA
ATOM     22  N   UNL     1       7.289   5.150  13.697  0.00  0.00    +0.000 N 
ATOM     23  C   UNL     1       6.455   4.072  13.840  0.00  0.00    +0.000 A 
ATOM     24  N   UNL     1       6.322   3.836  15.136  0.00  0.00    +0.000 NA
ATOM     25  H   UNL     1       7.568   5.622  12.846  0.00  0.00    +0.000 HD
BRANCH  23  26
ATOM     26  C   UNL     1       5.828   3.384  12.707  0.00  0.00    +0.000 A 
ATOM     27  C   UNL     1       4.599   3.816  12.175  0.00  0.00    +0.000 A 
ATOM     28  C   UNL     1       3.991   3.131  11.117  0.00  0.00    +0.000 A 
ATOM     29  C   UNL     1       4.602   2.006  10.573  0.00  0.00    +0.000 A 
ATOM     30  C   UNL     1       5.826   1.572  11.079  0.00  0.00    +0.000 A 
ATOM     31  C   UNL     1       6.438   2.260  12.134  0.00  0.00    +0.000 A 
ENDBRANCH  23  26
ENDBRANCH  19  20
ENDBRANCH  18  19
ENDBRANCH   1  18
TORSDOF 7
ENDMDL
MODEL 6
REMARK VINA RESULT:      -7.6      4.379      7.081
REMARK  Name = 
REMARK  7 active torsions:
REMARK  status: ('A' for Active; 'I' for Inactive)
REMARK    1  A    between atoms: N_1  and  C_2
REMARK    2  A    between atoms: C_3  and  C_4
REMARK    3  A    between atoms: C_4  and  C_6
REMARK    4  A    between atoms: C_6  and  S_7
REMARK    5  A    between atoms: S_7  and  C_8
REMARK    6  A    between atoms: C_11  and  C_12
REMARK    7  A    between atoms: N_24  and  C_25
REMARK                            x       y       z     vdW  Elec       q    Type
REMARK                         _______ _______ _______ _____ _____    ______ ____
ROOT
ATOM      1  C   UNL     1       3.810   4.530  19.428  0.00  0.00    +0.000 C 
ATOM      2  O   UNL     1       3.523   3.492  20.033  0.00  0.00    +0.000 OA
ENDROOT
BRANCH   1   4
ATOM      3  C   UNL     1       4.786   4.047  17.142  0.00  0.00    +0.000 A 
ATOM      4  C   UNL     1       4.951   4.513  18.413  0.00  0.00    +0.000 A 
ATOM      5  C   UNL     1       6.289   5.033  18.791  0.00  0.00    +0.000 A 
ATOM      6  O   UNL     1       6.579   5.381  19.929  0.00  0.00    +0.000 OA
ATOM      7  N   UNL     1       7.219   5.138  17.812  0.00  0.00    +0.000 N 
ATOM      8  C   UNL     1       7.099   4.636  16.560  0.00  0.00    +0.000 A 
ATOM      9  O   UNL     1       8.057   4.717  15.790  0.00  0.00    +0.000 OA
ATOM     10  N   UNL     1       5.875   4.056  16.250  0.00  0.00    +0.000 N 
ATOM     11  H   UNL     1       8.123   5.503  18.068  0.00  0.00    +0.000 HD
BRANCH   3  12
ATOM     12  N   UNL     1       3.567   3.556  16.690  0.00  0.00    +0.000 N 
ATOM     13  H   UNL     1       2.821   3.592  17.396  0.00  0.00    +0.000 HD
ATOM     14  H   UNL     1       3.275   3.963  15.808  0.00  0.00    +0.000 HD
ENDBRANCH   3  12
BRANCH  10  15
ATOM     15  C   UNL     1       5.742   3.513  14.901  0.00  0.00    +0.000 C 
ATOM     16  C   UNL     1       5.054   4.335  13.825  0.00  0.00    +0.000 C 
ATOM     17  C   UNL     1       6.499   3.990  13.686  0.00  0.00    +0.000 C 
ENDBRANCH  10  15
ENDBRANCH   1   4
BRANCH   1  18
ATOM     18  C   UNL     1       3.036   5.841  19.625  0.00  0.00    +0.000 C 
BRANCH  18  19
ATOM     19  S   UNL     1       3.044   6.909  18.164  0.00  0.00    +0.000 S 
BRANCH  19  20
ATOM     20  C   UNL     1       2.064   8.247  18.714  0.00  0.00    +0.000 A 
ATOM     21  N   UNL     1       1.761   9.241  17.875  0.00  0.00    +0.000 NA
ATOM     22  N   UNL     1       1.015  10.033  18.652  0.00  0.00    +0.000 N 
ATOM     23  C   UNL     1       0.856   9.521  19.913  0.00  0.00    +0.000 A 
ATOM     24  N   UNL     1       1.548   8.394  19.979  0.00  0.00    +0.000 NA
ATOM     25  H   UNL     1       0.659  10.904  18.277  0.00  0.00    +0.000 HD
BRANCH  23  26
ATOM     26  C   UNL     1       0.074  10.187  20.961  0.00  0.00    +0.000 A 
ATOM     27  C   UNL     1      -0.072   9.617  22.239  0.00  0.00    +0.000 A 
ATOM     28  C   UNL     1      -0.849  10.243  23.220  0.00  0.00    +0.000 A 
ATOM     29  C   UNL     1      -1.490  11.445  22.941  0.00  0.00    +0.000 A 
ATOM     30  C   UNL     1      -1.345  12.029  21.683  0.00  0.00    +0.000 A 
ATOM     31  C   UNL     1      -0.563  11.408  20.703  0.00  0.00    +0.000 A 
ENDBRANCH  23  26
ENDBRANCH  19  20
ENDBRANCH  18  19
ENDBRANCH   1  18
TORSDOF 7
ENDMDL
MODEL 7
REMARK VINA RESULT:      -7.6      3.977      6.895
REMARK  Name = 
REMARK  7 active torsions:
REMARK  status: ('A' for Active; 'I' for Inactive)
REMARK    1  A    between atoms: N_1  and  C_2
REMARK    2  A    between atoms: C_3  and  C_4
REMARK    3  A    between atoms: C_4  and  C_6
REMARK    4  A    between atoms: C_6  and  S_7
REMARK    5  A    between atoms: S_7  and  C_8
REMARK    6  A    between atoms: C_11  and  C_12
REMARK    7  A    between atoms: N_24  and  C_25
REMARK                            x       y       z     vdW  Elec       q    Type
REMARK                         _______ _______ _______ _____ _____    ______ ____
ROOT
ATOM      1  C   UNL     1       4.446   3.469  19.296  0.00  0.00    +0.000 C 
ATOM      2  O   UNL     1       4.940   2.567  19.980  0.00  0.00    +0.000 OA
ENDROOT
BRANCH   1   4
ATOM      3  C   UNL     1       5.218   4.421  17.080  0.00  0.00    +0.000 A 
ATOM      4  C   UNL     1       5.359   4.338  18.434  0.00  0.00    +0.000 A 
ATOM      5  C   UNL     1       6.430   5.147  19.069  0.00  0.00    +0.000 A 
ATOM      6  O   UNL     1       6.712   5.074  20.259  0.00  0.00    +0.000 OA
ATOM      7  N   UNL     1       7.108   6.016  18.282  0.00  0.00    +0.000 N 
ATOM      8  C   UNL     1       7.025   6.079  16.931  0.00  0.00    +0.000 A 
ATOM      9  O   UNL     1       7.766   6.853  16.324  0.00  0.00    +0.000 OA
ATOM     10  N   UNL     1       6.090   5.240  16.337  0.00  0.00    +0.000 N 
ATOM     11  H   UNL     1       7.827   6.572  18.717  0.00  0.00    +0.000 HD
BRANCH   3  12
ATOM     12  N   UNL     1       4.234   3.715  16.397  0.00  0.00    +0.000 N 
ATOM     13  H   UNL     1       3.766   3.002  16.970  0.00  0.00    +0.000 HD
ATOM     14  H   UNL     1       3.570   4.316  15.921  0.00  0.00    +0.000 HD
ENDBRANCH   3  12
BRANCH  10  15
ATOM     15  C   UNL     1       5.998   5.305  14.882  0.00  0.00    +0.000 C 
ATOM     16  C   UNL     1       7.108   4.712  14.032  0.00  0.00    +0.000 C 
ATOM     17  C   UNL     1       5.734   4.134  13.967  0.00  0.00    +0.000 C 
ENDBRANCH  10  15
ENDBRANCH   1   4
BRANCH   1  18
ATOM     18  C   UNL     1       2.935   3.730  19.243  0.00  0.00    +0.000 C 
BRANCH  18  19
ATOM     19  S   UNL     1       2.231   4.215  20.838  0.00  0.00    +0.000 S 
BRANCH  19  20
ATOM     20  C   UNL     1       1.961   5.923  20.589  0.00  0.00    +0.000 A 
ATOM     21  N   UNL     1       2.523   6.542  19.548  0.00  0.00    +0.000 NA
ATOM     22  N   UNL     1       2.078   7.794  19.705  0.00  0.00    +0.000 N 
ATOM     23  C   UNL     1       1.257   7.918  20.795  0.00  0.00    +0.000 A 
ATOM     24  N   UNL     1       1.197   6.737  21.390  0.00  0.00    +0.000 NA
ATOM     25  H   UNL     1       2.375   8.512  19.056  0.00  0.00    +0.000 HD
BRANCH  23  26
ATOM     26  C   UNL     1       0.626   9.183  21.188  0.00  0.00    +0.000 A 
ATOM     27  C   UNL     1       0.706  10.326  20.372  0.00  0.00    +0.000 A 
ATOM     28  C   UNL     1       0.131  11.537  20.772  0.00  0.00    +0.000 A 
ATOM     29  C   UNL     1      -0.533  11.625  21.991  0.00  0.00    +0.000 A 
ATOM     30  C   UNL     1      -0.633  10.498  22.806  0.00  0.00    +0.000 A 
ATOM     31  C   UNL     1      -0.063   9.284  22.404  0.00  0.00    +0.000 A 
ENDBRANCH  23  26
ENDBRANCH  19  20
ENDBRANCH  18  19
ENDBRANCH   1  18
TORSDOF 7
ENDMDL
MODEL 8
REMARK VINA RESULT:      -7.6      1.251      2.592
REMARK  Name = 
REMARK  7 active torsions:
REMARK  status: ('A' for Active; 'I' for Inactive)
REMARK    1  A    between atoms: N_1  and  C_2
REMARK    2  A    between atoms: C_3  and  C_4
REMARK    3  A    between atoms: C_4  and  C_6
REMARK    4  A    between atoms: C_6  and  S_7
REMARK    5  A    between atoms: S_7  and  C_8
REMARK    6  A    between atoms: C_11  and  C_12
REMARK    7  A    between atoms: N_24  and  C_25
REMARK                            x       y       z     vdW  Elec       q    Type
REMARK                         _______ _______ _______ _____ _____    ______ ____
ROOT
ATOM      1  C   UNL     1       6.009   4.217  16.806  0.00  0.00    +0.000 C 
ATOM      2  O   UNL     1       5.795   3.458  15.856  0.00  0.00    +0.000 OA
ENDROOT
BRANCH   1   4
ATOM      3  C   UNL     1       4.078   5.717  17.465  0.00  0.00    +0.000 A 
ATOM      4  C   UNL     1       4.850   4.621  17.715  0.00  0.00    +0.000 A 
ATOM      5  C   UNL     1       4.519   3.799  18.906  0.00  0.00    +0.000 A 
ATOM      6  O   UNL     1       5.203   2.855  19.284  0.00  0.00    +0.000 OA
ATOM      7  N   UNL     1       3.392   4.111  19.588  0.00  0.00    +0.000 N 
ATOM      8  C   UNL     1       2.639   5.222  19.394  0.00  0.00    +0.000 A 
ATOM      9  O   UNL     1       1.688   5.436  20.145  0.00  0.00    +0.000 OA
ATOM     10  N   UNL     1       3.022   6.041  18.339  0.00  0.00    +0.000 N 
ATOM     11  H   UNL     1       3.162   3.544  20.390  0.00  0.00    +0.000 HD
BRANCH   3  12
ATOM     12  N   UNL     1       4.299   6.539  16.365  0.00  0.00    +0.000 N 
ATOM     13  H   UNL     1       3.722   7.389  16.364  0.00  0.00    +0.000 HD
ATOM     14  H   UNL     1       5.280   6.745  16.212  0.00  0.00    +0.000 HD
ENDBRANCH   3  12
BRANCH  10  15
ATOM     15  C   UNL     1       2.214   7.238  18.126  0.00  0.00    +0.000 C 
ATOM     16  C   UNL     1       2.111   8.279  19.227  0.00  0.00    +0.000 C 
ATOM     17  C   UNL     1       2.752   8.634  17.927  0.00  0.00    +0.000 C 
ENDBRANCH  10  15
ENDBRANCH   1   4
BRANCH   1  18
ATOM     18  C   UNL     1       7.410   4.745  17.141  0.00  0.00    +0.000 C 
BRANCH  18  19
ATOM     19  S   UNL     1       7.529   5.479  18.791  0.00  0.00    +0.000 S 
BRANCH  19  20
ATOM     20  C   UNL     1       7.879   7.145  18.400  0.00  0.00    +0.000 A 
ATOM     21  N   UNL     1       7.350   7.699  17.306  0.00  0.00    +0.000 NA
ATOM     22  N   UNL     1       7.838   8.943  17.369  0.00  0.00    +0.000 N 
ATOM     23  C   UNL     1       8.618   9.138  18.479  0.00  0.00    +0.000 A 
ATOM     24  N   UNL     1       8.680   7.987  19.132  0.00  0.00    +0.000 NA
ATOM     25  H   UNL     1       7.619   9.601  16.631  0.00  0.00    +0.000 HD
BRANCH  23  26
ATOM     26  C   UNL     1       9.266  10.415  18.794  0.00  0.00    +0.000 A 
ATOM     27  C   UNL     1       9.639  11.317  17.781  0.00  0.00    +0.000 A 
ATOM     28  C   UNL     1      10.289  12.517  18.090  0.00  0.00    +0.000 A 
ATOM     29  C   UNL     1      10.574  12.835  19.414  0.00  0.00    +0.000 A 
ATOM     30  C   UNL     1      10.200  11.958  20.431  0.00  0.00    +0.000 A 
ATOM     31  C   UNL     1       9.545  10.760  20.124  0.00  0.00    +0.000 A 
ENDBRANCH  23  26
ENDBRANCH  19  20
ENDBRANCH  18  19
ENDBRANCH   1  18
TORSDOF 7
ENDMDL
MODEL 9
REMARK VINA RESULT:      -7.5      1.053      1.435
REMARK  Name = 
REMARK  7 active torsions:
REMARK  status: ('A' for Active; 'I' for Inactive)
REMARK    1  A    between atoms: N_1  and  C_2
REMARK    2  A    between atoms: C_3  and  C_4
REMARK    3  A    between atoms: C_4  and  C_6
REMARK    4  A    between atoms: C_6  and  S_7
REMARK    5  A    between atoms: S_7  and  C_8
REMARK    6  A    between atoms: C_11  and  C_12
REMARK    7  A    between atoms: N_24  and  C_25
REMARK                            x       y       z     vdW  Elec       q    Type
REMARK                         _______ _______ _______ _____ _____    ______ ____
ROOT
ATOM      1  C   UNL     1       5.462   5.875  16.315  0.00  0.00    +0.000 C 
ATOM      2  O   UNL     1       5.166   6.417  15.245  0.00  0.00    +0.000 OA
ENDROOT
BRANCH   1   4
ATOM      3  C   UNL     1       4.068   4.422  17.849  0.00  0.00    +0.000 A 
ATOM      4  C   UNL     1       4.378   5.659  17.368  0.00  0.00    +0.000 A 
ATOM      5  C   UNL     1       3.635   6.821  17.918  0.00  0.00    +0.000 A 
ATOM      6  O   UNL     1       3.758   7.962  17.490  0.00  0.00    +0.000 OA
ATOM      7  N   UNL     1       2.797   6.593  18.957  0.00  0.00    +0.000 N 
ATOM      8  C   UNL     1       2.432   5.372  19.417  0.00  0.00    +0.000 A 
ATOM      9  O   UNL     1       1.588   5.299  20.310  0.00  0.00    +0.000 OA
ATOM     10  N   UNL     1       3.058   4.284  18.820  0.00  0.00    +0.000 N 
ATOM     11  H   UNL     1       2.302   7.385  19.337  0.00  0.00    +0.000 HD
BRANCH   3  12
ATOM     12  N   UNL     1       4.719   3.275  17.408  0.00  0.00    +0.000 N 
ATOM     13  H   UNL     1       5.198   2.760  18.157  0.00  0.00    +0.000 HD
ATOM     14  H   UNL     1       4.128   2.670  16.848  0.00  0.00    +0.000 HD
ENDBRANCH   3  12
BRANCH  10  15
ATOM     15  C   UNL     1       2.668   2.966  19.313  0.00  0.00    +0.000 C 
ATOM     16  C   UNL     1       3.442   2.331  20.455  0.00  0.00    +0.000 C 
ATOM     17  C   UNL     1       2.005   2.688  20.640  0.00  0.00    +0.000 C 
ENDBRANCH  10  15
ENDBRANCH   1   4
BRANCH   1  18
ATOM     18  C   UNL     1       6.878   5.369  16.618  0.00  0.00    +0.000 C 
BRANCH  18  19
ATOM     19  S   UNL     1       7.434   5.747  18.299  0.00  0.00    +0.000 S 
BRANCH  19  20
ATOM     20  C   UNL     1       7.869   7.432  18.144  0.00  0.00    +0.000 A 
ATOM     21  N   UNL     1       7.358   8.165  17.152  0.00  0.00    +0.000 NA
ATOM     22  N   UNL     1       7.913   9.360  17.384  0.00  0.00    +0.000 N 
ATOM     23  C   UNL     1       8.717   9.350  18.494  0.00  0.00    +0.000 A 
ATOM     24  N   UNL     1       8.725   8.116  18.974  0.00  0.00    +0.000 NA
ATOM     25  H   UNL     1       7.721  10.128  16.753  0.00  0.00    +0.000 HD
BRANCH  23  26
ATOM     26  C   UNL     1       9.438  10.533  18.977  0.00  0.00    +0.000 A 
ATOM     27  C   UNL     1      10.130  11.381  18.092  0.00  0.00    +0.000 A 
ATOM     28  C   UNL     1      10.844  12.487  18.566  0.00  0.00    +0.000 A 
ATOM     29  C   UNL     1      10.877  12.763  19.929  0.00  0.00    +0.000 A 
ATOM     30  C   UNL     1      10.187  11.941  20.817  0.00  0.00    +0.000 A 
ATOM     31  C   UNL     1       9.467  10.837  20.344  0.00  0.00    +0.000 A 
ENDBRANCH  23  26
ENDBRANCH  19  20
ENDBRANCH  18  19
ENDBRANCH   1  18
TORSDOF 7
ENDMDL
