MODEL 1
REMARK VINA RESULT:      -8.2      0.000      0.000
REMARK  Name = 
REMARK  6 active torsions:
REMARK  status: ('A' for Active; 'I' for Inactive)
REMARK    1  A    between atoms: C_2  and  C_3
REMARK    2  A    between atoms: C_3  and  C_4
REMARK    3  A    between atoms: C_4  and  N_5
REMARK    4  A    between atoms: C_6  and  C_8
REMARK    5  A    between atoms: C_10  and  C_11
REMARK    6  A    between atoms: N_20  and  O_21
REMARK                            x       y       z     vdW  Elec       q    Type
REMARK                         _______ _______ _______ _____ _____    ______ ____
ROOT
ATOM      1  C   UNL     1       6.377   4.346  15.876  0.00  0.00    +0.000 A 
ATOM      2  C   UNL     1       5.030   4.088  16.239  0.00  0.00    +0.000 A 
ATOM      3  C   UNL     1       5.013   3.957  17.613  0.00  0.00    +0.000 A 
ATOM      4  N   UNL     1       6.325   4.118  17.985  0.00  0.00    +0.000 N 
ATOM      5  N   UNL     1       7.172   4.359  16.966  0.00  0.00    +0.000 NA
ATOM      6  H   UNL     1       6.709   4.063  18.922  0.00  0.00    +0.000 HD
ENDROOT
BRANCH   3   7
ATOM      7  C   UNL     1       3.917   3.686  18.545  0.00  0.00    +0.000 A 
ATOM      8  C   UNL     1       2.638   4.213  18.299  0.00  0.00    +0.000 A 
ATOM      9  C   UNL     1       1.582   3.971  19.183  0.00  0.00    +0.000 A 
ATOM     10  C   UNL     1       1.803   3.206  20.320  0.00  0.00    +0.000 A 
ATOM     11  F   UNL     1       0.793   2.977  21.171  0.00  0.00    +0.000 F 
ATOM     12  C   UNL     1       3.058   2.678  20.589  0.00  0.00    +0.000 A 
ATOM     13  C   UNL     1       4.115   2.915  19.702  0.00  0.00    +0.000 A 
ENDBRANCH   3   7
BRANCH   1  15
ATOM     14  N   UNL     1       6.333   3.749  13.559  0.00  0.00    +0.000 N 
ATOM     15  C   UNL     1       6.887   4.576  14.513  0.00  0.00    +0.000 C 
ATOM     16  O   UNL     1       7.733   5.427  14.257  0.00  0.00    +0.000 OA
ATOM     17  H   UNL     1       5.636   3.089  13.895  0.00  0.00    +0.000 HD
BRANCH  14  18
ATOM     18  C   UNL     1       6.659   3.853  12.150  0.00  0.00    +0.000 C 
BRANCH  18  19
ATOM     19  C   UNL     1       7.278   2.571  11.609  0.00  0.00    +0.000 C 
BRANCH  19  21
ATOM     20  O   UNL     1       5.027   1.739  11.231  0.00  0.00    +0.000 OA
ATOM     21  C   UNL     1       6.228   1.513  11.360  0.00  0.00    +0.000 C 
ATOM     22  N   UNL     1       6.736   0.238  11.302  0.00  0.00    +0.000 N 
ATOM     23  H   UNL     1       7.722   0.006  11.272  0.00  0.00    +0.000 HD
BRANCH  22  24
ATOM     24  O   UNL     1       5.821  -0.796  11.010  0.00  0.00    +0.000 OA
ATOM     25  H   UNL     1       6.413  -1.557  10.823  0.00  0.00    +0.000 HD
ENDBRANCH  22  24
ENDBRANCH  19  21
ENDBRANCH  18  19
ENDBRANCH  14  18
ENDBRANCH   1  15
TORSDOF 6
ENDMDL
MODEL 2
REMARK VINA RESULT:      -8.2      0.293      1.091
REMARK  Name = 
REMARK  6 active torsions:
REMARK  status: ('A' for Active; 'I' for Inactive)
REMARK    1  A    between atoms: C_2  and  C_3
REMARK    2  A    between atoms: C_3  and  C_4
REMARK    3  A    between atoms: C_4  and  N_5
REMARK    4  A    between atoms: C_6  and  C_8
REMARK    5  A    between atoms: C_10  and  C_11
REMARK    6  A    between atoms: N_20  and  O_21
REMARK                            x       y       z     vdW  Elec       q    Type
REMARK                         _______ _______ _______ _____ _____    ______ ____
ROOT
ATOM      1  C   UNL     1       6.397   4.383  15.630  0.00  0.00    +0.000 A 
ATOM      2  C   UNL     1       5.040   4.115  15.948  0.00  0.00    +0.000 A 
ATOM      3  C   UNL     1       4.975   4.007  17.323  0.00  0.00    +0.000 A 
ATOM      4  N   UNL     1       6.270   4.190  17.739  0.00  0.00    +0.000 N 
ATOM      5  N   UNL     1       7.151   4.423  16.748  0.00  0.00    +0.000 NA
ATOM      6  H   UNL     1       6.619   4.156  18.691  0.00  0.00    +0.000 HD
ENDROOT
BRANCH   3   7
ATOM      7  C   UNL     1       3.847   3.739  18.217  0.00  0.00    +0.000 A 
ATOM      8  C   UNL     1       4.057   3.061  19.430  0.00  0.00    +0.000 A 
ATOM      9  C   UNL     1       2.990   2.788  20.291  0.00  0.00    +0.000 A 
ATOM     10  C   UNL     1       1.708   3.188  19.940  0.00  0.00    +0.000 A 
ATOM     11  F   UNL     1       0.683   2.923  20.762  0.00  0.00    +0.000 F 
ATOM     12  C   UNL     1       1.473   3.855  18.746  0.00  0.00    +0.000 A 
ATOM     13  C   UNL     1       2.541   4.133  17.885  0.00  0.00    +0.000 A 
ENDBRANCH   3   7
BRANCH   1  15
ATOM     14  N   UNL     1       6.478   3.717  13.333  0.00  0.00    +0.000 N 
ATOM     15  C   UNL     1       6.954   4.595  14.283  0.00  0.00    +0.000 C 
ATOM     16  O   UNL     1       7.773   5.475  14.036  0.00  0.00    +0.000 OA
ATOM     17  H   UNL     1       5.797   3.036  13.660  0.00  0.00    +0.000 HD
BRANCH  14  18
ATOM     18  C   UNL     1       6.859   3.794  11.936  0.00  0.00    +0.000 C 
BRANCH  18  19
ATOM     19  C   UNL     1       7.400   2.469  11.416  0.00  0.00    +0.000 C 
BRANCH  19  21
ATOM     20  O   UNL     1       5.107   1.691  11.222  0.00  0.00    +0.000 OA
ATOM     21  C   UNL     1       6.305   1.433  11.299  0.00  0.00    +0.000 C 
ATOM     22  N   UNL     1       6.770   0.141  11.300  0.00  0.00    +0.000 N 
ATOM     23  H   UNL     1       7.745  -0.128  11.230  0.00  0.00    +0.000 HD
BRANCH  22  24
ATOM     24  O   UNL     1       5.808  -0.878  11.131  0.00  0.00    +0.000 OA
ATOM     25  H   UNL     1       4.988  -0.453  11.467  0.00  0.00    +0.000 HD
ENDBRANCH  22  24
ENDBRANCH  19  21
ENDBRANCH  18  19
ENDBRANCH  14  18
ENDBRANCH   1  15
TORSDOF 6
ENDMDL
MODEL 3
REMARK VINA RESULT:      -7.8      1.360      1.768
REMARK  Name = 
REMARK  6 active torsions:
REMARK  status: ('A' for Active; 'I' for Inactive)
REMARK    1  A    between atoms: C_2  and  C_3
REMARK    2  A    between atoms: C_3  and  C_4
REMARK    3  A    between atoms: C_4  and  N_5
REMARK    4  A    between atoms: C_6  and  C_8
REMARK    5  A    between atoms: C_10  and  C_11
REMARK    6  A    between atoms: N_20  and  O_21
REMARK                            x       y       z     vdW  Elec       q    Type
REMARK                         _______ _______ _______ _____ _____    ______ ____
ROOT
ATOM      1  C   UNL     1       5.381   5.142  16.298  0.00  0.00    +0.000 A 
ATOM      2  C   UNL     1       4.836   4.113  17.108  0.00  0.00    +0.000 A 
ATOM      3  C   UNL     1       4.002   4.732  18.018  0.00  0.00    +0.000 A 
ATOM      4  N   UNL     1       4.110   6.069  17.721  0.00  0.00    +0.000 N 
ATOM      5  N   UNL     1       4.928   6.350  16.689  0.00  0.00    +0.000 NA
ATOM      6  H   UNL     1       3.658   6.841  18.198  0.00  0.00    +0.000 HD
ENDROOT
BRANCH   3   7
ATOM      7  C   UNL     1       3.175   4.188  19.096  0.00  0.00    +0.000 A 
ATOM      8  C   UNL     1       3.683   3.180  19.932  0.00  0.00    +0.000 A 
ATOM      9  C   UNL     1       2.903   2.642  20.960  0.00  0.00    +0.000 A 
ATOM     10  C   UNL     1       1.610   3.107  21.153  0.00  0.00    +0.000 A 
ATOM     11  F   UNL     1       0.859   2.590  22.136  0.00  0.00    +0.000 F 
ATOM     12  C   UNL     1       1.082   4.100  20.338  0.00  0.00    +0.000 A 
ATOM     13  C   UNL     1       1.863   4.642  19.311  0.00  0.00    +0.000 A 
ENDBRANCH   3   7
BRANCH   1  15
ATOM     14  N   UNL     1       5.845   4.139  14.175  0.00  0.00    +0.000 N 
ATOM     15  C   UNL     1       6.317   4.966  15.173  0.00  0.00    +0.000 C 
ATOM     16  O   UNL     1       7.418   5.507  15.135  0.00  0.00    +0.000 OA
ATOM     17  H   UNL     1       4.914   3.757  14.318  0.00  0.00    +0.000 HD
BRANCH  14  18
ATOM     18  C   UNL     1       6.589   3.882  12.957  0.00  0.00    +0.000 C 
BRANCH  18  19
ATOM     19  C   UNL     1       5.766   3.109  11.935  0.00  0.00    +0.000 C 
BRANCH  19  21
ATOM     20  O   UNL     1       7.642   1.898  10.976  0.00  0.00    +0.000 OA
ATOM     21  C   UNL     1       6.505   1.886  11.443  0.00  0.00    +0.000 C 
ATOM     22  N   UNL     1       5.777   0.726  11.547  0.00  0.00    +0.000 N 
ATOM     23  H   UNL     1       4.895   0.634  12.038  0.00  0.00    +0.000 HD
BRANCH  22  24
ATOM     24  O   UNL     1       6.428  -0.467  11.163  0.00  0.00    +0.000 OA
ATOM     25  H   UNL     1       6.947  -0.693  11.966  0.00  0.00    +0.000 HD
ENDBRANCH  22  24
ENDBRANCH  19  21
ENDBRANCH  18  19
ENDBRANCH  14  18
ENDBRANCH   1  15
TORSDOF 6
ENDMDL
MODEL 4
REMARK VINA RESULT:      -7.8      1.174      1.226
REMARK  Name = 
REMARK  6 active torsions:
REMARK  status: ('A' for Active; 'I' for Inactive)
REMARK    1  A    between atoms: C_2  and  C_3
REMARK    2  A    between atoms: C_3  and  C_4
REMARK    3  A    between atoms: C_4  and  N_5
REMARK    4  A    between atoms: C_6  and  C_8
REMARK    5  A    between atoms: C_10  and  C_11
REMARK    6  A    between atoms: N_20  and  O_21
REMARK                            x       y       z     vdW  Elec       q    Type
REMARK                         _______ _______ _______ _____ _____    ______ ____
ROOT
ATOM      1  C   UNL     1       6.368   4.454  16.821  0.00  0.00    +0.000 A 
ATOM      2  C   UNL     1       5.037   4.156  17.213  0.00  0.00    +0.000 A 
ATOM      3  C   UNL     1       5.050   4.044  18.589  0.00  0.00    +0.000 A 
ATOM      4  N   UNL     1       6.362   4.254  18.933  0.00  0.00    +0.000 N 
ATOM      5  N   UNL     1       7.181   4.509  17.896  0.00  0.00    +0.000 NA
ATOM      6  H   UNL     1       6.763   4.226  19.864  0.00  0.00    +0.000 HD
ENDROOT
BRANCH   3   7
ATOM      7  C   UNL     1       3.980   3.748  19.543  0.00  0.00    +0.000 A 
ATOM      8  C   UNL     1       2.983   4.704  19.802  0.00  0.00    +0.000 A 
ATOM      9  C   UNL     1       1.960   4.442  20.718  0.00  0.00    +0.000 A 
ATOM     10  C   UNL     1       1.934   3.224  21.384  0.00  0.00    +0.000 A 
ATOM     11  F   UNL     1       0.956   2.972  22.265  0.00  0.00    +0.000 F 
ATOM     12  C   UNL     1       2.909   2.264  21.150  0.00  0.00    +0.000 A 
ATOM     13  C   UNL     1       3.931   2.524  20.230  0.00  0.00    +0.000 A 
ENDBRANCH   3   7
BRANCH   1  15
ATOM     14  N   UNL     1       6.345   3.789  14.523  0.00  0.00    +0.000 N 
ATOM     15  C   UNL     1       6.845   4.682  15.446  0.00  0.00    +0.000 C 
ATOM     16  O   UNL     1       7.621   5.587  15.155  0.00  0.00    +0.000 OA
ATOM     17  H   UNL     1       5.703   3.088  14.886  0.00  0.00    +0.000 HD
BRANCH  14  18
ATOM     18  C   UNL     1       6.647   3.876  13.107  0.00  0.00    +0.000 C 
BRANCH  18  19
ATOM     19  C   UNL     1       5.387   3.916  12.253  0.00  0.00    +0.000 C 
BRANCH  19  21
ATOM     20  O   UNL     1       4.158   2.329  10.885  0.00  0.00    +0.000 OA
ATOM     21  C   UNL     1       5.157   2.600  11.547  0.00  0.00    +0.000 C 
ATOM     22  N   UNL     1       6.177   1.698  11.722  0.00  0.00    +0.000 N 
ATOM     23  H   UNL     1       7.075   1.908  12.144  0.00  0.00    +0.000 HD
BRANCH  22  24
ATOM     24  O   UNL     1       6.059   0.468  11.039  0.00  0.00    +0.000 OA
ATOM     25  H   UNL     1       5.132   0.206  11.234  0.00  0.00    +0.000 HD
ENDBRANCH  22  24
ENDBRANCH  19  21
ENDBRANCH  18  19
ENDBRANCH  14  18
ENDBRANCH   1  15
TORSDOF 6
ENDMDL
MODEL 5
REMARK VINA RESULT:      -7.6      1.266      1.409
REMARK  Name = 
REMARK  6 active torsions:
REMARK  status: ('A' for Active; 'I' for Inactive)
REMARK    1  A    between atoms: C_2  and  C_3
REMARK    2  A    between atoms: C_3  and  C_4
REMARK    3  A    between atoms: C_4  and  N_5
REMARK    4  A    between atoms: C_6  and  C_8
REMARK    5  A    between atoms: C_10  and  C_11
REMARK    6  A    between atoms: N_20  and  O_21
REMARK                            x       y       z     vdW  Elec       q    Type
REMARK                         _______ _______ _______ _____ _____    ______ ____
ROOT
ATOM      1  C   UNL     1       5.647   4.782  16.677  0.00  0.00    +0.000 A 
ATOM      2  C   UNL     1       4.903   3.783  17.356  0.00  0.00    +0.000 A 
ATOM      3  C   UNL     1       4.215   4.427  18.365  0.00  0.00    +0.000 A 
ATOM      4  N   UNL     1       4.596   5.741  18.250  0.00  0.00    +0.000 N 
ATOM      5  N   UNL     1       5.452   5.991  17.242  0.00  0.00    +0.000 NA
ATOM      6  H   UNL     1       4.312   6.515  18.840  0.00  0.00    +0.000 HD
ENDROOT
BRANCH   3   7
ATOM      7  C   UNL     1       3.296   3.917  19.384  0.00  0.00    +0.000 A 
ATOM      8  C   UNL     1       1.974   4.390  19.439  0.00  0.00    +0.000 A 
ATOM      9  C   UNL     1       1.086   3.922  20.412  0.00  0.00    +0.000 A 
ATOM     10  C   UNL     1       1.518   2.982  21.337  0.00  0.00    +0.000 A 
ATOM     11  F   UNL     1       0.670   2.535  22.273  0.00  0.00    +0.000 F 
ATOM     12  C   UNL     1       2.820   2.501  21.308  0.00  0.00    +0.000 A 
ATOM     13  C   UNL     1       3.709   2.967  20.332  0.00  0.00    +0.000 A 
ENDBRANCH   3   7
BRANCH   1  15
ATOM     14  N   UNL     1       5.857   4.200  14.365  0.00  0.00    +0.000 N 
ATOM     15  C   UNL     1       6.525   4.578  15.511  0.00  0.00    +0.000 C 
ATOM     16  O   UNL     1       7.742   4.727  15.563  0.00  0.00    +0.000 OA
ATOM     17  H   UNL     1       4.847   4.117  14.447  0.00  0.00    +0.000 HD
BRANCH  14  18
ATOM     18  C   UNL     1       6.532   4.004  13.096  0.00  0.00    +0.000 C 
BRANCH  18  19
ATOM     19  C   UNL     1       5.686   3.204  12.115  0.00  0.00    +0.000 C 
BRANCH  19  21
ATOM     20  O   UNL     1       7.595   2.108  11.087  0.00  0.00    +0.000 OA
ATOM     21  C   UNL     1       6.458   2.036  11.546  0.00  0.00    +0.000 C 
ATOM     22  N   UNL     1       5.759   0.853  11.568  0.00  0.00    +0.000 N 
ATOM     23  H   UNL     1       4.877   0.707  12.046  0.00  0.00    +0.000 HD
BRANCH  22  24
ATOM     24  O   UNL     1       6.441  -0.294  11.108  0.00  0.00    +0.000 OA
ATOM     25  H   UNL     1       7.223  -0.327  11.702  0.00  0.00    +0.000 HD
ENDBRANCH  22  24
ENDBRANCH  19  21
ENDBRANCH  18  19
ENDBRANCH  14  18
ENDBRANCH   1  15
TORSDOF 6
ENDMDL
MODEL 6
REMARK VINA RESULT:      -7.5      1.534      1.803
REMARK  Name = 
REMARK  6 active torsions:
REMARK  status: ('A' for Active; 'I' for Inactive)
REMARK    1  A    between atoms: C_2  and  C_3
REMARK    2  A    between atoms: C_3  and  C_4
REMARK    3  A    between atoms: C_4  and  N_5
REMARK    4  A    between atoms: C_6  and  C_8
REMARK    5  A    between atoms: C_10  and  C_11
REMARK    6  A    between atoms: N_20  and  O_21
REMARK                            x       y       z     vdW  Elec       q    Type
REMARK                         _______ _______ _______ _____ _____    ______ ____
ROOT
ATOM      1  C   UNL     1       5.472   5.422  16.650  0.00  0.00    +0.000 A 
ATOM      2  C   UNL     1       5.160   4.431  17.616  0.00  0.00    +0.000 A 
ATOM      3  C   UNL     1       3.955   4.799  18.180  0.00  0.00    +0.000 A 
ATOM      4  N   UNL     1       3.632   5.975  17.549  0.00  0.00    +0.000 N 
ATOM      5  N   UNL     1       4.520   6.377  16.620  0.00  0.00    +0.000 NA
ATOM      6  H   UNL     1       2.820   6.559  17.719  0.00  0.00    +0.000 HD
ENDROOT
BRANCH   3   7
ATOM      7  C   UNL     1       3.145   4.170  19.224  0.00  0.00    +0.000 A 
ATOM      8  C   UNL     1       1.816   4.580  19.427  0.00  0.00    +0.000 A 
ATOM      9  C   UNL     1       1.032   3.996  20.426  0.00  0.00    +0.000 A 
ATOM     10  C   UNL     1       1.575   3.004  21.230  0.00  0.00    +0.000 A 
ATOM     11  F   UNL     1       0.826   2.446  22.191  0.00  0.00    +0.000 F 
ATOM     12  C   UNL     1       2.887   2.584  21.054  0.00  0.00    +0.000 A 
ATOM     13  C   UNL     1       3.672   3.164  20.051  0.00  0.00    +0.000 A 
ENDBRANCH   3   7
BRANCH   1  15
ATOM     14  N   UNL     1       6.503   4.750  14.597  0.00  0.00    +0.000 N 
ATOM     15  C   UNL     1       6.658   5.449  15.776  0.00  0.00    +0.000 C 
ATOM     16  O   UNL     1       7.690   6.040  16.078  0.00  0.00    +0.000 OA
ATOM     17  H   UNL     1       5.598   4.309  14.459  0.00  0.00    +0.000 HD
BRANCH  14  18
ATOM     18  C   UNL     1       7.532   4.701  13.577  0.00  0.00    +0.000 C 
BRANCH  18  19
ATOM     19  C   UNL     1       6.947   4.550  12.179  0.00  0.00    +0.000 C 
BRANCH  19  21
ATOM     20  O   UNL     1       4.846   3.335  12.293  0.00  0.00    +0.000 OA
ATOM     21  C   UNL     1       6.056   3.333  12.083  0.00  0.00    +0.000 C 
ATOM     22  N   UNL     1       6.731   2.184  11.746  0.00  0.00    +0.000 N 
ATOM     23  H   UNL     1       7.696   2.146  11.437  0.00  0.00    +0.000 HD
BRANCH  22  24
ATOM     24  O   UNL     1       5.953   1.019  11.577  0.00  0.00    +0.000 OA
ATOM     25  H   UNL     1       5.132   1.239  12.071  0.00  0.00    +0.000 HD
ENDBRANCH  22  24
ENDBRANCH  19  21
ENDBRANCH  18  19
ENDBRANCH  14  18
ENDBRANCH   1  15
TORSDOF 6
ENDMDL
MODEL 7
REMARK VINA RESULT:      -7.5      3.910      5.317
REMARK  Name = 
REMARK  6 active torsions:
REMARK  status: ('A' for Active; 'I' for Inactive)
REMARK    1  A    between atoms: C_2  and  C_3
REMARK    2  A    between atoms: C_3  and  C_4
REMARK    3  A    between atoms: C_4  and  N_5
REMARK    4  A    between atoms: C_6  and  C_8
REMARK    5  A    between atoms: C_10  and  C_11
REMARK    6  A    between atoms: N_20  and  O_21
REMARK                            x       y       z     vdW  Elec       q    Type
REMARK                         _______ _______ _______ _____ _____    ______ ____
ROOT
ATOM      1  C   UNL     1       4.388   5.341  18.507  0.00  0.00    +0.000 A 
ATOM      2  C   UNL     1       3.673   6.475  18.042  0.00  0.00    +0.000 A 
ATOM      3  C   UNL     1       2.896   6.908  19.099  0.00  0.00    +0.000 A 
ATOM      4  N   UNL     1       3.167   6.015  20.106  0.00  0.00    +0.000 N 
ATOM      5  N   UNL     1       4.064   5.062  19.787  0.00  0.00    +0.000 NA
ATOM      6  H   UNL     1       2.760   5.997  21.035  0.00  0.00    +0.000 HD
ENDROOT
BRANCH   3   7
ATOM      7  C   UNL     1       1.957   8.024  19.212  0.00  0.00    +0.000 A 
ATOM      8  C   UNL     1       1.625   8.784  18.078  0.00  0.00    +0.000 A 
ATOM      9  C   UNL     1       0.736   9.859  18.171  0.00  0.00    +0.000 A 
ATOM     10  C   UNL     1       0.181  10.183  19.401  0.00  0.00    +0.000 A 
ATOM     11  F   UNL     1      -0.667  11.217  19.493  0.00  0.00    +0.000 F 
ATOM     12  C   UNL     1       0.496   9.453  20.539  0.00  0.00    +0.000 A 
ATOM     13  C   UNL     1       1.382   8.373  20.446  0.00  0.00    +0.000 A 
ENDBRANCH   3   7
BRANCH   1  15
ATOM     14  N   UNL     1       4.934   4.207  16.472  0.00  0.00    +0.000 N 
ATOM     15  C   UNL     1       5.361   4.545  17.739  0.00  0.00    +0.000 C 
ATOM     16  O   UNL     1       6.451   4.212  18.194  0.00  0.00    +0.000 OA
ATOM     17  H   UNL     1       4.014   4.549  16.208  0.00  0.00    +0.000 HD
BRANCH  14  18
ATOM     18  C   UNL     1       5.766   3.475  15.537  0.00  0.00    +0.000 C 
BRANCH  18  19
ATOM     19  C   UNL     1       6.003   4.253  14.249  0.00  0.00    +0.000 C 
BRANCH  19  21
ATOM     20  O   UNL     1       7.606   5.666  15.404  0.00  0.00    +0.000 OA
ATOM     21  C   UNL     1       7.214   5.149  14.361  0.00  0.00    +0.000 C 
ATOM     22  N   UNL     1       7.854   5.359  13.164  0.00  0.00    +0.000 N 
ATOM     23  H   UNL     1       7.657   4.861  12.303  0.00  0.00    +0.000 HD
BRANCH  22  24
ATOM     24  O   UNL     1       9.032   6.137  13.203  0.00  0.00    +0.000 OA
ATOM     25  H   UNL     1       8.934   6.626  14.050  0.00  0.00    +0.000 HD
ENDBRANCH  22  24
ENDBRANCH  19  21
ENDBRANCH  18  19
ENDBRANCH  14  18
ENDBRANCH   1  15
TORSDOF 6
ENDMDL
MODEL 8
REMARK VINA RESULT:      -7.4      1.392      1.928
REMARK  Name = 
REMARK  6 active torsions:
REMARK  status: ('A' for Active; 'I' for Inactive)
REMARK    1  A    between atoms: C_2  and  C_3
REMARK    2  A    between atoms: C_3  and  C_4
REMARK    3  A    between atoms: C_4  and  N_5
REMARK    4  A    between atoms: C_6  and  C_8
REMARK    5  A    between atoms: C_10  and  C_11
REMARK    6  A    between atoms: N_20  and  O_21
REMARK                            x       y       z     vdW  Elec       q    Type
REMARK                         _______ _______ _______ _____ _____    ______ ____
ROOT
ATOM      1  C   UNL     1       5.544   4.968  16.710  0.00  0.00    +0.000 A 
ATOM      2  C   UNL     1       4.255   4.841  17.289  0.00  0.00    +0.000 A 
ATOM      3  C   UNL     1       4.428   4.173  18.485  0.00  0.00    +0.000 A 
ATOM      4  N   UNL     1       5.777   3.924  18.542  0.00  0.00    +0.000 N 
ATOM      5  N   UNL     1       6.479   4.393  17.492  0.00  0.00    +0.000 NA
ATOM      6  H   UNL     1       6.279   3.426  19.269  0.00  0.00    +0.000 HD
ENDROOT
BRANCH   3   7
ATOM      7  C   UNL     1       3.467   3.758  19.508  0.00  0.00    +0.000 A 
ATOM      8  C   UNL     1       3.769   2.688  20.366  0.00  0.00    +0.000 A 
ATOM      9  C   UNL     1       2.858   2.273  21.342  0.00  0.00    +0.000 A 
ATOM     10  C   UNL     1       1.637   2.923  21.459  0.00  0.00    +0.000 A 
ATOM     11  F   UNL     1       0.761   2.524  22.391  0.00  0.00    +0.000 F 
ATOM     12  C   UNL     1       1.311   3.980  20.620  0.00  0.00    +0.000 A 
ATOM     13  C   UNL     1       2.224   4.399  19.646  0.00  0.00    +0.000 A 
ENDBRANCH   3   7
BRANCH   1  15
ATOM     14  N   UNL     1       6.820   4.970  14.685  0.00  0.00    +0.000 N 
ATOM     15  C   UNL     1       5.867   5.629  15.433  0.00  0.00    +0.000 C 
ATOM     16  O   UNL     1       5.335   6.675  15.075  0.00  0.00    +0.000 OA
ATOM     17  H   UNL     1       7.180   4.108  15.086  0.00  0.00    +0.000 HD
BRANCH  14  18
ATOM     18  C   UNL     1       7.236   5.426  13.373  0.00  0.00    +0.000 C 
BRANCH  18  19
ATOM     19  C   UNL     1       7.576   4.268  12.445  0.00  0.00    +0.000 C 
BRANCH  19  21
ATOM     20  O   UNL     1       5.234   3.630  12.550  0.00  0.00    +0.000 OA
ATOM     21  C   UNL     1       6.392   3.348  12.253  0.00  0.00    +0.000 C 
ATOM     22  N   UNL     1       6.726   2.128  11.718  0.00  0.00    +0.000 N 
ATOM     23  H   UNL     1       7.635   1.888  11.337  0.00  0.00    +0.000 HD
BRANCH  22  24
ATOM     24  O   UNL     1       5.662   1.240  11.454  0.00  0.00    +0.000 OA
ATOM     25  H   UNL     1       4.957   1.568  12.055  0.00  0.00    +0.000 HD
ENDBRANCH  22  24
ENDBRANCH  19  21
ENDBRANCH  18  19
ENDBRANCH  14  18
ENDBRANCH   1  15
TORSDOF 6
ENDMDL
MODEL 9
REMARK VINA RESULT:      -7.3      1.447      2.024
REMARK  Name = 
REMARK  6 active torsions:
REMARK  status: ('A' for Active; 'I' for Inactive)
REMARK    1  A    between atoms: C_2  and  C_3
REMARK    2  A    between atoms: C_3  and  C_4
REMARK    3  A    between atoms: C_4  and  N_5
REMARK    4  A    between atoms: C_6  and  C_8
REMARK    5  A    between atoms: C_10  and  C_11
REMARK    6  A    between atoms: N_20  and  O_21
REMARK                            x       y       z     vdW  Elec       q    Type
REMARK                         _______ _______ _______ _____ _____    ______ ____
ROOT
ATOM      1  C   UNL     1       6.157   4.579  17.072  0.00  0.00    +0.000 A 
ATOM      2  C   UNL     1       4.830   4.230  17.434  0.00  0.00    +0.000 A 
ATOM      3  C   UNL     1       4.829   4.069  18.805  0.00  0.00    +0.000 A 
ATOM      4  N   UNL     1       6.130   4.304  19.175  0.00  0.00    +0.000 N 
ATOM      5  N   UNL     1       6.955   4.618  18.159  0.00  0.00    +0.000 NA
ATOM      6  H   UNL     1       6.520   4.253  20.110  0.00  0.00    +0.000 HD
ENDROOT
BRANCH   3   7
ATOM      7  C   UNL     1       3.756   3.709  19.734  0.00  0.00    +0.000 A 
ATOM      8  C   UNL     1       3.860   2.546  20.514  0.00  0.00    +0.000 A 
ATOM      9  C   UNL     1       2.840   2.183  21.398  0.00  0.00    +0.000 A 
ATOM     10  C   UNL     1       1.709   2.980  21.501  0.00  0.00    +0.000 A 
ATOM     11  F   UNL     1       0.728   2.632  22.346  0.00  0.00    +0.000 F 
ATOM     12  C   UNL     1       1.578   4.133  20.739  0.00  0.00    +0.000 A 
ATOM     13  C   UNL     1       2.601   4.499  19.856  0.00  0.00    +0.000 A 
ENDBRANCH   3   7
BRANCH   1  15
ATOM     14  N   UNL     1       5.900   4.285  14.711  0.00  0.00    +0.000 N 
ATOM     15  C   UNL     1       6.645   4.870  15.712  0.00  0.00    +0.000 C 
ATOM     16  O   UNL     1       7.631   5.568  15.497  0.00  0.00    +0.000 OA
ATOM     17  H   UNL     1       5.101   3.734  15.016  0.00  0.00    +0.000 HD
BRANCH  14  18
ATOM     18  C   UNL     1       6.181   4.493  13.303  0.00  0.00    +0.000 C 
BRANCH  18  19
ATOM     19  C   UNL     1       6.653   3.217  12.619  0.00  0.00    +0.000 C 
BRANCH  19  21
ATOM     20  O   UNL     1       5.613   1.499  11.251  0.00  0.00    +0.000 OA
ATOM     21  C   UNL     1       5.561   2.613  11.765  0.00  0.00    +0.000 C 
ATOM     22  N   UNL     1       4.479   3.442  11.591  0.00  0.00    +0.000 N 
ATOM     23  H   UNL     1       4.325   4.310  12.090  0.00  0.00    +0.000 HD
BRANCH  22  24
ATOM     24  O   UNL     1       3.394   2.919  10.855  0.00  0.00    +0.000 OA
ATOM     25  H   UNL     1       2.816   3.706  10.743  0.00  0.00    +0.000 HD
ENDBRANCH  22  24
ENDBRANCH  19  21
ENDBRANCH  18  19
ENDBRANCH  14  18
ENDBRANCH   1  15
TORSDOF 6
ENDMDL
