MODEL 1
REMARK VINA RESULT:      -8.9      0.000      0.000
REMARK  Name = 
REMARK  11 active torsions:
REMARK  status: ('A' for Active; 'I' for Inactive)
REMARK    1  A    between atoms: C_1  and  N_2
REMARK    2  A    between atoms: N_2  and  C_3
REMARK    3  A    between atoms: N_2  and  C_4
REMARK    4  A    between atoms: C_7  and  O_8
REMARK    5  A    between atoms: C_9  and  C_10
REMARK    6  A    between atoms: C_10  and  N_11
REMARK    7  A    between atoms: N_11  and  C_12
REMARK    8  A    between atoms: C_15  and  C_16
REMARK    9  A    between atoms: C_17  and  C_18
REMARK   10  A    between atoms: C_20  and  O_21
REMARK   11  A    between atoms: C_23  and  O_24
REMARK                            x       y       z     vdW  Elec       q    Type
REMARK                         _______ _______ _______ _____ _____    ______ ____
ROOT
ATOM      1  C   UNL     1       6.238   4.835  17.377  0.00  0.00    +0.000 A 
ATOM      2  C   UNL     1       6.214   6.040  16.665  0.00  0.00    +0.000 A 
ATOM      3  C   UNL     1       6.978   7.129  17.072  0.00  0.00    +0.000 A 
ATOM      4  C   UNL     1       7.781   7.049  18.228  0.00  0.00    +0.000 A 
ATOM      5  C   UNL     1       7.800   5.841  18.949  0.00  0.00    +0.000 A 
ATOM      6  C   UNL     1       7.043   4.741  18.527  0.00  0.00    +0.000 A 
ENDROOT
BRANCH   1   7
ATOM      7  N   UNL     1       5.467   3.741  16.887  0.00  0.00    +0.000 N 
ATOM      8  H   UNL     1       5.937   2.825  16.840  0.00  0.00    +0.000 HD
BRANCH   7   9
ATOM      9  C   UNL     1       4.019   3.786  16.773  0.00  0.00    +0.000 C 
BRANCH   9  14
ATOM     10  C   UNL     1       2.431   6.112  19.377  0.00  0.00    +0.000 A 
ATOM     11  C   UNL     1       2.243   5.218  20.453  0.00  0.00    +0.000 A 
ATOM     12  C   UNL     1       2.619   3.879  20.342  0.00  0.00    +0.000 A 
ATOM     13  C   UNL     1       3.194   3.390  19.162  0.00  0.00    +0.000 A 
ATOM     14  C   UNL     1       3.405   4.263  18.077  0.00  0.00    +0.000 A 
ATOM     15  C   UNL     1       3.023   5.609  18.200  0.00  0.00    +0.000 A 
BRANCH  10  17
ATOM     16  C   UNL     1       1.472   8.028  20.709  0.00  0.00    +0.000 C 
ATOM     17  N   UNL     1       2.025   7.494  19.471  0.00  0.00    +0.000 N 
ATOM     18  C   UNL     1       2.146   8.379  18.319  0.00  0.00    +0.000 C 
ENDBRANCH  10  17
BRANCH  13  19
ATOM     19  O   UNL     1       3.531   2.086  19.073  0.00  0.00    +0.000 OA
ATOM     20  H   UNL     1       3.338   1.553  18.287  0.00  0.00    +0.000 HD
ENDBRANCH  13  19
ENDBRANCH   9  14
ENDBRANCH   7   9
ENDBRANCH   1   7
BRANCH   4  21
ATOM     21  C   UNL     1       8.615   8.185  18.716  0.00  0.00    +0.000 C 
ATOM     22  C   UNL     1       8.549   9.441  18.224  0.00  0.00    +0.000 C 
BRANCH  22  23
ATOM     23  C   UNL     1       9.380  10.587  18.689  0.00  0.00    +0.000 A 
ATOM     24  C   UNL     1      10.154  11.385  17.820  0.00  0.00    +0.000 A 
ATOM     25  C   UNL     1      10.905  12.457  18.321  0.00  0.00    +0.000 A 
ATOM     26  C   UNL     1      10.891  12.741  19.690  0.00  0.00    +0.000 A 
ATOM     27  C   UNL     1      10.129  11.956  20.563  0.00  0.00    +0.000 A 
ATOM     28  C   UNL     1       9.379  10.889  20.061  0.00  0.00    +0.000 A 
BRANCH  25  29
ATOM     29  O   UNL     1      11.644  13.226  17.494  0.00  0.00    +0.000 OA
ATOM     30  H   UNL     1      12.133  12.852  16.747  0.00  0.00    +0.000 HD
ENDBRANCH  25  29
BRANCH  27  31
ATOM     31  O   UNL     1      10.105  12.219  21.885  0.00  0.00    +0.000 OA
ATOM     32  H   UNL     1       9.402  12.743  22.293  0.00  0.00    +0.000 HD
ENDBRANCH  27  31
ENDBRANCH  22  23
ENDBRANCH   4  21
TORSDOF 9
ENDMDL
MODEL 2
REMARK VINA RESULT:      -8.8      0.889      1.712
REMARK  Name = 
REMARK  11 active torsions:
REMARK  status: ('A' for Active; 'I' for Inactive)
REMARK    1  A    between atoms: C_1  and  N_2
REMARK    2  A    between atoms: N_2  and  C_3
REMARK    3  A    between atoms: N_2  and  C_4
REMARK    4  A    between atoms: C_7  and  O_8
REMARK    5  A    between atoms: C_9  and  C_10
REMARK    6  A    between atoms: C_10  and  N_11
REMARK    7  A    between atoms: N_11  and  C_12
REMARK    8  A    between atoms: C_15  and  C_16
REMARK    9  A    between atoms: C_17  and  C_18
REMARK   10  A    between atoms: C_20  and  O_21
REMARK   11  A    between atoms: C_23  and  O_24
REMARK                            x       y       z     vdW  Elec       q    Type
REMARK                         _______ _______ _______ _____ _____    ______ ____
ROOT
ATOM      1  C   UNL     1       6.033   4.815  17.452  0.00  0.00    +0.000 A 
ATOM      2  C   UNL     1       6.779   4.805  18.636  0.00  0.00    +0.000 A 
ATOM      3  C   UNL     1       7.579   5.888  18.988  0.00  0.00    +0.000 A 
ATOM      4  C   UNL     1       7.672   7.014  18.146  0.00  0.00    +0.000 A 
ATOM      5  C   UNL     1       6.927   7.022  16.952  0.00  0.00    +0.000 A 
ATOM      6  C   UNL     1       6.109   5.939  16.609  0.00  0.00    +0.000 A 
ENDROOT
BRANCH   1   7
ATOM      7  N   UNL     1       5.198   3.696  17.166  0.00  0.00    +0.000 N 
ATOM      8  H   UNL     1       5.622   2.761  17.269  0.00  0.00    +0.000 HD
BRANCH   7   9
ATOM      9  C   UNL     1       3.753   3.796  17.065  0.00  0.00    +0.000 C 
BRANCH   9  14
ATOM     10  C   UNL     1       2.272   6.280  19.585  0.00  0.00    +0.000 A 
ATOM     11  C   UNL     1       2.079   5.440  20.704  0.00  0.00    +0.000 A 
ATOM     12  C   UNL     1       2.416   4.088  20.647  0.00  0.00    +0.000 A 
ATOM     13  C   UNL     1       2.958   3.531  19.482  0.00  0.00    +0.000 A 
ATOM     14  C   UNL     1       3.174   4.348  18.355  0.00  0.00    +0.000 A 
ATOM     15  C   UNL     1       2.830   5.708  18.423  0.00  0.00    +0.000 A 
BRANCH  10  17
ATOM     16  C   UNL     1       1.393   8.280  20.845  0.00  0.00    +0.000 C 
ATOM     17  N   UNL     1       1.904   7.675  19.622  0.00  0.00    +0.000 N 
ATOM     18  C   UNL     1       2.025   8.502  18.428  0.00  0.00    +0.000 C 
ENDBRANCH  10  17
BRANCH  13  19
ATOM     19  O   UNL     1       3.259   2.215  19.447  0.00  0.00    +0.000 OA
ATOM     20  H   UNL     1       4.021   1.844  19.916  0.00  0.00    +0.000 HD
ENDBRANCH  13  19
ENDBRANCH   9  14
ENDBRANCH   7   9
ENDBRANCH   1   7
BRANCH   4  21
ATOM     21  C   UNL     1       8.518   8.199  18.468  0.00  0.00    +0.000 C 
ATOM     22  C   UNL     1       8.228   9.464  18.092  0.00  0.00    +0.000 C 
BRANCH  22  23
ATOM     23  C   UNL     1       9.063  10.660  18.392  0.00  0.00    +0.000 A 
ATOM     24  C   UNL     1      10.147  10.642  19.296  0.00  0.00    +0.000 A 
ATOM     25  C   UNL     1      10.901  11.801  19.524  0.00  0.00    +0.000 A 
ATOM     26  C   UNL     1      10.579  12.987  18.857  0.00  0.00    +0.000 A 
ATOM     27  C   UNL     1       9.505  13.020  17.959  0.00  0.00    +0.000 A 
ATOM     28  C   UNL     1       8.756  11.862  17.731  0.00  0.00    +0.000 A 
BRANCH  25  29
ATOM     29  O   UNL     1      11.940  11.788  20.384  0.00  0.00    +0.000 OA
ATOM     30  H   UNL     1      12.694  11.191  20.268  0.00  0.00    +0.000 HD
ENDBRANCH  25  29
BRANCH  27  31
ATOM     31  O   UNL     1       9.185  14.155  17.307  0.00  0.00    +0.000 OA
ATOM     32  H   UNL     1       8.282  14.346  17.020  0.00  0.00    +0.000 HD
ENDBRANCH  27  31
ENDBRANCH  22  23
ENDBRANCH   4  21
TORSDOF 9
ENDMDL
MODEL 3
REMARK VINA RESULT:      -8.7      0.783      1.493
REMARK  Name = 
REMARK  11 active torsions:
REMARK  status: ('A' for Active; 'I' for Inactive)
REMARK    1  A    between atoms: C_1  and  N_2
REMARK    2  A    between atoms: N_2  and  C_3
REMARK    3  A    between atoms: N_2  and  C_4
REMARK    4  A    between atoms: C_7  and  O_8
REMARK    5  A    between atoms: C_9  and  C_10
REMARK    6  A    between atoms: C_10  and  N_11
REMARK    7  A    between atoms: N_11  and  C_12
REMARK    8  A    between atoms: C_15  and  C_16
REMARK    9  A    between atoms: C_17  and  C_18
REMARK   10  A    between atoms: C_20  and  O_21
REMARK   11  A    between atoms: C_23  and  O_24
REMARK                            x       y       z     vdW  Elec       q    Type
REMARK                         _______ _______ _______ _____ _____    ______ ____
ROOT
ATOM      1  C   UNL     1       6.310   4.828  17.140  0.00  0.00    +0.000 A 
ATOM      2  C   UNL     1       6.225   6.025  16.420  0.00  0.00    +0.000 A 
ATOM      3  C   UNL     1       6.919   7.160  16.831  0.00  0.00    +0.000 A 
ATOM      4  C   UNL     1       7.709   7.134  17.997  0.00  0.00    +0.000 A 
ATOM      5  C   UNL     1       7.789   5.932  18.726  0.00  0.00    +0.000 A 
ATOM      6  C   UNL     1       7.104   4.788  18.301  0.00  0.00    +0.000 A 
ENDROOT
BRANCH   1   7
ATOM      7  N   UNL     1       5.612   3.688  16.647  0.00  0.00    +0.000 N 
ATOM      8  H   UNL     1       6.164   2.829  16.506  0.00  0.00    +0.000 HD
BRANCH   7   9
ATOM      9  C   UNL     1       4.163   3.589  16.651  0.00  0.00    +0.000 C 
BRANCH   9  14
ATOM     10  C   UNL     1       2.598   5.788  19.377  0.00  0.00    +0.000 A 
ATOM     11  C   UNL     1       2.559   4.882  20.460  0.00  0.00    +0.000 A 
ATOM     12  C   UNL     1       3.027   3.576  20.314  0.00  0.00    +0.000 A 
ATOM     13  C   UNL     1       3.549   3.133  19.092  0.00  0.00    +0.000 A 
ATOM     14  C   UNL     1       3.611   4.018  17.999  0.00  0.00    +0.000 A 
ATOM     15  C   UNL     1       3.138   5.331  18.157  0.00  0.00    +0.000 A 
BRANCH  10  17
ATOM     16  C   UNL     1       1.468   7.581  20.745  0.00  0.00    +0.000 C 
ATOM     17  N   UNL     1       2.095   7.135  19.508  0.00  0.00    +0.000 N 
ATOM     18  C   UNL     1       2.193   8.070  18.395  0.00  0.00    +0.000 C 
ENDBRANCH  10  17
BRANCH  13  19
ATOM     19  O   UNL     1       3.977   1.857  18.971  0.00  0.00    +0.000 OA
ATOM     20  H   UNL     1       4.864   1.581  19.244  0.00  0.00    +0.000 HD
ENDBRANCH  13  19
ENDBRANCH   9  14
ENDBRANCH   7   9
ENDBRANCH   1   7
BRANCH   4  21
ATOM     21  C   UNL     1       8.468   8.319  18.489  0.00  0.00    +0.000 C 
ATOM     22  C   UNL     1       8.346   9.564  17.978  0.00  0.00    +0.000 C 
BRANCH  22  23
ATOM     23  C   UNL     1       9.102  10.759  18.446  0.00  0.00    +0.000 A 
ATOM     24  C   UNL     1       9.977  10.739  19.553  0.00  0.00    +0.000 A 
ATOM     25  C   UNL     1      10.667  11.898  19.934  0.00  0.00    +0.000 A 
ATOM     26  C   UNL     1      10.489  13.085  19.217  0.00  0.00    +0.000 A 
ATOM     27  C   UNL     1       9.622  13.120  18.118  0.00  0.00    +0.000 A 
ATOM     28  C   UNL     1       8.937  11.962  17.739  0.00  0.00    +0.000 A 
BRANCH  25  29
ATOM     29  O   UNL     1      11.508  11.883  20.989  0.00  0.00    +0.000 OA
ATOM     30  H   UNL     1      11.686  12.677  21.513  0.00  0.00    +0.000 HD
ENDBRANCH  25  29
BRANCH  27  31
ATOM     31  O   UNL     1       9.443  14.256  17.417  0.00  0.00    +0.000 OA
ATOM     32  H   UNL     1      10.002  14.490  16.664  0.00  0.00    +0.000 HD
ENDBRANCH  27  31
ENDBRANCH  22  23
ENDBRANCH   4  21
TORSDOF 9
ENDMDL
MODEL 4
REMARK VINA RESULT:      -8.6      0.667      1.789
REMARK  Name = 
REMARK  11 active torsions:
REMARK  status: ('A' for Active; 'I' for Inactive)
REMARK    1  A    between atoms: C_1  and  N_2
REMARK    2  A    between atoms: N_2  and  C_3
REMARK    3  A    between atoms: N_2  and  C_4
REMARK    4  A    between atoms: C_7  and  O_8
REMARK    5  A    between atoms: C_9  and  C_10
REMARK    6  A    between atoms: C_10  and  N_11
REMARK    7  A    between atoms: N_11  and  C_12
REMARK    8  A    between atoms: C_15  and  C_16
REMARK    9  A    between atoms: C_17  and  C_18
REMARK   10  A    between atoms: C_20  and  O_21
REMARK   11  A    between atoms: C_23  and  O_24
REMARK                            x       y       z     vdW  Elec       q    Type
REMARK                         _______ _______ _______ _____ _____    ______ ____
ROOT
ATOM      1  C   UNL     1       6.226   4.963  17.659  0.00  0.00    +0.000 A 
ATOM      2  C   UNL     1       5.965   5.933  16.685  0.00  0.00    +0.000 A 
ATOM      3  C   UNL     1       6.624   7.159  16.699  0.00  0.00    +0.000 A 
ATOM      4  C   UNL     1       7.558   7.459  17.711  0.00  0.00    +0.000 A 
ATOM      5  C   UNL     1       7.815   6.487  18.696  0.00  0.00    +0.000 A 
ATOM      6  C   UNL     1       7.163   5.248  18.669  0.00  0.00    +0.000 A 
ENDROOT
BRANCH   1   7
ATOM      7  N   UNL     1       5.552   3.711  17.568  0.00  0.00    +0.000 N 
ATOM      8  H   UNL     1       5.995   2.908  18.040  0.00  0.00    +0.000 HD
BRANCH   7   9
ATOM      9  C   UNL     1       4.167   3.590  17.146  0.00  0.00    +0.000 C 
BRANCH   9  14
ATOM     10  C   UNL     1       2.153   5.803  19.546  0.00  0.00    +0.000 A 
ATOM     11  C   UNL     1       1.514   4.824  20.337  0.00  0.00    +0.000 A 
ATOM     12  C   UNL     1       1.723   3.466  20.098  0.00  0.00    +0.000 A 
ATOM     13  C   UNL     1       2.576   3.041  19.071  0.00  0.00    +0.000 A 
ATOM     14  C   UNL     1       3.237   3.995  18.275  0.00  0.00    +0.000 A 
ATOM     15  C   UNL     1       3.018   5.360  18.524  0.00  0.00    +0.000 A 
BRANCH  10  17
ATOM     16  C   UNL     1       2.204   8.186  18.720  0.00  0.00    +0.000 C 
ATOM     17  N   UNL     1       1.926   7.212  19.767  0.00  0.00    +0.000 N 
ATOM     18  C   UNL     1       1.429   7.686  21.052  0.00  0.00    +0.000 C 
ENDBRANCH  10  17
BRANCH  13  19
ATOM     19  O   UNL     1       2.747   1.719  18.848  0.00  0.00    +0.000 OA
ATOM     20  H   UNL     1       3.591   1.349  18.550  0.00  0.00    +0.000 HD
ENDBRANCH  13  19
ENDBRANCH   9  14
ENDBRANCH   7   9
ENDBRANCH   1   7
BRANCH   4  21
ATOM     21  C   UNL     1       8.288   8.757  17.781  0.00  0.00    +0.000 C 
ATOM     22  C   UNL     1       8.772   9.296  18.922  0.00  0.00    +0.000 C 
BRANCH  22  23
ATOM     23  C   UNL     1       9.494  10.595  19.016  0.00  0.00    +0.000 A 
ATOM     24  C   UNL     1       9.540  11.372  20.194  0.00  0.00    +0.000 A 
ATOM     25  C   UNL     1      10.248  12.581  20.219  0.00  0.00    +0.000 A 
ATOM     26  C   UNL     1      10.913  13.026  19.072  0.00  0.00    +0.000 A 
ATOM     27  C   UNL     1      10.873  12.266  17.897  0.00  0.00    +0.000 A 
ATOM     28  C   UNL     1      10.169  11.060  17.875  0.00  0.00    +0.000 A 
BRANCH  25  29
ATOM     29  O   UNL     1      10.299  13.326  21.343  0.00  0.00    +0.000 OA
ATOM     30  H   UNL     1      10.655  12.977  22.173  0.00  0.00    +0.000 HD
ENDBRANCH  25  29
BRANCH  27  31
ATOM     31  O   UNL     1      11.511  12.682  16.784  0.00  0.00    +0.000 OA
ATOM     32  H   UNL     1      12.025  12.079  16.230  0.00  0.00    +0.000 HD
ENDBRANCH  27  31
ENDBRANCH  22  23
ENDBRANCH   4  21
TORSDOF 9
ENDMDL
MODEL 5
REMARK VINA RESULT:      -8.4      0.635      1.280
REMARK  Name = 
REMARK  11 active torsions:
REMARK  status: ('A' for Active; 'I' for Inactive)
REMARK    1  A    between atoms: C_1  and  N_2
REMARK    2  A    between atoms: N_2  and  C_3
REMARK    3  A    between atoms: N_2  and  C_4
REMARK    4  A    between atoms: C_7  and  O_8
REMARK    5  A    between atoms: C_9  and  C_10
REMARK    6  A    between atoms: C_10  and  N_11
REMARK    7  A    between atoms: N_11  and  C_12
REMARK    8  A    between atoms: C_15  and  C_16
REMARK    9  A    between atoms: C_17  and  C_18
REMARK   10  A    between atoms: C_20  and  O_21
REMARK   11  A    between atoms: C_23  and  O_24
REMARK                            x       y       z     vdW  Elec       q    Type
REMARK                         _______ _______ _______ _____ _____    ______ ____
ROOT
ATOM      1  C   UNL     1       5.473   5.232  16.988  0.00  0.00    +0.000 A 
ATOM      2  C   UNL     1       6.530   4.778  17.785  0.00  0.00    +0.000 A 
ATOM      3  C   UNL     1       7.500   5.657  18.258  0.00  0.00    +0.000 A 
ATOM      4  C   UNL     1       7.450   7.026  17.926  0.00  0.00    +0.000 A 
ATOM      5  C   UNL     1       6.391   7.482  17.119  0.00  0.00    +0.000 A 
ATOM      6  C   UNL     1       5.407   6.598  16.658  0.00  0.00    +0.000 A 
ENDROOT
BRANCH   1   7
ATOM      7  N   UNL     1       4.487   4.292  16.568  0.00  0.00    +0.000 N 
ATOM      8  H   UNL     1       4.351   4.183  15.552  0.00  0.00    +0.000 HD
BRANCH   7   9
ATOM      9  C   UNL     1       3.927   3.288  17.456  0.00  0.00    +0.000 C 
BRANCH   9  14
ATOM     10  C   UNL     1       2.270   6.021  19.578  0.00  0.00    +0.000 A 
ATOM     11  C   UNL     1       1.795   5.259  20.668  0.00  0.00    +0.000 A 
ATOM     12  C   UNL     1       2.001   3.881  20.718  0.00  0.00    +0.000 A 
ATOM     13  C   UNL     1       2.686   3.219  19.692  0.00  0.00    +0.000 A 
ATOM     14  C   UNL     1       3.182   3.955  18.599  0.00  0.00    +0.000 A 
ATOM     15  C   UNL     1       2.969   5.343  18.558  0.00  0.00    +0.000 A 
BRANCH  10  17
ATOM     16  C   UNL     1       2.355   8.186  18.287  0.00  0.00    +0.000 C 
ATOM     17  N   UNL     1       2.043   7.444  19.502  0.00  0.00    +0.000 N 
ATOM     18  C   UNL     1       1.509   8.169  20.649  0.00  0.00    +0.000 C 
ENDBRANCH  10  17
BRANCH  13  19
ATOM     19  O   UNL     1       2.855   1.880  19.755  0.00  0.00    +0.000 OA
ATOM     20  H   UNL     1       3.098   1.427  20.576  0.00  0.00    +0.000 HD
ENDBRANCH  13  19
ENDBRANCH   9  14
ENDBRANCH   7   9
ENDBRANCH   1   7
BRANCH   4  21
ATOM     21  C   UNL     1       8.464   8.012  18.398  0.00  0.00    +0.000 C 
ATOM     22  C   UNL     1       8.385   9.344  18.184  0.00  0.00    +0.000 C 
BRANCH  22  23
ATOM     23  C   UNL     1       9.391  10.345  18.636  0.00  0.00    +0.000 A 
ATOM     24  C   UNL     1      10.384  10.882  17.789  0.00  0.00    +0.000 A 
ATOM     25  C   UNL     1      11.294  11.831  18.275  0.00  0.00    +0.000 A 
ATOM     26  C   UNL     1      11.223  12.250  19.608  0.00  0.00    +0.000 A 
ATOM     27  C   UNL     1      10.244  11.723  20.459  0.00  0.00    +0.000 A 
ATOM     28  C   UNL     1       9.336  10.779  19.971  0.00  0.00    +0.000 A 
BRANCH  25  29
ATOM     29  O   UNL     1      12.243  12.351  17.470  0.00  0.00    +0.000 OA
ATOM     30  H   UNL     1      13.163  12.443  17.755  0.00  0.00    +0.000 HD
ENDBRANCH  25  29
BRANCH  27  31
ATOM     31  O   UNL     1      10.162  12.118  21.745  0.00  0.00    +0.000 OA
ATOM     32  H   UNL     1       9.415  11.881  22.310  0.00  0.00    +0.000 HD
ENDBRANCH  27  31
ENDBRANCH  22  23
ENDBRANCH   4  21
TORSDOF 9
ENDMDL
MODEL 6
REMARK VINA RESULT:      -8.3      0.900      2.013
REMARK  Name = 
REMARK  11 active torsions:
REMARK  status: ('A' for Active; 'I' for Inactive)
REMARK    1  A    between atoms: C_1  and  N_2
REMARK    2  A    between atoms: N_2  and  C_3
REMARK    3  A    between atoms: N_2  and  C_4
REMARK    4  A    between atoms: C_7  and  O_8
REMARK    5  A    between atoms: C_9  and  C_10
REMARK    6  A    between atoms: C_10  and  N_11
REMARK    7  A    between atoms: N_11  and  C_12
REMARK    8  A    between atoms: C_15  and  C_16
REMARK    9  A    between atoms: C_17  and  C_18
REMARK   10  A    between atoms: C_20  and  O_21
REMARK   11  A    between atoms: C_23  and  O_24
REMARK                            x       y       z     vdW  Elec       q    Type
REMARK                         _______ _______ _______ _____ _____    ______ ____
ROOT
ATOM      1  C   UNL     1       5.552   5.004  17.056  0.00  0.00    +0.000 A 
ATOM      2  C   UNL     1       6.398   4.696  18.127  0.00  0.00    +0.000 A 
ATOM      3  C   UNL     1       7.341   5.613  18.582  0.00  0.00    +0.000 A 
ATOM      4  C   UNL     1       7.479   6.869  17.958  0.00  0.00    +0.000 A 
ATOM      5  C   UNL     1       6.633   7.177  16.876  0.00  0.00    +0.000 A 
ATOM      6  C   UNL     1       5.674   6.259  16.432  0.00  0.00    +0.000 A 
ENDROOT
BRANCH   1   7
ATOM      7  N   UNL     1       4.578   4.042  16.663  0.00  0.00    +0.000 N 
ATOM      8  H   UNL     1       4.367   3.977  15.655  0.00  0.00    +0.000 HD
BRANCH   7   9
ATOM      9  C   UNL     1       4.133   2.968  17.535  0.00  0.00    +0.000 C 
BRANCH   9  14
ATOM     10  C   UNL     1       1.946   5.362  19.584  0.00  0.00    +0.000 A 
ATOM     11  C   UNL     1       1.014   4.459  20.142  0.00  0.00    +0.000 A 
ATOM     12  C   UNL     1       1.085   3.095  19.858  0.00  0.00    +0.000 A 
ATOM     13  C   UNL     1       2.083   2.588  19.017  0.00  0.00    +0.000 A 
ATOM     14  C   UNL     1       3.033   3.463  18.457  0.00  0.00    +0.000 A 
ATOM     15  C   UNL     1       2.953   4.835  18.750  0.00  0.00    +0.000 A 
BRANCH  10  17
ATOM     16  C   UNL     1       1.384   7.272  21.134  0.00  0.00    +0.000 C 
ATOM     17  N   UNL     1       1.870   6.779  19.851  0.00  0.00    +0.000 N 
ATOM     18  C   UNL     1       2.264   7.744  18.833  0.00  0.00    +0.000 C 
ENDBRANCH  10  17
BRANCH  13  19
ATOM     19  O   UNL     1       2.118   1.266  18.742  0.00  0.00    +0.000 OA
ATOM     20  H   UNL     1       2.860   0.853  18.277  0.00  0.00    +0.000 HD
ENDBRANCH  13  19
ENDBRANCH   9  14
ENDBRANCH   7   9
ENDBRANCH   1   7
BRANCH   4  21
ATOM     21  C   UNL     1       8.476   7.888  18.397  0.00  0.00    +0.000 C 
ATOM     22  C   UNL     1       8.296   9.222  18.288  0.00  0.00    +0.000 C 
BRANCH  22  23
ATOM     23  C   UNL     1       9.282  10.257  18.710  0.00  0.00    +0.000 A 
ATOM     24  C   UNL     1       9.370  10.752  20.028  0.00  0.00    +0.000 A 
ATOM     25  C   UNL     1      10.329  11.718  20.361  0.00  0.00    +0.000 A 
ATOM     26  C   UNL     1      11.205  12.199  19.383  0.00  0.00    +0.000 A 
ATOM     27  C   UNL     1      11.127  11.718  18.071  0.00  0.00    +0.000 A 
ATOM     28  C   UNL     1      10.171  10.753  17.742  0.00  0.00    +0.000 A 
BRANCH  25  29
ATOM     29  O   UNL     1      10.420  12.192  21.620  0.00  0.00    +0.000 OA
ATOM     30  H   UNL     1      11.264  12.229  22.094  0.00  0.00    +0.000 HD
ENDBRANCH  25  29
BRANCH  27  31
ATOM     31  O   UNL     1      11.967  12.171  17.119  0.00  0.00    +0.000 OA
ATOM     32  H   UNL     1      12.607  11.594  16.680  0.00  0.00    +0.000 HD
ENDBRANCH  27  31
ENDBRANCH  22  23
ENDBRANCH   4  21
TORSDOF 9
ENDMDL
MODEL 7
REMARK VINA RESULT:      -7.7      5.353      8.731
REMARK  Name = 
REMARK  11 active torsions:
REMARK  status: ('A' for Active; 'I' for Inactive)
REMARK    1  A    between atoms: C_1  and  N_2
REMARK    2  A    between atoms: N_2  and  C_3
REMARK    3  A    between atoms: N_2  and  C_4
REMARK    4  A    between atoms: C_7  and  O_8
REMARK    5  A    between atoms: C_9  and  C_10
REMARK    6  A    between atoms: C_10  and  N_11
REMARK    7  A    between atoms: N_11  and  C_12
REMARK    8  A    between atoms: C_15  and  C_16
REMARK    9  A    between atoms: C_17  and  C_18
REMARK   10  A    between atoms: C_20  and  O_21
REMARK   11  A    between atoms: C_23  and  O_24
REMARK                            x       y       z     vdW  Elec       q    Type
REMARK                         _______ _______ _______ _____ _____    ______ ____
ROOT
ATOM      1  C   UNL     1       0.347   9.873  19.449  0.00  0.00    +0.000 A 
ATOM      2  C   UNL     1       0.802   8.928  20.375  0.00  0.00    +0.000 A 
ATOM      3  C   UNL     1       1.778   7.998  20.031  0.00  0.00    +0.000 A 
ATOM      4  C   UNL     1       2.319   7.975  18.730  0.00  0.00    +0.000 A 
ATOM      5  C   UNL     1       1.858   8.920  17.795  0.00  0.00    +0.000 A 
ATOM      6  C   UNL     1       0.887   9.866  18.149  0.00  0.00    +0.000 A 
ENDROOT
BRANCH   1   7
ATOM      7  N   UNL     1      -0.623  10.827  19.872  0.00  0.00    +0.000 N 
ATOM      8  H   UNL     1      -0.880  10.818  20.870  0.00  0.00    +0.000 HD
BRANCH   7   9
ATOM      9  C   UNL     1      -1.002  11.976  19.067  0.00  0.00    +0.000 C 
BRANCH   9  14
ATOM     10  C   UNL     1      -4.824  12.096  19.365  0.00  0.00    +0.000 A 
ATOM     11  C   UNL     1      -5.204  11.762  18.047  0.00  0.00    +0.000 A 
ATOM     12  C   UNL     1      -4.241  11.505  17.071  0.00  0.00    +0.000 A 
ATOM     13  C   UNL     1      -2.876  11.569  17.375  0.00  0.00    +0.000 A 
ATOM     14  C   UNL     1      -2.468  11.888  18.684  0.00  0.00    +0.000 A 
ATOM     15  C   UNL     1      -3.446  12.144  19.660  0.00  0.00    +0.000 A 
BRANCH  10  17
ATOM     16  C   UNL     1      -7.002  11.562  20.519  0.00  0.00    +0.000 C 
ATOM     17  N   UNL     1      -5.810  12.387  20.379  0.00  0.00    +0.000 N 
ATOM     18  C   UNL     1      -5.635  13.526  21.272  0.00  0.00    +0.000 C 
ENDBRANCH  10  17
BRANCH  13  19
ATOM     19  O   UNL     1      -1.963  11.335  16.406  0.00  0.00    +0.000 OA
ATOM     20  H   UNL     1      -1.061  11.046  16.604  0.00  0.00    +0.000 HD
ENDBRANCH  13  19
ENDBRANCH   9  14
ENDBRANCH   7   9
ENDBRANCH   1   7
BRANCH   4  21
ATOM     21  C   UNL     1       3.361   6.998  18.302  0.00  0.00    +0.000 C 
ATOM     22  C   UNL     1       4.107   7.125  17.183  0.00  0.00    +0.000 C 
BRANCH  22  23
ATOM     23  C   UNL     1       5.145   6.157  16.731  0.00  0.00    +0.000 A 
ATOM     24  C   UNL     1       5.282   5.736  15.391  0.00  0.00    +0.000 A 
ATOM     25  C   UNL     1       6.288   4.831  15.030  0.00  0.00    +0.000 A 
ATOM     26  C   UNL     1       7.165   4.336  16.001  0.00  0.00    +0.000 A 
ATOM     27  C   UNL     1       7.038   4.743  17.335  0.00  0.00    +0.000 A 
ATOM     28  C   UNL     1       6.035   5.648  17.692  0.00  0.00    +0.000 A 
BRANCH  25  29
ATOM     29  O   UNL     1       6.426   4.428  13.750  0.00  0.00    +0.000 OA
ATOM     30  H   UNL     1       5.692   4.038  13.254  0.00  0.00    +0.000 HD
ENDBRANCH  25  29
BRANCH  27  31
ATOM     31  O   UNL     1       7.877   4.275  18.281  0.00  0.00    +0.000 OA
ATOM     32  H   UNL     1       8.636   3.716  18.066  0.00  0.00    +0.000 HD
ENDBRANCH  27  31
ENDBRANCH  22  23
ENDBRANCH   4  21
TORSDOF 9
ENDMDL
MODEL 8
REMARK VINA RESULT:      -7.7      1.806      2.927
REMARK  Name = 
REMARK  11 active torsions:
REMARK  status: ('A' for Active; 'I' for Inactive)
REMARK    1  A    between atoms: C_1  and  N_2
REMARK    2  A    between atoms: N_2  and  C_3
REMARK    3  A    between atoms: N_2  and  C_4
REMARK    4  A    between atoms: C_7  and  O_8
REMARK    5  A    between atoms: C_9  and  C_10
REMARK    6  A    between atoms: C_10  and  N_11
REMARK    7  A    between atoms: N_11  and  C_12
REMARK    8  A    between atoms: C_15  and  C_16
REMARK    9  A    between atoms: C_17  and  C_18
REMARK   10  A    between atoms: C_20  and  O_21
REMARK   11  A    between atoms: C_23  and  O_24
REMARK                            x       y       z     vdW  Elec       q    Type
REMARK                         _______ _______ _______ _____ _____    ______ ____
ROOT
ATOM      1  C   UNL     1       6.594   5.154  17.286  0.00  0.00    +0.000 A 
ATOM      2  C   UNL     1       7.219   5.191  18.538  0.00  0.00    +0.000 A 
ATOM      3  C   UNL     1       7.905   6.325  18.963  0.00  0.00    +0.000 A 
ATOM      4  C   UNL     1       8.004   7.457  18.130  0.00  0.00    +0.000 A 
ATOM      5  C   UNL     1       7.383   7.418  16.868  0.00  0.00    +0.000 A 
ATOM      6  C   UNL     1       6.678   6.283  16.450  0.00  0.00    +0.000 A 
ENDROOT
BRANCH   1   7
ATOM      7  N   UNL     1       5.870   3.981  16.923  0.00  0.00    +0.000 N 
ATOM      8  H   UNL     1       6.337   3.077  17.088  0.00  0.00    +0.000 HD
BRANCH   7   9
ATOM      9  C   UNL     1       4.443   3.988  16.656  0.00  0.00    +0.000 C 
BRANCH   9  14
ATOM     10  C   UNL     1       2.746   3.773  20.090  0.00  0.00    +0.000 A 
ATOM     11  C   UNL     1       2.285   5.099  20.242  0.00  0.00    +0.000 A 
ATOM     12  C   UNL     1       2.522   6.054  19.253  0.00  0.00    +0.000 A 
ATOM     13  C   UNL     1       3.218   5.721  18.085  0.00  0.00    +0.000 A 
ATOM     14  C   UNL     1       3.678   4.403  17.900  0.00  0.00    +0.000 A 
ATOM     15  C   UNL     1       3.435   3.449  18.903  0.00  0.00    +0.000 A 
BRANCH  10  17
ATOM     16  C   UNL     1       1.245   2.681  21.798  0.00  0.00    +0.000 C 
ATOM     17  N   UNL     1       2.529   2.781  21.116  0.00  0.00    +0.000 N 
ATOM     18  C   UNL     1       3.600   1.870  21.500  0.00  0.00    +0.000 C 
ENDBRANCH  10  17
BRANCH  13  19
ATOM     19  O   UNL     1       3.451   6.669  17.151  0.00  0.00    +0.000 OA
ATOM     20  H   UNL     1       3.082   7.562  17.216  0.00  0.00    +0.000 HD
ENDBRANCH  13  19
ENDBRANCH   9  14
ENDBRANCH   7   9
ENDBRANCH   1   7
BRANCH   4  21
ATOM     21  C   UNL     1       8.732   8.696  18.529  0.00  0.00    +0.000 C 
ATOM     22  C   UNL     1       8.573   9.897  17.930  0.00  0.00    +0.000 C 
BRANCH  22  23
ATOM     23  C   UNL     1       9.297  11.143  18.304  0.00  0.00    +0.000 A 
ATOM     24  C   UNL     1      10.444  11.157  19.125  0.00  0.00    +0.000 A 
ATOM     25  C   UNL     1      11.086  12.365  19.430  0.00  0.00    +0.000 A 
ATOM     26  C   UNL     1      10.588  13.568  18.921  0.00  0.00    +0.000 A 
ATOM     27  C   UNL     1       9.448  13.570  18.107  0.00  0.00    +0.000 A 
ATOM     28  C   UNL     1       8.812  12.363  17.803  0.00  0.00    +0.000 A 
BRANCH  25  29
ATOM     29  O   UNL     1      12.185  12.383  20.211  0.00  0.00    +0.000 OA
ATOM     30  H   UNL     1      12.855  11.685  20.170  0.00  0.00    +0.000 HD
ENDBRANCH  25  29
BRANCH  27  31
ATOM     31  O   UNL     1       8.958  14.722  17.608  0.00  0.00    +0.000 OA
ATOM     32  H   UNL     1       9.341  15.582  17.829  0.00  0.00    +0.000 HD
ENDBRANCH  27  31
ENDBRANCH  22  23
ENDBRANCH   4  21
TORSDOF 9
ENDMDL
MODEL 9
REMARK VINA RESULT:      -7.6      5.613      9.264
REMARK  Name = 
REMARK  11 active torsions:
REMARK  status: ('A' for Active; 'I' for Inactive)
REMARK    1  A    between atoms: C_1  and  N_2
REMARK    2  A    between atoms: N_2  and  C_3
REMARK    3  A    between atoms: N_2  and  C_4
REMARK    4  A    between atoms: C_7  and  O_8
REMARK    5  A    between atoms: C_9  and  C_10
REMARK    6  A    between atoms: C_10  and  N_11
REMARK    7  A    between atoms: N_11  and  C_12
REMARK    8  A    between atoms: C_15  and  C_16
REMARK    9  A    between atoms: C_17  and  C_18
REMARK   10  A    between atoms: C_20  and  O_21
REMARK   11  A    between atoms: C_23  and  O_24
REMARK                            x       y       z     vdW  Elec       q    Type
REMARK                         _______ _______ _______ _____ _____    ______ ____
ROOT
ATOM      1  C   UNL     1      -0.311  10.681  19.886  0.00  0.00    +0.000 A 
ATOM      2  C   UNL     1       0.227  10.597  18.597  0.00  0.00    +0.000 A 
ATOM      3  C   UNL     1       1.141   9.602  18.265  0.00  0.00    +0.000 A 
ATOM      4  C   UNL     1       1.562   8.665  19.230  0.00  0.00    +0.000 A 
ATOM      5  C   UNL     1       1.027   8.752  20.528  0.00  0.00    +0.000 A 
ATOM      6  C   UNL     1       0.094   9.744  20.855  0.00  0.00    +0.000 A 
ENDROOT
BRANCH   1   7
ATOM      7  N   UNL     1      -1.275  11.696  20.155  0.00  0.00    +0.000 N 
ATOM      8  H   UNL     1      -1.421  11.949  21.144  0.00  0.00    +0.000 HD
BRANCH   7   9
ATOM      9  C   UNL     1      -1.793  12.582  19.128  0.00  0.00    +0.000 C 
BRANCH   9  14
ATOM     10  C   UNL     1      -5.526  11.700  19.083  0.00  0.00    +0.000 A 
ATOM     11  C   UNL     1      -5.662  11.184  17.776  0.00  0.00    +0.000 A 
ATOM     12  C   UNL     1      -4.566  11.126  16.915  0.00  0.00    +0.000 A 
ATOM     13  C   UNL     1      -3.304  11.573  17.328  0.00  0.00    +0.000 A 
ATOM     14  C   UNL     1      -3.137  12.080  18.631  0.00  0.00    +0.000 A 
ATOM     15  C   UNL     1      -4.247  12.135  19.489  0.00  0.00    +0.000 A 
BRANCH  10  17
ATOM     16  C   UNL     1      -7.065  13.069  20.540  0.00  0.00    +0.000 C 
ATOM     17  N   UNL     1      -6.658  11.789  19.976  0.00  0.00    +0.000 N 
ATOM     18  C   UNL     1      -7.405  10.592  20.341  0.00  0.00    +0.000 C 
ENDBRANCH  10  17
BRANCH  13  19
ATOM     19  O   UNL     1      -2.263  11.523  16.469  0.00  0.00    +0.000 OA
ATOM     20  H   UNL     1      -1.465  11.005  16.651  0.00  0.00    +0.000 HD
ENDBRANCH  13  19
ENDBRANCH   9  14
ENDBRANCH   7   9
ENDBRANCH   1   7
BRANCH   4  21
ATOM     21  C   UNL     1       2.543   7.581  18.933  0.00  0.00    +0.000 C 
ATOM     22  C   UNL     1       3.304   7.530  17.818  0.00  0.00    +0.000 C 
BRANCH  22  23
ATOM     23  C   UNL     1       4.281   6.453  17.497  0.00  0.00    +0.000 A 
ATOM     24  C   UNL     1       4.580   5.390  18.376  0.00  0.00    +0.000 A 
ATOM     25  C   UNL     1       5.502   4.401  18.007  0.00  0.00    +0.000 A 
ATOM     26  C   UNL     1       6.134   4.465  16.761  0.00  0.00    +0.000 A 
ATOM     27  C   UNL     1       5.849   5.516  15.881  0.00  0.00    +0.000 A 
ATOM     28  C   UNL     1       4.927   6.499  16.250  0.00  0.00    +0.000 A 
BRANCH  25  29
ATOM     29  O   UNL     1       5.788   3.380  18.841  0.00  0.00    +0.000 OA
ATOM     30  H   UNL     1       6.603   2.865  18.759  0.00  0.00    +0.000 HD
ENDBRANCH  25  29
BRANCH  27  31
ATOM     31  O   UNL     1       6.450   5.589  14.676  0.00  0.00    +0.000 OA
ATOM     32  H   UNL     1       7.256   5.096  14.473  0.00  0.00    +0.000 HD
ENDBRANCH  27  31
ENDBRANCH  22  23
ENDBRANCH   4  21
TORSDOF 9
ENDMDL
