MODEL 1
REMARK VINA RESULT:      -7.5      0.000      0.000
REMARK  Name = 
REMARK  5 active torsions:
REMARK  status: ('A' for Active; 'I' for Inactive)
REMARK    1  A    between atoms: C_1  and  C_2
REMARK    2  A    between atoms: C_7  and  O_8
REMARK    3  A    between atoms: O_8  and  C_9
REMARK    4  A    between atoms: C_9  and  C_10
REMARK    5  A    between atoms: C_15  and  C_16
REMARK                            x       y       z     vdW  Elec       q    Type
REMARK                         _______ _______ _______ _____ _____    ______ ____
ROOT
ATOM      1  C   UNL     1       1.058   8.907  20.850  0.00  0.00    +0.000 C 
ATOM      2  O   UNL     1       1.388   8.755  22.030  0.00  0.00    +0.000 OA
ATOM      3  N   UNL     1       0.026   9.761  20.482  0.00  0.00    +0.000 N 
ATOM      4  C   UNL     1      -0.541   9.871  19.143  0.00  0.00    +0.000 C 
ATOM      5  C   UNL     1      -0.477  11.325  18.678  0.00  0.00    +0.000 C 
ATOM      6  C   UNL     1      -1.134  12.295  19.676  0.00  0.00    +0.000 C 
ATOM      7  C   UNL     1      -0.656  12.037  21.115  0.00  0.00    +0.000 C 
ATOM      8  C   UNL     1      -0.655  10.556  21.501  0.00  0.00    +0.000 C 
ENDROOT
BRANCH   6   9
ATOM      9  C   UNL     1      -2.641  12.256  19.570  0.00  0.00    +0.000 A 
ATOM     10  N   UNL     1      -3.304  11.771  18.544  0.00  0.00    +0.000 NA
ATOM     11  C   UNL     1      -4.668  11.914  18.745  0.00  0.00    +0.000 A 
ATOM     12  C   UNL     1      -5.682  11.520  17.849  0.00  0.00    +0.000 A 
ATOM     13  C   UNL     1      -7.025  11.725  18.183  0.00  0.00    +0.000 A 
ATOM     14  C   UNL     1      -7.368  12.317  19.393  0.00  0.00    +0.000 A 
ATOM     15  C   UNL     1      -6.379  12.719  20.300  0.00  0.00    +0.000 A 
ATOM     16  C   UNL     1      -5.035  12.509  19.953  0.00  0.00    +0.000 A 
ATOM     17  S   UNL     1      -3.611  12.892  20.839  0.00  0.00    +0.000 S 
ENDBRANCH   6   9
BRANCH   1  18
ATOM     18  C   UNL     1       1.860   8.205  19.746  0.00  0.00    +0.000 C 
BRANCH  18  19
ATOM     19  O   UNL     1       2.517   7.048  20.224  0.00  0.00    +0.000 OA
BRANCH  19  26
ATOM     20  C   UNL     1       3.635   5.878  17.519  0.00  0.00    +0.000 C 
ATOM     21  C   UNL     1       2.663   5.251  18.477  0.00  0.00    +0.000 A 
ATOM     22  C   UNL     1       2.215   3.952  18.146  0.00  0.00    +0.000 A 
ATOM     23  C   UNL     1       1.362   3.234  18.982  0.00  0.00    +0.000 A 
ATOM     24  C   UNL     1       0.940   3.798  20.176  0.00  0.00    +0.000 A 
ATOM     25  C   UNL     1       1.369   5.082  20.519  0.00  0.00    +0.000 A 
ATOM     26  C   UNL     1       2.215   5.828  19.679  0.00  0.00    +0.000 A 
ENDBRANCH  19  26
ENDBRANCH  18  19
ENDBRANCH   1  18
TORSDOF 4
ENDMDL
MODEL 2
REMARK VINA RESULT:      -7.4      0.530      1.487
REMARK  Name = 
REMARK  5 active torsions:
REMARK  status: ('A' for Active; 'I' for Inactive)
REMARK    1  A    between atoms: C_1  and  C_2
REMARK    2  A    between atoms: C_7  and  O_8
REMARK    3  A    between atoms: O_8  and  C_9
REMARK    4  A    between atoms: C_9  and  C_10
REMARK    5  A    between atoms: C_15  and  C_16
REMARK                            x       y       z     vdW  Elec       q    Type
REMARK                         _______ _______ _______ _____ _____    ______ ____
ROOT
ATOM      1  C   UNL     1       1.059   8.972  21.155  0.00  0.00    +0.000 C 
ATOM      2  O   UNL     1       1.381   8.947  22.346  0.00  0.00    +0.000 OA
ATOM      3  N   UNL     1       0.041   9.795  20.689  0.00  0.00    +0.000 N 
ATOM      4  C   UNL     1      -0.519   9.766  19.342  0.00  0.00    +0.000 C 
ATOM      5  C   UNL     1      -0.432  11.158  18.722  0.00  0.00    +0.000 C 
ATOM      6  C   UNL     1      -1.080  12.241  19.604  0.00  0.00    +0.000 C 
ATOM      7  C   UNL     1      -0.612  12.136  21.065  0.00  0.00    +0.000 C 
ATOM      8  C   UNL     1      -0.634  10.706  21.610  0.00  0.00    +0.000 C 
ENDROOT
BRANCH   6   9
ATOM      9  C   UNL     1      -2.587  12.211  19.493  0.00  0.00    +0.000 A 
ATOM     10  N   UNL     1      -3.251  11.675  18.493  0.00  0.00    +0.000 NA
ATOM     11  C   UNL     1      -4.614  11.843  18.680  0.00  0.00    +0.000 A 
ATOM     12  C   UNL     1      -5.629  11.409  17.804  0.00  0.00    +0.000 A 
ATOM     13  C   UNL     1      -6.970  11.646  18.119  0.00  0.00    +0.000 A 
ATOM     14  C   UNL     1      -7.312  12.310  19.293  0.00  0.00    +0.000 A 
ATOM     15  C   UNL     1      -6.322  12.753  20.179  0.00  0.00    +0.000 A 
ATOM     16  C   UNL     1      -4.980  12.510  19.851  0.00  0.00    +0.000 A 
ATOM     17  S   UNL     1      -3.555  12.928  20.720  0.00  0.00    +0.000 S 
ENDBRANCH   6   9
BRANCH   1  18
ATOM     18  C   UNL     1       1.856   8.143  20.139  0.00  0.00    +0.000 C 
BRANCH  18  19
ATOM     19  O   UNL     1       1.840   6.765  20.454  0.00  0.00    +0.000 OA
BRANCH  19  26
ATOM     20  C   UNL     1       0.921   3.763  20.181  0.00  0.00    +0.000 C 
ATOM     21  C   UNL     1       1.934   4.507  19.360  0.00  0.00    +0.000 A 
ATOM     22  C   UNL     1       2.531   3.783  18.303  0.00  0.00    +0.000 A 
ATOM     23  C   UNL     1       3.438   4.376  17.426  0.00  0.00    +0.000 A 
ATOM     24  C   UNL     1       3.768   5.713  17.584  0.00  0.00    +0.000 A 
ATOM     25  C   UNL     1       3.192   6.444  18.625  0.00  0.00    +0.000 A 
ATOM     26  C   UNL     1       2.288   5.858  19.530  0.00  0.00    +0.000 A 
ENDBRANCH  19  26
ENDBRANCH  18  19
ENDBRANCH   1  18
TORSDOF 4
ENDMDL
MODEL 3
REMARK VINA RESULT:      -7.3      2.587      4.344
REMARK  Name = 
REMARK  5 active torsions:
REMARK  status: ('A' for Active; 'I' for Inactive)
REMARK    1  A    between atoms: C_1  and  C_2
REMARK    2  A    between atoms: C_7  and  O_8
REMARK    3  A    between atoms: O_8  and  C_9
REMARK    4  A    between atoms: C_9  and  C_10
REMARK    5  A    between atoms: C_15  and  C_16
REMARK                            x       y       z     vdW  Elec       q    Type
REMARK                         _______ _______ _______ _____ _____    ______ ____
ROOT
ATOM      1  C   UNL     1       2.473   5.203  20.185  0.00  0.00    +0.000 C 
ATOM      2  O   UNL     1       2.381   4.793  21.346  0.00  0.00    +0.000 OA
ATOM      3  N   UNL     1       1.883   6.393  19.780  0.00  0.00    +0.000 N 
ATOM      4  C   UNL     1       1.793   6.866  18.403  0.00  0.00    +0.000 C 
ATOM      5  C   UNL     1       2.401   8.263  18.301  0.00  0.00    +0.000 C 
ATOM      6  C   UNL     1       1.782   9.254  19.303  0.00  0.00    +0.000 C 
ATOM      7  C   UNL     1       1.719   8.660  20.721  0.00  0.00    +0.000 C 
ATOM      8  C   UNL     1       1.185   7.226  20.758  0.00  0.00    +0.000 C 
ENDROOT
BRANCH   6   9
ATOM      9  C   UNL     1       0.428   9.735  18.836  0.00  0.00    +0.000 A 
ATOM     10  N   UNL     1      -0.119   9.420  17.682  0.00  0.00    +0.000 NA
ATOM     11  C   UNL     1      -1.346  10.049  17.547  0.00  0.00    +0.000 A 
ATOM     12  C   UNL     1      -2.206   9.953  16.435  0.00  0.00    +0.000 A 
ATOM     13  C   UNL     1      -3.421  10.646  16.433  0.00  0.00    +0.000 A 
ATOM     14  C   UNL     1      -3.788  11.430  17.521  0.00  0.00    +0.000 A 
ATOM     15  C   UNL     1      -2.950  11.543  18.637  0.00  0.00    +0.000 A 
ATOM     16  C   UNL     1      -1.732  10.845  18.627  0.00  0.00    +0.000 A 
ATOM     17  S   UNL     1      -0.503  10.785  19.829  0.00  0.00    +0.000 S 
ENDBRANCH   6   9
BRANCH   1  18
ATOM     18  C   UNL     1       3.332   4.429  19.176  0.00  0.00    +0.000 C 
BRANCH  18  19
ATOM     19  O   UNL     1       4.699   4.775  19.271  0.00  0.00    +0.000 OA
BRANCH  19  26
ATOM     20  C   UNL     1       7.681   5.771  19.045  0.00  0.00    +0.000 C 
ATOM     21  C   UNL     1       6.801   5.205  17.967  0.00  0.00    +0.000 A 
ATOM     22  C   UNL     1       7.393   5.066  16.690  0.00  0.00    +0.000 A 
ATOM     23  C   UNL     1       6.705   4.496  15.620  0.00  0.00    +0.000 A 
ATOM     24  C   UNL     1       5.407   4.045  15.803  0.00  0.00    +0.000 A 
ATOM     25  C   UNL     1       4.804   4.178  17.056  0.00  0.00    +0.000 A 
ATOM     26  C   UNL     1       5.475   4.767  18.142  0.00  0.00    +0.000 A 
ENDBRANCH  19  26
ENDBRANCH  18  19
ENDBRANCH   1  18
TORSDOF 4
ENDMDL
MODEL 4
REMARK VINA RESULT:      -7.2      0.977      1.940
REMARK  Name = 
REMARK  5 active torsions:
REMARK  status: ('A' for Active; 'I' for Inactive)
REMARK    1  A    between atoms: C_1  and  C_2
REMARK    2  A    between atoms: C_7  and  O_8
REMARK    3  A    between atoms: O_8  and  C_9
REMARK    4  A    between atoms: C_9  and  C_10
REMARK    5  A    between atoms: C_15  and  C_16
REMARK                            x       y       z     vdW  Elec       q    Type
REMARK                         _______ _______ _______ _____ _____    ______ ____
ROOT
ATOM      1  C   UNL     1       0.966   9.194  21.560  0.00  0.00    +0.000 C 
ATOM      2  O   UNL     1       1.216   9.229  22.768  0.00  0.00    +0.000 OA
ATOM      3  N   UNL     1      -0.046   9.963  20.999  0.00  0.00    +0.000 N 
ATOM      4  C   UNL     1      -0.523   9.859  19.625  0.00  0.00    +0.000 C 
ATOM      5  C   UNL     1      -0.439  11.227  18.949  0.00  0.00    +0.000 C 
ATOM      6  C   UNL     1      -1.170  12.325  19.742  0.00  0.00    +0.000 C 
ATOM      7  C   UNL     1      -0.787  12.297  21.232  0.00  0.00    +0.000 C 
ATOM      8  C   UNL     1      -0.801  10.892  21.838  0.00  0.00    +0.000 C 
ENDROOT
BRANCH   6   9
ATOM      9  C   UNL     1      -2.666  12.243  19.545  0.00  0.00    +0.000 A 
ATOM     10  N   UNL     1      -3.557  12.691  20.402  0.00  0.00    +0.000 NA
ATOM     11  C   UNL     1      -4.837  12.435  19.938  0.00  0.00    +0.000 A 
ATOM     12  C   UNL     1      -6.037  12.761  20.600  0.00  0.00    +0.000 A 
ATOM     13  C   UNL     1      -7.266  12.441  20.013  0.00  0.00    +0.000 A 
ATOM     14  C   UNL     1      -7.313  11.802  18.779  0.00  0.00    +0.000 A 
ATOM     15  C   UNL     1      -6.134  11.466  18.102  0.00  0.00    +0.000 A 
ATOM     16  C   UNL     1      -4.907  11.790  18.702  0.00  0.00    +0.000 A 
ATOM     17  S   UNL     1      -3.309  11.509  18.130  0.00  0.00    +0.000 S 
ENDBRANCH   6   9
BRANCH   1  18
ATOM     18  C   UNL     1       1.846   8.348  20.630  0.00  0.00    +0.000 C 
BRANCH  18  19
ATOM     19  O   UNL     1       1.547   6.969  20.730  0.00  0.00    +0.000 OA
BRANCH  19  26
ATOM     20  C   UNL     1       1.025   3.864  20.589  0.00  0.00    +0.000 C 
ATOM     21  C   UNL     1       1.882   4.709  19.690  0.00  0.00    +0.000 A 
ATOM     22  C   UNL     1       2.511   4.035  18.618  0.00  0.00    +0.000 A 
ATOM     23  C   UNL     1       3.281   4.714  17.675  0.00  0.00    +0.000 A 
ATOM     24  C   UNL     1       3.436   6.088  17.779  0.00  0.00    +0.000 A 
ATOM     25  C   UNL     1       2.826   6.770  18.833  0.00  0.00    +0.000 A 
ATOM     26  C   UNL     1       2.061   6.100  19.805  0.00  0.00    +0.000 A 
ENDBRANCH  19  26
ENDBRANCH  18  19
ENDBRANCH   1  18
TORSDOF 4
ENDMDL
MODEL 5
REMARK VINA RESULT:      -7.2      3.040      3.983
REMARK  Name = 
REMARK  5 active torsions:
REMARK  status: ('A' for Active; 'I' for Inactive)
REMARK    1  A    between atoms: C_1  and  C_2
REMARK    2  A    between atoms: C_7  and  O_8
REMARK    3  A    between atoms: O_8  and  C_9
REMARK    4  A    between atoms: C_9  and  C_10
REMARK    5  A    between atoms: C_15  and  C_16
REMARK                            x       y       z     vdW  Elec       q    Type
REMARK                         _______ _______ _______ _____ _____    ______ ____
ROOT
ATOM      1  C   UNL     1       2.180   7.836  18.950  0.00  0.00    +0.000 C 
ATOM      2  O   UNL     1       2.591   7.574  17.815  0.00  0.00    +0.000 OA
ATOM      3  N   UNL     1       1.444   8.984  19.214  0.00  0.00    +0.000 N 
ATOM      4  C   UNL     1       1.069   9.459  20.542  0.00  0.00    +0.000 C 
ATOM      5  C   UNL     1      -0.446   9.645  20.609  0.00  0.00    +0.000 C 
ATOM      6  C   UNL     1      -0.982  10.553  19.488  0.00  0.00    +0.000 C 
ATOM      7  C   UNL     1      -0.425  10.144  18.114  0.00  0.00    +0.000 C 
ATOM      8  C   UNL     1       1.083   9.883  18.120  0.00  0.00    +0.000 C 
ENDROOT
BRANCH   6   9
ATOM      9  C   UNL     1      -0.721  12.011  19.788  0.00  0.00    +0.000 A 
ATOM     10  N   UNL     1      -0.596  12.949  18.876  0.00  0.00    +0.000 NA
ATOM     11  C   UNL     1      -0.331  14.169  19.479  0.00  0.00    +0.000 A 
ATOM     12  C   UNL     1      -0.125  15.393  18.813  0.00  0.00    +0.000 A 
ATOM     13  C   UNL     1       0.134  16.553  19.550  0.00  0.00    +0.000 A 
ATOM     14  C   UNL     1       0.191  16.507  20.939  0.00  0.00    +0.000 A 
ATOM     15  C   UNL     1      -0.009  15.303  21.624  0.00  0.00    +0.000 A 
ATOM     16  C   UNL     1      -0.267  14.146  20.873  0.00  0.00    +0.000 A 
ATOM     17  S   UNL     1      -0.548  12.537  21.415  0.00  0.00    +0.000 S 
ENDBRANCH   6   9
BRANCH   1  18
ATOM     18  C   UNL     1       2.408   6.832  20.087  0.00  0.00    +0.000 C 
BRANCH  18  19
ATOM     19  O   UNL     1       3.197   5.734  19.672  0.00  0.00    +0.000 OA
BRANCH  19  26
ATOM     20  C   UNL     1       3.948   4.027  17.131  0.00  0.00    +0.000 C 
ATOM     21  C   UNL     1       2.854   3.782  18.131  0.00  0.00    +0.000 A 
ATOM     22  C   UNL     1       2.081   2.615  17.932  0.00  0.00    +0.000 A 
ATOM     23  C   UNL     1       1.078   2.239  18.824  0.00  0.00    +0.000 A 
ATOM     24  C   UNL     1       0.828   3.019  19.942  0.00  0.00    +0.000 A 
ATOM     25  C   UNL     1       1.579   4.177  20.153  0.00  0.00    +0.000 A 
ATOM     26  C   UNL     1       2.582   4.583  19.255  0.00  0.00    +0.000 A 
ENDBRANCH  19  26
ENDBRANCH  18  19
ENDBRANCH   1  18
TORSDOF 4
ENDMDL
MODEL 6
REMARK VINA RESULT:      -7.2      3.401      5.629
REMARK  Name = 
REMARK  5 active torsions:
REMARK  status: ('A' for Active; 'I' for Inactive)
REMARK    1  A    between atoms: C_1  and  C_2
REMARK    2  A    between atoms: C_7  and  O_8
REMARK    3  A    between atoms: O_8  and  C_9
REMARK    4  A    between atoms: C_9  and  C_10
REMARK    5  A    between atoms: C_15  and  C_16
REMARK                            x       y       z     vdW  Elec       q    Type
REMARK                         _______ _______ _______ _____ _____    ______ ____
ROOT
ATOM      1  C   UNL     1       1.965   3.482  18.192  0.00  0.00    +0.000 C 
ATOM      2  O   UNL     1       1.442   2.517  18.757  0.00  0.00    +0.000 OA
ATOM      3  N   UNL     1       1.830   4.776  18.679  0.00  0.00    +0.000 N 
ATOM      4  C   UNL     1       2.263   5.987  17.991  0.00  0.00    +0.000 C 
ATOM      5  C   UNL     1       3.199   6.784  18.897  0.00  0.00    +0.000 C 
ATOM      6  C   UNL     1       2.579   7.082  20.274  0.00  0.00    +0.000 C 
ATOM      7  C   UNL     1       1.963   5.820  20.902  0.00  0.00    +0.000 C 
ATOM      8  C   UNL     1       1.106   5.010  19.927  0.00  0.00    +0.000 C 
ENDROOT
BRANCH   6   9
ATOM      9  C   UNL     1       1.581   8.214  20.195  0.00  0.00    +0.000 A 
ATOM     10  N   UNL     1       1.275   8.863  19.093  0.00  0.00    +0.000 NA
ATOM     11  C   UNL     1       0.353   9.861  19.367  0.00  0.00    +0.000 A 
ATOM     12  C   UNL     1      -0.190  10.764  18.432  0.00  0.00    +0.000 A 
ATOM     13  C   UNL     1      -1.116  11.726  18.848  0.00  0.00    +0.000 A 
ATOM     14  C   UNL     1      -1.505  11.799  20.182  0.00  0.00    +0.000 A 
ATOM     15  C   UNL     1      -0.978  10.914  21.131  0.00  0.00    +0.000 A 
ATOM     16  C   UNL     1      -0.049   9.955  20.700  0.00  0.00    +0.000 A 
ATOM     17  S   UNL     1       0.770   8.748  21.613  0.00  0.00    +0.000 S 
ENDBRANCH   6   9
BRANCH   1  18
ATOM     18  C   UNL     1       2.862   3.248  16.969  0.00  0.00    +0.000 C 
BRANCH  18  19
ATOM     19  O   UNL     1       4.182   2.904  17.341  0.00  0.00    +0.000 OA
BRANCH  19  26
ATOM     20  C   UNL     1       5.468   4.383  14.872  0.00  0.00    +0.000 C 
ATOM     21  C   UNL     1       5.768   4.568  16.332  0.00  0.00    +0.000 A 
ATOM     22  C   UNL     1       6.727   5.558  16.648  0.00  0.00    +0.000 A 
ATOM     23  C   UNL     1       7.049   5.873  17.967  0.00  0.00    +0.000 A 
ATOM     24  C   UNL     1       6.415   5.207  19.004  0.00  0.00    +0.000 A 
ATOM     25  C   UNL     1       5.469   4.223  18.712  0.00  0.00    +0.000 A 
ATOM     26  C   UNL     1       5.144   3.878  17.387  0.00  0.00    +0.000 A 
ENDBRANCH  19  26
ENDBRANCH  18  19
ENDBRANCH   1  18
TORSDOF 4
ENDMDL
MODEL 7
REMARK VINA RESULT:      -7.2      2.212      3.249
REMARK  Name = 
REMARK  5 active torsions:
REMARK  status: ('A' for Active; 'I' for Inactive)
REMARK    1  A    between atoms: C_1  and  C_2
REMARK    2  A    between atoms: C_7  and  O_8
REMARK    3  A    between atoms: O_8  and  C_9
REMARK    4  A    between atoms: C_9  and  C_10
REMARK    5  A    between atoms: C_15  and  C_16
REMARK                            x       y       z     vdW  Elec       q    Type
REMARK                         _______ _______ _______ _____ _____    ______ ____
ROOT
ATOM      1  C   UNL     1       1.599  10.381  18.176  0.00  0.00    +0.000 C 
ATOM      2  O   UNL     1       2.596  11.102  18.074  0.00  0.00    +0.000 OA
ATOM      3  N   UNL     1       0.393  10.865  18.668  0.00  0.00    +0.000 N 
ATOM      4  C   UNL     1      -0.777  10.053  18.984  0.00  0.00    +0.000 C 
ATOM      5  C   UNL     1      -1.990  10.587  18.224  0.00  0.00    +0.000 C 
ATOM      6  C   UNL     1      -2.231  12.087  18.473  0.00  0.00    +0.000 C 
ATOM      7  C   UNL     1      -0.938  12.903  18.312  0.00  0.00    +0.000 C 
ATOM      8  C   UNL     1       0.268  12.278  19.019  0.00  0.00    +0.000 C 
ENDROOT
BRANCH   6   9
ATOM      9  C   UNL     1      -2.883  12.324  19.815  0.00  0.00    +0.000 A 
ATOM     10  N   UNL     1      -2.247  12.308  20.966  0.00  0.00    +0.000 NA
ATOM     11  C   UNL     1      -3.136  12.530  22.006  0.00  0.00    +0.000 A 
ATOM     12  C   UNL     1      -2.812  12.566  23.377  0.00  0.00    +0.000 A 
ATOM     13  C   UNL     1      -3.814  12.801  24.324  0.00  0.00    +0.000 A 
ATOM     14  C   UNL     1      -5.131  12.999  23.922  0.00  0.00    +0.000 A 
ATOM     15  C   UNL     1      -5.479  12.966  22.566  0.00  0.00    +0.000 A 
ATOM     16  C   UNL     1      -4.464  12.728  21.626  0.00  0.00    +0.000 A 
ATOM     17  S   UNL     1      -4.573  12.625  19.912  0.00  0.00    +0.000 S 
ENDBRANCH   6   9
BRANCH   1  18
ATOM     18  C   UNL     1       1.656   8.934  17.668  0.00  0.00    +0.000 C 
BRANCH  18  19
ATOM     19  O   UNL     1       2.721   8.211  18.252  0.00  0.00    +0.000 OA
BRANCH  19  26
ATOM     20  C   UNL     1       1.489   7.950  21.141  0.00  0.00    +0.000 C 
ATOM     21  C   UNL     1       1.923   6.855  20.209  0.00  0.00    +0.000 A 
ATOM     22  C   UNL     1       1.723   5.533  20.667  0.00  0.00    +0.000 A 
ATOM     23  C   UNL     1       2.023   4.428  19.873  0.00  0.00    +0.000 A 
ATOM     24  C   UNL     1       2.528   4.619  18.596  0.00  0.00    +0.000 A 
ATOM     25  C   UNL     1       2.737   5.918  18.128  0.00  0.00    +0.000 A 
ATOM     26  C   UNL     1       2.457   7.045  18.921  0.00  0.00    +0.000 A 
ENDBRANCH  19  26
ENDBRANCH  18  19
ENDBRANCH   1  18
TORSDOF 4
ENDMDL
MODEL 8
REMARK VINA RESULT:      -7.1      3.136      4.172
REMARK  Name = 
REMARK  5 active torsions:
REMARK  status: ('A' for Active; 'I' for Inactive)
REMARK    1  A    between atoms: C_1  and  C_2
REMARK    2  A    between atoms: C_7  and  O_8
REMARK    3  A    between atoms: O_8  and  C_9
REMARK    4  A    between atoms: C_9  and  C_10
REMARK    5  A    between atoms: C_15  and  C_16
REMARK                            x       y       z     vdW  Elec       q    Type
REMARK                         _______ _______ _______ _____ _____    ______ ____
ROOT
ATOM      1  C   UNL     1       2.195   7.857  18.943  0.00  0.00    +0.000 C 
ATOM      2  O   UNL     1       2.625   7.652  17.803  0.00  0.00    +0.000 OA
ATOM      3  N   UNL     1       1.474   9.001  19.259  0.00  0.00    +0.000 N 
ATOM      4  C   UNL     1       1.080   9.406  20.603  0.00  0.00    +0.000 C 
ATOM      5  C   UNL     1      -0.432   9.616  20.652  0.00  0.00    +0.000 C 
ATOM      6  C   UNL     1      -0.929  10.596  19.574  0.00  0.00    +0.000 C 
ATOM      7  C   UNL     1      -0.352  10.256  18.190  0.00  0.00    +0.000 C 
ATOM      8  C   UNL     1       1.151   9.968  18.211  0.00  0.00    +0.000 C 
ENDROOT
BRANCH   6   9
ATOM      9  C   UNL     1      -0.649  12.030  19.963  0.00  0.00    +0.000 A 
ATOM     10  N   UNL     1      -0.516  12.454  21.200  0.00  0.00    +0.000 NA
ATOM     11  C   UNL     1      -0.298  13.823  21.214  0.00  0.00    +0.000 A 
ATOM     12  C   UNL     1      -0.123  14.621  22.362  0.00  0.00    +0.000 A 
ATOM     13  C   UNL     1       0.090  15.996  22.229  0.00  0.00    +0.000 A 
ATOM     14  C   UNL     1       0.131  16.585  20.970  0.00  0.00    +0.000 A 
ATOM     15  C   UNL     1      -0.042  15.814  19.813  0.00  0.00    +0.000 A 
ATOM     16  C   UNL     1      -0.256  14.435  19.960  0.00  0.00    +0.000 A 
ATOM     17  S   UNL     1      -0.503  13.238  18.749  0.00  0.00    +0.000 S 
ENDBRANCH   6   9
BRANCH   1  18
ATOM     18  C   UNL     1       2.382   6.785  20.025  0.00  0.00    +0.000 C 
BRANCH  18  19
ATOM     19  O   UNL     1       3.184   5.712  19.572  0.00  0.00    +0.000 OA
BRANCH  19  26
ATOM     20  C   UNL     1       4.000   3.956  17.085  0.00  0.00    +0.000 C 
ATOM     21  C   UNL     1       2.887   3.725  18.066  0.00  0.00    +0.000 A 
ATOM     22  C   UNL     1       2.124   2.550  17.875  0.00  0.00    +0.000 A 
ATOM     23  C   UNL     1       1.105   2.186  18.753  0.00  0.00    +0.000 A 
ATOM     24  C   UNL     1       0.826   2.988  19.848  0.00  0.00    +0.000 A 
ATOM     25  C   UNL     1       1.565   4.155  20.051  0.00  0.00    +0.000 A 
ATOM     26  C   UNL     1       2.586   4.548  19.166  0.00  0.00    +0.000 A 
ENDBRANCH  19  26
ENDBRANCH  18  19
ENDBRANCH   1  18
TORSDOF 4
ENDMDL
MODEL 9
REMARK VINA RESULT:      -7.1      2.213      3.528
REMARK  Name = 
REMARK  5 active torsions:
REMARK  status: ('A' for Active; 'I' for Inactive)
REMARK    1  A    between atoms: C_1  and  C_2
REMARK    2  A    between atoms: C_7  and  O_8
REMARK    3  A    between atoms: O_8  and  C_9
REMARK    4  A    between atoms: C_9  and  C_10
REMARK    5  A    between atoms: C_15  and  C_16
REMARK                            x       y       z     vdW  Elec       q    Type
REMARK                         _______ _______ _______ _____ _____    ______ ____
ROOT
ATOM      1  C   UNL     1       2.570   7.229  19.075  0.00  0.00    +0.000 C 
ATOM      2  O   UNL     1       2.685   6.470  20.042  0.00  0.00    +0.000 OA
ATOM      3  N   UNL     1       1.693   8.307  19.091  0.00  0.00    +0.000 N 
ATOM      4  C   UNL     1       1.367   9.147  17.945  0.00  0.00    +0.000 C 
ATOM      5  C   UNL     1       1.637  10.611  18.289  0.00  0.00    +0.000 C 
ATOM      6  C   UNL     1       0.914  11.061  19.571  0.00  0.00    +0.000 C 
ATOM      7  C   UNL     1       1.123  10.060  20.720  0.00  0.00    +0.000 C 
ATOM      8  C   UNL     1       0.927   8.601  20.301  0.00  0.00    +0.000 C 
ENDROOT
BRANCH   6   9
ATOM      9  C   UNL     1      -0.552  11.321  19.313  0.00  0.00    +0.000 A 
ATOM     10  N   UNL     1      -1.179  11.016  18.199  0.00  0.00    +0.000 NA
ATOM     11  C   UNL     1      -2.505  11.414  18.272  0.00  0.00    +0.000 A 
ATOM     12  C   UNL     1      -3.472  11.261  17.259  0.00  0.00    +0.000 A 
ATOM     13  C   UNL     1      -4.779  11.712  17.469  0.00  0.00    +0.000 A 
ATOM     14  C   UNL     1      -5.133  12.311  18.673  0.00  0.00    +0.000 A 
ATOM     15  C   UNL     1      -4.190  12.476  19.695  0.00  0.00    +0.000 A 
ATOM     16  C   UNL     1      -2.881  12.021  19.471  0.00  0.00    +0.000 A 
ATOM     17  S   UNL     1      -1.516  12.083  20.516  0.00  0.00    +0.000 S 
ENDBRANCH   6   9
BRANCH   1  18
ATOM     18  C   UNL     1       3.476   7.039  17.851  0.00  0.00    +0.000 C 
BRANCH  18  19
ATOM     19  O   UNL     1       3.729   5.673  17.589  0.00  0.00    +0.000 OA
BRANCH  19  26
ATOM     20  C   UNL     1       6.361   5.300  19.282  0.00  0.00    +0.000 C 
ATOM     21  C   UNL     1       6.169   5.122  17.803  0.00  0.00    +0.000 A 
ATOM     22  C   UNL     1       7.305   4.698  17.076  0.00  0.00    +0.000 A 
ATOM     23  C   UNL     1       7.244   4.434  15.708  0.00  0.00    +0.000 A 
ATOM     24  C   UNL     1       6.042   4.584  15.035  0.00  0.00    +0.000 A 
ATOM     25  C   UNL     1       4.910   5.006  15.736  0.00  0.00    +0.000 A 
ATOM     26  C   UNL     1       4.956   5.294  17.112  0.00  0.00    +0.000 A 
ENDBRANCH  19  26
ENDBRANCH  18  19
ENDBRANCH   1  18
TORSDOF 4
ENDMDL
