MODEL 1
REMARK VINA RESULT:      -8.2      0.000      0.000
REMARK  Name = 
REMARK  12 active torsions:
REMARK  status: ('A' for Active; 'I' for Inactive)
REMARK    1  A    between atoms: C_1  and  C_2
REMARK    2  A    between atoms: C_2  and  N_3
REMARK    3  A    between atoms: N_3  and  C_4
REMARK    4  A    between atoms: N_3  and  C_6
REMARK    5  A    between atoms: C_4  and  C_5
REMARK    6  A    between atoms: C_6  and  C_7
REMARK    7  A    between atoms: C_7  and  O_8
REMARK    8  A    between atoms: O_8  and  C_9
REMARK    9  A    between atoms: C_9  and  C_11
REMARK   10  A    between atoms: C_12  and  C_13
REMARK   11  A    between atoms: C_19  and  C_20
REMARK   12  A    between atoms: N_22  and  C_23
REMARK                            x       y       z     vdW  Elec       q    Type
REMARK                         _______ _______ _______ _____ _____    ______ ____
ROOT
ATOM      1  C   UNL     1       2.445   7.207  18.618  0.00  0.00    +0.000 A 
ATOM      2  C   UNL     1       2.424   8.095  17.532  0.00  0.00    +0.000 A 
ATOM      3  C   UNL     1       1.867   9.370  17.666  0.00  0.00    +0.000 A 
ATOM      4  C   UNL     1       1.331   9.764  18.890  0.00  0.00    +0.000 A 
ATOM      5  O   UNL     1       0.799  11.023  18.964  0.00  0.00    +0.000 OA
ATOM      6  C   UNL     1       0.225  11.396  20.150  0.00  0.00    +0.000 A 
ATOM      7  C   UNL     1       0.163  10.672  21.282  0.00  0.00    +0.000 A 
ATOM      8  C   UNL     1       0.788   9.339  21.268  0.00  0.00    +0.000 A 
ATOM      9  O   UNL     1       0.835   8.634  22.271  0.00  0.00    +0.000 OA
ATOM     10  C   UNL     1       1.355   8.894  19.977  0.00  0.00    +0.000 A 
ATOM     11  C   UNL     1       1.914   7.621  19.848  0.00  0.00    +0.000 A 
ENDROOT
BRANCH   7  12
ATOM     12  C   UNL     1      -0.536  11.287  22.439  0.00  0.00    +0.000 C 
ATOM     13  O   UNL     1      -0.511  10.701  23.524  0.00  0.00    +0.000 OA
ATOM     14  N   UNL     1      -1.201  12.472  22.196  0.00  0.00    +0.000 N 
ATOM     15  H   UNL     1      -1.244  12.791  21.223  0.00  0.00    +0.000 HD
BRANCH  14  16
ATOM     16  C   UNL     1      -1.936  13.202  23.157  0.00  0.00    +0.000 A 
ATOM     17  C   UNL     1      -3.275  12.927  23.449  0.00  0.00    +0.000 A 
ATOM     18  C   UNL     1      -4.000  13.717  24.347  0.00  0.00    +0.000 A 
ATOM     19  C   UNL     1      -3.381  14.792  24.973  0.00  0.00    +0.000 A 
ATOM     20  C   UNL     1      -2.038  15.053  24.715  0.00  0.00    +0.000 A 
ATOM     21 CL   UNL     1      -1.285  16.402  25.474  0.00  0.00    +0.000 Cl
ATOM     22  C   UNL     1      -1.304  14.253  23.830  0.00  0.00    +0.000 A 
ENDBRANCH  14  16
ENDBRANCH   7  12
BRANCH   1  24
ATOM     23  C   UNL     1       4.269   5.576  18.976  0.00  0.00    +0.000 C 
ATOM     24  C   UNL     1       3.075   5.893  18.453  0.00  0.00    +0.000 C 
BRANCH  23  25
ATOM     25  C   UNL     1       4.805   4.210  18.826  0.00  0.00    +0.000 C 
ATOM     26  O   UNL     1       4.227   3.276  18.297  0.00  0.00    +0.000 OA
BRANCH  25  27
ATOM     27  O   UNL     1       5.951   4.160  19.546  0.00  0.00    +0.000 OA
BRANCH  27  28
ATOM     28  C   UNL     1       6.838   5.263  19.291  0.00  0.00    +0.000 C 
BRANCH  28  29
ATOM     29  C   UNL     1       7.592   4.919  17.992  0.00  0.00    +0.000 C 
BRANCH  29  30
ATOM     30  N   UNL     1       7.527   5.897  16.893  0.00  0.00    +0.000 NA
BRANCH  30  32
ATOM     31  C   UNL     1       5.411   5.681  15.514  0.00  0.00    +0.000 C 
ATOM     32  C   UNL     1       6.861   5.265  15.736  0.00  0.00    +0.000 C 
ENDBRANCH  30  32
BRANCH  30  33
ATOM     33  C   UNL     1       6.932   7.178  17.297  0.00  0.00    +0.000 C 
ATOM     34  C   UNL     1       7.908   8.303  17.633  0.00  0.00    +0.000 C 
ENDBRANCH  30  33
ENDBRANCH  29  30
ENDBRANCH  28  29
ENDBRANCH  27  28
ENDBRANCH  25  27
ENDBRANCH  23  25
ENDBRANCH   1  24
TORSDOF 10
ENDMDL
MODEL 2
REMARK VINA RESULT:      -7.9      2.219      3.006
REMARK  Name = 
REMARK  12 active torsions:
REMARK  status: ('A' for Active; 'I' for Inactive)
REMARK    1  A    between atoms: C_1  and  C_2
REMARK    2  A    between atoms: C_2  and  N_3
REMARK    3  A    between atoms: N_3  and  C_4
REMARK    4  A    between atoms: N_3  and  C_6
REMARK    5  A    between atoms: C_4  and  C_5
REMARK    6  A    between atoms: C_6  and  C_7
REMARK    7  A    between atoms: C_7  and  O_8
REMARK    8  A    between atoms: O_8  and  C_9
REMARK    9  A    between atoms: C_9  and  C_11
REMARK   10  A    between atoms: C_12  and  C_13
REMARK   11  A    between atoms: C_19  and  C_20
REMARK   12  A    between atoms: N_22  and  C_23
REMARK                            x       y       z     vdW  Elec       q    Type
REMARK                         _______ _______ _______ _____ _____    ______ ____
ROOT
ATOM      1  C   UNL     1       1.886   6.539  20.190  0.00  0.00    +0.000 A 
ATOM      2  C   UNL     1       2.486   6.931  18.984  0.00  0.00    +0.000 A 
ATOM      3  C   UNL     1       2.317   8.229  18.494  0.00  0.00    +0.000 A 
ATOM      4  C   UNL     1       1.549   9.142  19.211  0.00  0.00    +0.000 A 
ATOM      5  O   UNL     1       1.417  10.399  18.685  0.00  0.00    +0.000 OA
ATOM      6  C   UNL     1       0.619  11.285  19.360  0.00  0.00    +0.000 A 
ATOM      7  C   UNL     1      -0.022  11.072  20.523  0.00  0.00    +0.000 A 
ATOM      8  C   UNL     1       0.152   9.757  21.162  0.00  0.00    +0.000 A 
ATOM      9  O   UNL     1      -0.343   9.495  22.252  0.00  0.00    +0.000 OA
ATOM     10  C   UNL     1       0.955   8.767  20.414  0.00  0.00    +0.000 A 
ATOM     11  C   UNL     1       1.126   7.472  20.909  0.00  0.00    +0.000 A 
ENDROOT
BRANCH   7  12
ATOM     12  C   UNL     1      -0.850  12.187  21.050  0.00  0.00    +0.000 C 
ATOM     13  O   UNL     1      -1.191  13.087  20.278  0.00  0.00    +0.000 OA
ATOM     14  N   UNL     1      -1.148  12.146  22.397  0.00  0.00    +0.000 N 
ATOM     15  H   UNL     1      -0.703  11.408  22.952  0.00  0.00    +0.000 HD
BRANCH  14  16
ATOM     16  C   UNL     1      -1.906  13.118  23.090  0.00  0.00    +0.000 A 
ATOM     17  C   UNL     1      -1.316  14.158  23.813  0.00  0.00    +0.000 A 
ATOM     18  C   UNL     1      -2.089  15.058  24.554  0.00  0.00    +0.000 A 
ATOM     19  C   UNL     1      -3.471  14.927  24.569  0.00  0.00    +0.000 A 
ATOM     20  C   UNL     1      -4.071  13.915  23.825  0.00  0.00    +0.000 A 
ATOM     21 CL   UNL     1      -5.784  13.744  23.868  0.00  0.00    +0.000 Cl
ATOM     22  C   UNL     1      -3.302  13.024  23.066  0.00  0.00    +0.000 A 
ENDBRANCH  14  16
ENDBRANCH   7  12
BRANCH   1  24
ATOM     23  C   UNL     1       1.258   4.170  20.516  0.00  0.00    +0.000 C 
ATOM     24  C   UNL     1       2.120   5.182  20.694  0.00  0.00    +0.000 C 
BRANCH  23  25
ATOM     25  C   UNL     1       1.596   2.815  20.992  0.00  0.00    +0.000 C 
ATOM     26  O   UNL     1       1.835   2.509  22.147  0.00  0.00    +0.000 OA
BRANCH  25  27
ATOM     27  O   UNL     1       1.773   2.048  19.890  0.00  0.00    +0.000 OA
BRANCH  27  28
ATOM     28  C   UNL     1       1.934   2.810  18.681  0.00  0.00    +0.000 C 
BRANCH  28  29
ATOM     29  C   UNL     1       3.186   2.248  17.979  0.00  0.00    +0.000 C 
BRANCH  29  30
ATOM     30  N   UNL     1       4.369   3.121  17.906  0.00  0.00    +0.000 NA
BRANCH  30  32
ATOM     31  C   UNL     1       5.075   4.245  15.746  0.00  0.00    +0.000 C 
ATOM     32  C   UNL     1       4.107   4.193  16.923  0.00  0.00    +0.000 C 
ENDBRANCH  30  32
BRANCH  30  33
ATOM     33  C   UNL     1       4.806   3.611  19.220  0.00  0.00    +0.000 C 
ATOM     34  C   UNL     1       5.571   4.931  19.231  0.00  0.00    +0.000 C 
ENDBRANCH  30  33
ENDBRANCH  29  30
ENDBRANCH  28  29
ENDBRANCH  27  28
ENDBRANCH  25  27
ENDBRANCH  23  25
ENDBRANCH   1  24
TORSDOF 10
ENDMDL
MODEL 3
REMARK VINA RESULT:      -7.7      1.966      2.718
REMARK  Name = 
REMARK  12 active torsions:
REMARK  status: ('A' for Active; 'I' for Inactive)
REMARK    1  A    between atoms: C_1  and  C_2
REMARK    2  A    between atoms: C_2  and  N_3
REMARK    3  A    between atoms: N_3  and  C_4
REMARK    4  A    between atoms: N_3  and  C_6
REMARK    5  A    between atoms: C_4  and  C_5
REMARK    6  A    between atoms: C_6  and  C_7
REMARK    7  A    between atoms: C_7  and  O_8
REMARK    8  A    between atoms: O_8  and  C_9
REMARK    9  A    between atoms: C_9  and  C_11
REMARK   10  A    between atoms: C_12  and  C_13
REMARK   11  A    between atoms: C_19  and  C_20
REMARK   12  A    between atoms: N_22  and  C_23
REMARK                            x       y       z     vdW  Elec       q    Type
REMARK                         _______ _______ _______ _____ _____    ______ ____
ROOT
ATOM      1  C   UNL     1       1.954   6.808  20.288  0.00  0.00    +0.000 A 
ATOM      2  C   UNL     1       2.380   7.178  19.004  0.00  0.00    +0.000 A 
ATOM      3  C   UNL     1       2.055   8.431  18.480  0.00  0.00    +0.000 A 
ATOM      4  C   UNL     1       1.303   9.323  19.241  0.00  0.00    +0.000 A 
ATOM      5  O   UNL     1       1.013  10.537  18.678  0.00  0.00    +0.000 OA
ATOM      6  C   UNL     1       0.230  11.397  19.402  0.00  0.00    +0.000 A 
ATOM      7  C   UNL     1      -0.256  11.200  20.640  0.00  0.00    +0.000 A 
ATOM      8  C   UNL     1       0.093   9.938  21.312  0.00  0.00    +0.000 A 
ATOM      9  O   UNL     1      -0.253   9.699  22.464  0.00  0.00    +0.000 OA
ATOM     10  C   UNL     1       0.882   8.970  20.521  0.00  0.00    +0.000 A 
ATOM     11  C   UNL     1       1.209   7.720  21.049  0.00  0.00    +0.000 A 
ENDROOT
BRANCH   7  12
ATOM     12  C   UNL     1      -1.104  12.278  21.210  0.00  0.00    +0.000 C 
ATOM     13  O   UNL     1      -1.636  13.082  20.440  0.00  0.00    +0.000 OA
ATOM     14  N   UNL     1      -1.203  12.318  22.587  0.00  0.00    +0.000 N 
ATOM     15  H   UNL     1      -0.615  11.666  23.116  0.00  0.00    +0.000 HD
BRANCH  14  16
ATOM     16  C   UNL     1      -1.945  13.272  23.320  0.00  0.00    +0.000 A 
ATOM     17  C   UNL     1      -3.327  13.174  23.500  0.00  0.00    +0.000 A 
ATOM     18  C   UNL     1      -4.046  14.174  24.162  0.00  0.00    +0.000 A 
ATOM     19  C   UNL     1      -3.378  15.285  24.662  0.00  0.00    +0.000 A 
ATOM     20  C   UNL     1      -1.997  15.375  24.518  0.00  0.00    +0.000 A 
ATOM     21 CL   UNL     1      -1.180  16.767  25.118  0.00  0.00    +0.000 Cl
ATOM     22  C   UNL     1      -1.271  14.367  23.872  0.00  0.00    +0.000 A 
ENDBRANCH  14  16
ENDBRANCH   7  12
BRANCH   1  24
ATOM     23  C   UNL     1       1.527   4.442  20.868  0.00  0.00    +0.000 C 
ATOM     24  C   UNL     1       2.350   5.500  20.822  0.00  0.00    +0.000 C 
BRANCH  23  25
ATOM     25  C   UNL     1       2.020   3.139  21.354  0.00  0.00    +0.000 C 
ATOM     26  O   UNL     1       1.392   2.359  22.048  0.00  0.00    +0.000 OA
BRANCH  25  27
ATOM     27  O   UNL     1       3.338   3.081  21.045  0.00  0.00    +0.000 OA
BRANCH  27  28
ATOM     28  C   UNL     1       3.621   2.265  19.895  0.00  0.00    +0.000 C 
BRANCH  28  29
ATOM     29  C   UNL     1       4.628   3.058  19.040  0.00  0.00    +0.000 C 
BRANCH  29  30
ATOM     30  N   UNL     1       4.092   4.126  18.181  0.00  0.00    +0.000 NA
BRANCH  30  32
ATOM     31  C   UNL     1       5.021   5.314  16.143  0.00  0.00    +0.000 C 
ATOM     32  C   UNL     1       5.222   4.870  17.587  0.00  0.00    +0.000 C 
ENDBRANCH  30  32
BRANCH  30  33
ATOM     33  C   UNL     1       3.116   3.639  17.196  0.00  0.00    +0.000 C 
ATOM     34  C   UNL     1       1.670   4.083  17.398  0.00  0.00    +0.000 C 
ENDBRANCH  30  33
ENDBRANCH  29  30
ENDBRANCH  28  29
ENDBRANCH  27  28
ENDBRANCH  25  27
ENDBRANCH  23  25
ENDBRANCH   1  24
TORSDOF 10
ENDMDL
MODEL 4
REMARK VINA RESULT:      -7.7      2.041      3.217
REMARK  Name = 
REMARK  12 active torsions:
REMARK  status: ('A' for Active; 'I' for Inactive)
REMARK    1  A    between atoms: C_1  and  C_2
REMARK    2  A    between atoms: C_2  and  N_3
REMARK    3  A    between atoms: N_3  and  C_4
REMARK    4  A    between atoms: N_3  and  C_6
REMARK    5  A    between atoms: C_4  and  C_5
REMARK    6  A    between atoms: C_6  and  C_7
REMARK    7  A    between atoms: C_7  and  O_8
REMARK    8  A    between atoms: O_8  and  C_9
REMARK    9  A    between atoms: C_9  and  C_11
REMARK   10  A    between atoms: C_12  and  C_13
REMARK   11  A    between atoms: C_19  and  C_20
REMARK   12  A    between atoms: N_22  and  C_23
REMARK                            x       y       z     vdW  Elec       q    Type
REMARK                         _______ _______ _______ _____ _____    ______ ____
ROOT
ATOM      1  C   UNL     1       2.318   7.592  19.417  0.00  0.00    +0.000 A 
ATOM      2  C   UNL     1       2.016   8.130  18.157  0.00  0.00    +0.000 A 
ATOM      3  C   UNL     1       1.175   9.240  18.041  0.00  0.00    +0.000 A 
ATOM      4  C   UNL     1       0.634   9.819  19.186  0.00  0.00    +0.000 A 
ATOM      5  O   UNL     1      -0.183  10.904  19.013  0.00  0.00    +0.000 OA
ATOM      6  C   UNL     1      -0.758  11.444  20.132  0.00  0.00    +0.000 A 
ATOM      7  C   UNL     1      -0.574  11.053  21.406  0.00  0.00    +0.000 A 
ATOM      8  C   UNL     1       0.355   9.936  21.644  0.00  0.00    +0.000 A 
ATOM      9  O   UNL     1       0.633   9.553  22.775  0.00  0.00    +0.000 OA
ATOM     10  C   UNL     1       0.934   9.298  20.443  0.00  0.00    +0.000 A 
ATOM     11  C   UNL     1       1.777   8.192  20.563  0.00  0.00    +0.000 A 
ENDROOT
BRANCH   7  12
ATOM     12  C   UNL     1      -1.330  11.786  22.452  0.00  0.00    +0.000 C 
ATOM     13  O   UNL     1      -1.912  11.137  23.326  0.00  0.00    +0.000 OA
ATOM     14  N   UNL     1      -1.354  13.162  22.344  0.00  0.00    +0.000 N 
ATOM     15  H   UNL     1      -0.931  13.571  21.504  0.00  0.00    +0.000 HD
BRANCH  14  16
ATOM     16  C   UNL     1      -2.029  14.035  23.227  0.00  0.00    +0.000 A 
ATOM     17  C   UNL     1      -3.371  14.388  23.057  0.00  0.00    +0.000 A 
ATOM     18  C   UNL     1      -3.991  15.315  23.900  0.00  0.00    +0.000 A 
ATOM     19  C   UNL     1      -3.268  15.894  24.935  0.00  0.00    +0.000 A 
ATOM     20  C   UNL     1      -1.941  15.524  25.134  0.00  0.00    +0.000 A 
ATOM     21 CL   UNL     1      -1.044  16.264  26.404  0.00  0.00    +0.000 Cl
ATOM     22  C   UNL     1      -1.322  14.581  24.303  0.00  0.00    +0.000 A 
ENDBRANCH  14  16
ENDBRANCH   7  12
BRANCH   1  24
ATOM     23  C   UNL     1       4.091   6.117  18.524  0.00  0.00    +0.000 C 
ATOM     24  C   UNL     1       3.238   6.452  19.503  0.00  0.00    +0.000 C 
BRANCH  23  25
ATOM     25  C   UNL     1       5.036   5.000  18.714  0.00  0.00    +0.000 C 
ATOM     26  O   UNL     1       6.124   5.077  19.257  0.00  0.00    +0.000 OA
BRANCH  25  27
ATOM     27  O   UNL     1       4.546   3.952  18.009  0.00  0.00    +0.000 OA
BRANCH  27  28
ATOM     28  C   UNL     1       4.452   2.739  18.776  0.00  0.00    +0.000 C 
BRANCH  28  29
ATOM     29  C   UNL     1       3.067   2.138  18.467  0.00  0.00    +0.000 C 
BRANCH  29  30
ATOM     30  N   UNL     1       1.985   2.404  19.428  0.00  0.00    +0.000 NA
BRANCH  30  32
ATOM     31  C   UNL     1       2.043   3.762  21.568  0.00  0.00    +0.000 C 
ATOM     32  C   UNL     1       2.575   2.575  20.772  0.00  0.00    +0.000 C 
ENDBRANCH  30  32
BRANCH  30  33
ATOM     33  C   UNL     1       1.107   3.509  19.017  0.00  0.00    +0.000 C 
ATOM     34  C   UNL     1       1.248   3.986  17.574  0.00  0.00    +0.000 C 
ENDBRANCH  30  33
ENDBRANCH  29  30
ENDBRANCH  28  29
ENDBRANCH  27  28
ENDBRANCH  25  27
ENDBRANCH  23  25
ENDBRANCH   1  24
TORSDOF 10
ENDMDL
MODEL 5
REMARK VINA RESULT:      -7.5      1.104      1.872
REMARK  Name = 
REMARK  12 active torsions:
REMARK  status: ('A' for Active; 'I' for Inactive)
REMARK    1  A    between atoms: C_1  and  C_2
REMARK    2  A    between atoms: C_2  and  N_3
REMARK    3  A    between atoms: N_3  and  C_4
REMARK    4  A    between atoms: N_3  and  C_6
REMARK    5  A    between atoms: C_4  and  C_5
REMARK    6  A    between atoms: C_6  and  C_7
REMARK    7  A    between atoms: C_7  and  O_8
REMARK    8  A    between atoms: O_8  and  C_9
REMARK    9  A    between atoms: C_9  and  C_11
REMARK   10  A    between atoms: C_12  and  C_13
REMARK   11  A    between atoms: C_19  and  C_20
REMARK   12  A    between atoms: N_22  and  C_23
REMARK                            x       y       z     vdW  Elec       q    Type
REMARK                         _______ _______ _______ _____ _____    ______ ____
ROOT
ATOM      1  C   UNL     1       2.246   7.496  18.960  0.00  0.00    +0.000 A 
ATOM      2  C   UNL     1       2.215   8.319  17.824  0.00  0.00    +0.000 A 
ATOM      3  C   UNL     1       1.588   9.566  17.867  0.00  0.00    +0.000 A 
ATOM      4  C   UNL     1       0.992   9.999  19.048  0.00  0.00    +0.000 A 
ATOM      5  O   UNL     1       0.392  11.230  19.032  0.00  0.00    +0.000 OA
ATOM      6  C   UNL     1      -0.241  11.638  20.177  0.00  0.00    +0.000 A 
ATOM      7  C   UNL     1      -0.302  10.977  21.347  0.00  0.00    +0.000 A 
ATOM      8  C   UNL     1       0.392   9.681  21.430  0.00  0.00    +0.000 A 
ATOM      9  O   UNL     1       0.443   9.038  22.473  0.00  0.00    +0.000 OA
ATOM     10  C   UNL     1       1.025   9.195  20.185  0.00  0.00    +0.000 A 
ATOM     11  C   UNL     1       1.654   7.950  20.147  0.00  0.00    +0.000 A 
ENDROOT
BRANCH   7  12
ATOM     12  C   UNL     1      -1.070  11.618  22.444  0.00  0.00    +0.000 C 
ATOM     13  O   UNL     1      -1.597  10.897  23.296  0.00  0.00    +0.000 OA
ATOM     14  N   UNL     1      -1.166  12.994  22.404  0.00  0.00    +0.000 N 
ATOM     15  H   UNL     1      -0.786  13.464  21.577  0.00  0.00    +0.000 HD
BRANCH  14  16
ATOM     16  C   UNL     1      -1.865  13.787  23.343  0.00  0.00    +0.000 A 
ATOM     17  C   UNL     1      -3.261  13.831  23.401  0.00  0.00    +0.000 A 
ATOM     18  C   UNL     1      -3.925  14.684  24.288  0.00  0.00    +0.000 A 
ATOM     19  C   UNL     1      -3.189  15.500  25.138  0.00  0.00    +0.000 A 
ATOM     20  C   UNL     1      -1.799  15.438  25.113  0.00  0.00    +0.000 A 
ATOM     21 CL   UNL     1      -0.893  16.470  26.152  0.00  0.00    +0.000 Cl
ATOM     22  C   UNL     1      -1.130  14.571  24.239  0.00  0.00    +0.000 A 
ENDBRANCH  14  16
ENDBRANCH   7  12
BRANCH   1  24
ATOM     23  C   UNL     1       2.482   5.083  19.446  0.00  0.00    +0.000 C 
ATOM     24  C   UNL     1       2.950   6.211  18.891  0.00  0.00    +0.000 C 
BRANCH  23  25
ATOM     25  C   UNL     1       3.213   3.813  19.272  0.00  0.00    +0.000 C 
ATOM     26  O   UNL     1       3.808   3.213  20.150  0.00  0.00    +0.000 OA
BRANCH  25  27
ATOM     27  O   UNL     1       3.250   3.562  17.942  0.00  0.00    +0.000 OA
BRANCH  27  28
ATOM     28  C   UNL     1       4.567   3.261  17.452  0.00  0.00    +0.000 C 
BRANCH  28  29
ATOM     29  C   UNL     1       4.876   4.310  16.367  0.00  0.00    +0.000 C 
BRANCH  29  30
ATOM     30  N   UNL     1       6.179   4.991  16.436  0.00  0.00    +0.000 NA
BRANCH  30  32
ATOM     31  C   UNL     1       7.445   5.780  18.486  0.00  0.00    +0.000 C 
ATOM     32  C   UNL     1       6.842   4.619  17.703  0.00  0.00    +0.000 C 
ENDBRANCH  30  32
BRANCH  30  33
ATOM     33  C   UNL     1       7.008   4.771  15.243  0.00  0.00    +0.000 C 
ATOM     34  C   UNL     1       6.332   4.070  14.067  0.00  0.00    +0.000 C 
ENDBRANCH  30  33
ENDBRANCH  29  30
ENDBRANCH  28  29
ENDBRANCH  27  28
ENDBRANCH  25  27
ENDBRANCH  23  25
ENDBRANCH   1  24
TORSDOF 10
ENDMDL
MODEL 6
REMARK VINA RESULT:      -7.5      1.925      2.600
REMARK  Name = 
REMARK  12 active torsions:
REMARK  status: ('A' for Active; 'I' for Inactive)
REMARK    1  A    between atoms: C_1  and  C_2
REMARK    2  A    between atoms: C_2  and  N_3
REMARK    3  A    between atoms: N_3  and  C_4
REMARK    4  A    between atoms: N_3  and  C_6
REMARK    5  A    between atoms: C_4  and  C_5
REMARK    6  A    between atoms: C_6  and  C_7
REMARK    7  A    between atoms: C_7  and  O_8
REMARK    8  A    between atoms: O_8  and  C_9
REMARK    9  A    between atoms: C_9  and  C_11
REMARK   10  A    between atoms: C_12  and  C_13
REMARK   11  A    between atoms: C_19  and  C_20
REMARK   12  A    between atoms: N_22  and  C_23
REMARK                            x       y       z     vdW  Elec       q    Type
REMARK                         _______ _______ _______ _____ _____    ______ ____
ROOT
ATOM      1  C   UNL     1       2.078   7.070  19.690  0.00  0.00    +0.000 A 
ATOM      2  C   UNL     1       2.316   7.700  18.459  0.00  0.00    +0.000 A 
ATOM      3  C   UNL     1       1.880   9.008  18.234  0.00  0.00    +0.000 A 
ATOM      4  C   UNL     1       1.207   9.695  19.241  0.00  0.00    +0.000 A 
ATOM      5  O   UNL     1       0.803  10.974  18.966  0.00  0.00    +0.000 OA
ATOM      6  C   UNL     1       0.096  11.634  19.935  0.00  0.00    +0.000 A 
ATOM      7  C   UNL     1      -0.213  11.179  21.163  0.00  0.00    +0.000 A 
ATOM      8  C   UNL     1       0.265   9.835  21.527  0.00  0.00    +0.000 A 
ATOM      9  O   UNL     1       0.086   9.364  22.645  0.00  0.00    +0.000 OA
ATOM     10  C   UNL     1       0.974   9.082  20.471  0.00  0.00    +0.000 A 
ATOM     11  C   UNL     1       1.411   7.777  20.701  0.00  0.00    +0.000 A 
ENDROOT
BRANCH   7  12
ATOM     12  C   UNL     1      -1.013  12.078  22.033  0.00  0.00    +0.000 C 
ATOM     13  O   UNL     1      -0.468  12.587  23.016  0.00  0.00    +0.000 OA
ATOM     14  N   UNL     1      -2.339  12.248  21.688  0.00  0.00    +0.000 N 
ATOM     15  H   UNL     1      -2.697  11.674  20.918  0.00  0.00    +0.000 HD
BRANCH  14  16
ATOM     16  C   UNL     1      -3.266  13.046  22.395  0.00  0.00    +0.000 A 
ATOM     17  C   UNL     1      -3.866  12.627  23.586  0.00  0.00    +0.000 A 
ATOM     18  C   UNL     1      -4.839  13.404  24.222  0.00  0.00    +0.000 A 
ATOM     19  C   UNL     1      -5.214  14.623  23.671  0.00  0.00    +0.000 A 
ATOM     20  C   UNL     1      -4.598  15.065  22.504  0.00  0.00    +0.000 A 
ATOM     21 CL   UNL     1      -5.087  16.565  21.814  0.00  0.00    +0.000 Cl
ATOM     22  C   UNL     1      -3.610  14.298  21.874  0.00  0.00    +0.000 A 
ENDBRANCH  14  16
ENDBRANCH   7  12
BRANCH   1  24
ATOM     23  C   UNL     1       1.806   4.677  20.252  0.00  0.00    +0.000 C 
ATOM     24  C   UNL     1       2.587   5.711  19.905  0.00  0.00    +0.000 C 
BRANCH  23  25
ATOM     25  C   UNL     1       2.380   3.324  20.381  0.00  0.00    +0.000 C 
ATOM     26  O   UNL     1       2.931   2.881  21.373  0.00  0.00    +0.000 OA
BRANCH  25  27
ATOM     27  O   UNL     1       2.344   2.766  19.147  0.00  0.00    +0.000 OA
BRANCH  27  28
ATOM     28  C   UNL     1       3.648   2.510  18.596  0.00  0.00    +0.000 C 
BRANCH  28  29
ATOM     29  C   UNL     1       3.771   3.402  17.346  0.00  0.00    +0.000 C 
BRANCH  29  30
ATOM     30  N   UNL     1       4.941   4.291  17.262  0.00  0.00    +0.000 NA
BRANCH  30  32
ATOM     31  C   UNL     1       6.498   5.532  18.831  0.00  0.00    +0.000 C 
ATOM     32  C   UNL     1       5.611   4.319  18.579  0.00  0.00    +0.000 C 
ENDBRANCH  30  32
BRANCH  30  33
ATOM     33  C   UNL     1       5.837   3.962  16.145  0.00  0.00    +0.000 C 
ATOM     34  C   UNL     1       5.609   4.730  14.845  0.00  0.00    +0.000 C 
ENDBRANCH  30  33
ENDBRANCH  29  30
ENDBRANCH  28  29
ENDBRANCH  27  28
ENDBRANCH  25  27
ENDBRANCH  23  25
ENDBRANCH   1  24
TORSDOF 10
ENDMDL
MODEL 7
REMARK VINA RESULT:      -7.5      3.114      4.746
REMARK  Name = 
REMARK  12 active torsions:
REMARK  status: ('A' for Active; 'I' for Inactive)
REMARK    1  A    between atoms: C_1  and  C_2
REMARK    2  A    between atoms: C_2  and  N_3
REMARK    3  A    between atoms: N_3  and  C_4
REMARK    4  A    between atoms: N_3  and  C_6
REMARK    5  A    between atoms: C_4  and  C_5
REMARK    6  A    between atoms: C_6  and  C_7
REMARK    7  A    between atoms: C_7  and  O_8
REMARK    8  A    between atoms: O_8  and  C_9
REMARK    9  A    between atoms: C_9  and  C_11
REMARK   10  A    between atoms: C_12  and  C_13
REMARK   11  A    between atoms: C_19  and  C_20
REMARK   12  A    between atoms: N_22  and  C_23
REMARK                            x       y       z     vdW  Elec       q    Type
REMARK                         _______ _______ _______ _____ _____    ______ ____
ROOT
ATOM      1  C   UNL     1       3.826   5.521  18.557  0.00  0.00    +0.000 A 
ATOM      2  C   UNL     1       3.364   5.004  19.777  0.00  0.00    +0.000 A 
ATOM      3  C   UNL     1       2.450   5.722  20.553  0.00  0.00    +0.000 A 
ATOM      4  C   UNL     1       1.991   6.960  20.109  0.00  0.00    +0.000 A 
ATOM      5  O   UNL     1       1.096   7.619  20.909  0.00  0.00    +0.000 OA
ATOM      6  C   UNL     1       0.682   8.859  20.502  0.00  0.00    +0.000 A 
ATOM      7  C   UNL     1       1.023   9.494  19.366  0.00  0.00    +0.000 A 
ATOM      8  C   UNL     1       1.926   8.790  18.442  0.00  0.00    +0.000 A 
ATOM      9  O   UNL     1       2.242   9.263  17.356  0.00  0.00    +0.000 OA
ATOM     10  C   UNL     1       2.436   7.478  18.895  0.00  0.00    +0.000 A 
ATOM     11  C   UNL     1       3.346   6.762  18.116  0.00  0.00    +0.000 A 
ENDROOT
BRANCH   7  12
ATOM     12  C   UNL     1       0.457  10.851  19.156  0.00  0.00    +0.000 C 
ATOM     13  O   UNL     1      -0.545  10.970  18.445  0.00  0.00    +0.000 OA
ATOM     14  N   UNL     1       1.129  11.897  19.755  0.00  0.00    +0.000 N 
ATOM     15  H   UNL     1       2.016  11.676  20.219  0.00  0.00    +0.000 HD
BRANCH  14  16
ATOM     16  C   UNL     1       0.761  13.258  19.661  0.00  0.00    +0.000 A 
ATOM     17  C   UNL     1       1.374  14.144  18.770  0.00  0.00    +0.000 A 
ATOM     18  C   UNL     1       1.044  15.503  18.755  0.00  0.00    +0.000 A 
ATOM     19  C   UNL     1       0.083  15.988  19.633  0.00  0.00    +0.000 A 
ATOM     20  C   UNL     1      -0.558  15.107  20.500  0.00  0.00    +0.000 A 
ATOM     21 CL   UNL     1      -1.731  15.719  21.602  0.00  0.00    +0.000 Cl
ATOM     22  C   UNL     1      -0.244  13.742  20.505  0.00  0.00    +0.000 A 
ENDBRANCH  14  16
ENDBRANCH   7  12
BRANCH   1  24
ATOM     23  C   UNL     1       5.700   5.256  16.965  0.00  0.00    +0.000 C 
ATOM     24  C   UNL     1       4.754   4.720  17.750  0.00  0.00    +0.000 C 
BRANCH  23  25
ATOM     25  C   UNL     1       6.642   4.384  16.237  0.00  0.00    +0.000 C 
ATOM     26  O   UNL     1       7.857   4.444  16.304  0.00  0.00    +0.000 OA
BRANCH  25  27
ATOM     27  O   UNL     1       5.905   3.661  15.361  0.00  0.00    +0.000 OA
BRANCH  27  28
ATOM     28  C   UNL     1       5.582   4.376  14.156  0.00  0.00    +0.000 C 
BRANCH  28  29
ATOM     29  C   UNL     1       6.621   3.943  13.104  0.00  0.00    +0.000 C 
BRANCH  29  30
ATOM     30  N   UNL     1       6.111   3.406  11.831  0.00  0.00    +0.000 NA
BRANCH  30  32
ATOM     31  C   UNL     1       6.374   0.994  11.099  0.00  0.00    +0.000 C 
ATOM     32  C   UNL     1       7.027   2.346  11.362  0.00  0.00    +0.000 C 
ENDBRANCH  30  32
BRANCH  30  33
ATOM     33  C   UNL     1       4.704   2.989  11.904  0.00  0.00    +0.000 C 
ATOM     34  C   UNL     1       3.773   3.554  10.835  0.00  0.00    +0.000 C 
ENDBRANCH  30  33
ENDBRANCH  29  30
ENDBRANCH  28  29
ENDBRANCH  27  28
ENDBRANCH  25  27
ENDBRANCH  23  25
ENDBRANCH   1  24
TORSDOF 10
ENDMDL
MODEL 8
REMARK VINA RESULT:      -7.5      2.227      3.475
REMARK  Name = 
REMARK  12 active torsions:
REMARK  status: ('A' for Active; 'I' for Inactive)
REMARK    1  A    between atoms: C_1  and  C_2
REMARK    2  A    between atoms: C_2  and  N_3
REMARK    3  A    between atoms: N_3  and  C_4
REMARK    4  A    between atoms: N_3  and  C_6
REMARK    5  A    between atoms: C_4  and  C_5
REMARK    6  A    between atoms: C_6  and  C_7
REMARK    7  A    between atoms: C_7  and  O_8
REMARK    8  A    between atoms: O_8  and  C_9
REMARK    9  A    between atoms: C_9  and  C_11
REMARK   10  A    between atoms: C_12  and  C_13
REMARK   11  A    between atoms: C_19  and  C_20
REMARK   12  A    between atoms: N_22  and  C_23
REMARK                            x       y       z     vdW  Elec       q    Type
REMARK                         _______ _______ _______ _____ _____    ______ ____
ROOT
ATOM      1  C   UNL     1       2.726   7.129  18.810  0.00  0.00    +0.000 A 
ATOM      2  C   UNL     1       2.565   7.882  17.637  0.00  0.00    +0.000 A 
ATOM      3  C   UNL     1       1.849   9.081  17.654  0.00  0.00    +0.000 A 
ATOM      4  C   UNL     1       1.293   9.536  18.847  0.00  0.00    +0.000 A 
ATOM      5  O   UNL     1       0.601  10.717  18.806  0.00  0.00    +0.000 OA
ATOM      6  C   UNL     1       0.009  11.141  19.966  0.00  0.00    +0.000 A 
ATOM      7  C   UNL     1       0.067  10.544  21.169  0.00  0.00    +0.000 A 
ATOM      8  C   UNL     1       0.862   9.309  21.275  0.00  0.00    +0.000 A 
ATOM      9  O   UNL     1       1.023   8.731  22.345  0.00  0.00    +0.000 OA
ATOM     10  C   UNL     1       1.454   8.801  20.020  0.00  0.00    +0.000 A 
ATOM     11  C   UNL     1       2.173   7.604  20.007  0.00  0.00    +0.000 A 
ENDROOT
BRANCH   7  12
ATOM     12  C   UNL     1      -0.681  11.189  22.279  0.00  0.00    +0.000 C 
ATOM     13  O   UNL     1      -0.799  10.578  23.345  0.00  0.00    +0.000 OA
ATOM     14  N   UNL     1      -1.226  12.429  22.013  0.00  0.00    +0.000 N 
ATOM     15  H   UNL     1      -1.157  12.772  21.050  0.00  0.00    +0.000 HD
BRANCH  14  16
ATOM     16  C   UNL     1      -1.983  13.195  22.928  0.00  0.00    +0.000 A 
ATOM     17  C   UNL     1      -1.412  14.178  23.742  0.00  0.00    +0.000 A 
ATOM     18  C   UNL     1      -2.172  14.865  24.694  0.00  0.00    +0.000 A 
ATOM     19  C   UNL     1      -3.524  14.577  24.832  0.00  0.00    +0.000 A 
ATOM     20  C   UNL     1      -4.110  13.626  24.002  0.00  0.00    +0.000 A 
ATOM     21 CL   UNL     1      -5.781  13.257  24.196  0.00  0.00    +0.000 Cl
ATOM     22  C   UNL     1      -3.356  12.949  23.035  0.00  0.00    +0.000 A 
ENDBRANCH  14  16
ENDBRANCH   7  12
BRANCH   1  24
ATOM     23  C   UNL     1       3.874   5.290  17.619  0.00  0.00    +0.000 C 
ATOM     24  C   UNL     1       3.520   5.896  18.762  0.00  0.00    +0.000 C 
BRANCH  23  25
ATOM     25  C   UNL     1       4.734   4.092  17.650  0.00  0.00    +0.000 C 
ATOM     26  O   UNL     1       5.137   3.485  16.674  0.00  0.00    +0.000 OA
BRANCH  25  27
ATOM     27  O   UNL     1       4.816   3.704  18.945  0.00  0.00    +0.000 OA
BRANCH  27  28
ATOM     28  C   UNL     1       4.554   2.304  19.142  0.00  0.00    +0.000 C 
BRANCH  28  29
ATOM     29  C   UNL     1       3.078   2.082  18.760  0.00  0.00    +0.000 C 
BRANCH  29  30
ATOM     30  N   UNL     1       2.089   2.089  19.850  0.00  0.00    +0.000 NA
BRANCH  30  32
ATOM     31  C   UNL     1       2.167   3.958  21.561  0.00  0.00    +0.000 C 
ATOM     32  C   UNL     1       2.729   2.629  21.067  0.00  0.00    +0.000 C 
ENDBRANCH  30  32
BRANCH  30  33
ATOM     33  C   UNL     1       0.835   2.763  19.486  0.00  0.00    +0.000 C 
ATOM     34  C   UNL     1       0.831   3.515  18.158  0.00  0.00    +0.000 C 
ENDBRANCH  30  33
ENDBRANCH  29  30
ENDBRANCH  28  29
ENDBRANCH  27  28
ENDBRANCH  25  27
ENDBRANCH  23  25
ENDBRANCH   1  24
TORSDOF 10
ENDMDL
MODEL 9
REMARK VINA RESULT:      -7.5      1.575      2.327
REMARK  Name = 
REMARK  12 active torsions:
REMARK  status: ('A' for Active; 'I' for Inactive)
REMARK    1  A    between atoms: C_1  and  C_2
REMARK    2  A    between atoms: C_2  and  N_3
REMARK    3  A    between atoms: N_3  and  C_4
REMARK    4  A    between atoms: N_3  and  C_6
REMARK    5  A    between atoms: C_4  and  C_5
REMARK    6  A    between atoms: C_6  and  C_7
REMARK    7  A    between atoms: C_7  and  O_8
REMARK    8  A    between atoms: O_8  and  C_9
REMARK    9  A    between atoms: C_9  and  C_11
REMARK   10  A    between atoms: C_12  and  C_13
REMARK   11  A    between atoms: C_19  and  C_20
REMARK   12  A    between atoms: N_22  and  C_23
REMARK                            x       y       z     vdW  Elec       q    Type
REMARK                         _______ _______ _______ _____ _____    ______ ____
ROOT
ATOM      1  C   UNL     1       2.455   7.261  19.105  0.00  0.00    +0.000 A 
ATOM      2  C   UNL     1       2.410   7.961  17.891  0.00  0.00    +0.000 A 
ATOM      3  C   UNL     1       1.735   9.181  17.797  0.00  0.00    +0.000 A 
ATOM      4  C   UNL     1       1.105   9.708  18.921  0.00  0.00    +0.000 A 
ATOM      5  O   UNL     1       0.459  10.906  18.773  0.00  0.00    +0.000 OA
ATOM      6  C   UNL     1      -0.206  11.404  19.862  0.00  0.00    +0.000 A 
ATOM      7  C   UNL     1      -0.261  10.863  21.093  0.00  0.00    +0.000 A 
ATOM      8  C   UNL     1       0.481   9.612  21.316  0.00  0.00    +0.000 A 
ATOM      9  O   UNL     1       0.541   9.081  22.420  0.00  0.00    +0.000 OA
ATOM     10  C   UNL     1       1.150   9.026  20.135  0.00  0.00    +0.000 A 
ATOM     11  C   UNL     1       1.827   7.809  20.233  0.00  0.00    +0.000 A 
ENDROOT
BRANCH   7  12
ATOM     12  C   UNL     1      -1.069  11.582  22.110  0.00  0.00    +0.000 C 
ATOM     13  O   UNL     1      -0.903  11.305  23.301  0.00  0.00    +0.000 OA
ATOM     14  N   UNL     1      -1.987  12.496  21.631  0.00  0.00    +0.000 N 
ATOM     15  H   UNL     1      -2.110  12.545  20.615  0.00  0.00    +0.000 HD
BRANCH  14  16
ATOM     16  C   UNL     1      -2.859  13.267  22.433  0.00  0.00    +0.000 A 
ATOM     17  C   UNL     1      -2.498  14.512  22.957  0.00  0.00    +0.000 A 
ATOM     18  C   UNL     1      -3.351  15.215  23.812  0.00  0.00    +0.000 A 
ATOM     19  C   UNL     1      -4.588  14.678  24.144  0.00  0.00    +0.000 A 
ATOM     20  C   UNL     1      -4.972  13.455  23.601  0.00  0.00    +0.000 A 
ATOM     21 CL   UNL     1      -6.496  12.784  24.037  0.00  0.00    +0.000 Cl
ATOM     22  C   UNL     1      -4.127  12.756  22.729  0.00  0.00    +0.000 A 
ENDBRANCH  14  16
ENDBRANCH   7  12
BRANCH   1  24
ATOM     23  C   UNL     1       2.791   4.862  18.610  0.00  0.00    +0.000 C 
ATOM     24  C   UNL     1       3.208   6.004  19.176  0.00  0.00    +0.000 C 
BRANCH  23  25
ATOM     25  C   UNL     1       3.638   3.655  18.663  0.00  0.00    +0.000 C 
ATOM     26  O   UNL     1       3.369   2.627  19.260  0.00  0.00    +0.000 OA
BRANCH  25  27
ATOM     27  O   UNL     1       4.824   3.985  18.096  0.00  0.00    +0.000 OA
BRANCH  27  28
ATOM     28  C   UNL     1       4.863   3.757  16.677  0.00  0.00    +0.000 C 
BRANCH  28  29
ATOM     29  C   UNL     1       5.028   5.141  16.021  0.00  0.00    +0.000 C 
BRANCH  29  30
ATOM     30  N   UNL     1       6.378   5.522  15.576  0.00  0.00    +0.000 NA
BRANCH  30  32
ATOM     31  C   UNL     1       6.813   7.171  17.452  0.00  0.00    +0.000 C 
ATOM     32  C   UNL     1       7.190   5.864  16.762  0.00  0.00    +0.000 C 
ENDBRANCH  30  32
BRANCH  30  33
ATOM     33  C   UNL     1       6.999   4.521  14.698  0.00  0.00    +0.000 C 
ATOM     34  C   UNL     1       6.146   4.013  13.539  0.00  0.00    +0.000 C 
ENDBRANCH  30  33
ENDBRANCH  29  30
ENDBRANCH  28  29
ENDBRANCH  27  28
ENDBRANCH  25  27
ENDBRANCH  23  25
ENDBRANCH   1  24
TORSDOF 10
ENDMDL
