MODEL 1
REMARK VINA RESULT:      -8.2      0.000      0.000
REMARK  Name = 
REMARK  8 active torsions:
REMARK  status: ('A' for Active; 'I' for Inactive)
REMARK    1  A    between atoms: C_1  and  O_2
REMARK    2  A    between atoms: O_2  and  C_3
REMARK    3  A    between atoms: C_5  and  N_6
REMARK    4  A    between atoms: C_13  and  C_14
REMARK    5  A    between atoms: C_23  and  O_24
REMARK    6  A    between atoms: O_24  and  C_25
REMARK    7  A    between atoms: C_26  and  O_27
REMARK    8  A    between atoms: O_27  and  C_28
REMARK                            x       y       z     vdW  Elec       q    Type
REMARK                         _______ _______ _______ _____ _____    ______ ____
ROOT
ATOM      1  N   UNL     1       0.931   6.968  21.210  0.00  0.00    +0.000 N 
ATOM      2  C   UNL     1       1.673   5.998  20.650  0.00  0.00    +0.000 A 
ATOM      3  N   UNL     1       1.332   4.733  20.760  0.00  0.00    +0.000 NA
ATOM      4  C   UNL     1       2.308   4.062  20.091  0.00  0.00    +0.000 A 
ATOM      5  C   UNL     1       2.416   2.682  19.888  0.00  0.00    +0.000 A 
ATOM      6  C   UNL     1       3.498   2.210  19.161  0.00  0.00    +0.000 A 
ATOM      7  C   UNL     1       4.465   3.104  18.697  0.00  0.00    +0.000 A 
ATOM      8  C   UNL     1       4.433   4.514  18.929  0.00  0.00    +0.000 A 
ATOM      9  C   UNL     1       3.278   4.939  19.611  0.00  0.00    +0.000 A 
ATOM     10  O   UNL     1       2.852   6.217  19.976  0.00  0.00    +0.000 OA
ATOM     11  H   UNL     1       0.168   6.558  21.736  0.00  0.00    +0.000 HD
ENDROOT
BRANCH   1  14
ATOM     12  C   UNL     1       0.096  10.471  22.087  0.00  0.00    +0.000 A 
ATOM     13  C   UNL     1       0.241   9.074  22.100  0.00  0.00    +0.000 A 
ATOM     14  C   UNL     1       0.780   8.345  21.023  0.00  0.00    +0.000 A 
ATOM     15  C   UNL     1       1.130   9.056  19.889  0.00  0.00    +0.000 A 
ATOM     16  C   UNL     1       0.967  10.458  19.831  0.00  0.00    +0.000 A 
ATOM     17  C   UNL     1       0.433  11.184  20.925  0.00  0.00    +0.000 A 
BRANCH  12  19
ATOM     18  C   UNL     1      -1.796  11.456  23.144  0.00  0.00    +0.000 C 
ATOM     19  O   UNL     1      -0.405  11.131  23.181  0.00  0.00    +0.000 OA
ENDBRANCH  12  19
BRANCH  16  20
ATOM     20  O   UNL     1       1.338  10.973  18.608  0.00  0.00    +0.000 OA
ATOM     21  C   UNL     1       2.092  10.129  17.746  0.00  0.00    +0.000 C 
ENDBRANCH  16  20
BRANCH  17  22
ATOM     22  O   UNL     1       0.294  12.531  20.732  0.00  0.00    +0.000 OA
ATOM     23  C   UNL     1       1.342  13.447  21.002  0.00  0.00    +0.000 C 
ENDBRANCH  17  22
ENDBRANCH   1  14
BRANCH   8  24
ATOM     24  C   UNL     1       5.593   5.345  18.550  0.00  0.00    +0.000 A 
ATOM     25  C   UNL     1       5.602   6.326  17.566  0.00  0.00    +0.000 A 
ATOM     26  C   UNL     1       6.747   7.115  17.402  0.00  0.00    +0.000 A 
ATOM     27  C   UNL     1       7.856   6.909  18.205  0.00  0.00    +0.000 A 
ATOM     28  C   UNL     1       7.792   5.900  19.138  0.00  0.00    +0.000 A 
ATOM     29  N   UNL     1       6.703   5.127  19.317  0.00  0.00    +0.000 NA
ENDBRANCH   8  24
TORSDOF 5
ENDMDL
MODEL 2
REMARK VINA RESULT:      -8.1      3.024      8.358
REMARK  Name = 
REMARK  8 active torsions:
REMARK  status: ('A' for Active; 'I' for Inactive)
REMARK    1  A    between atoms: C_1  and  O_2
REMARK    2  A    between atoms: O_2  and  C_3
REMARK    3  A    between atoms: C_5  and  N_6
REMARK    4  A    between atoms: C_13  and  C_14
REMARK    5  A    between atoms: C_23  and  O_24
REMARK    6  A    between atoms: O_24  and  C_25
REMARK    7  A    between atoms: C_26  and  O_27
REMARK    8  A    between atoms: O_27  and  C_28
REMARK                            x       y       z     vdW  Elec       q    Type
REMARK                         _______ _______ _______ _____ _____    ______ ____
ROOT
ATOM      1  N   UNL     1       1.455   7.958  21.161  0.00  0.00    +0.000 N 
ATOM      2  C   UNL     1       0.852   9.140  20.953  0.00  0.00    +0.000 A 
ATOM      3  N   UNL     1       0.961  10.120  21.823  0.00  0.00    +0.000 NA
ATOM      4  C   UNL     1       0.221  11.128  21.287  0.00  0.00    +0.000 A 
ATOM      5  C   UNL     1       0.017  12.411  21.806  0.00  0.00    +0.000 A 
ATOM      6  C   UNL     1      -0.774  13.291  21.082  0.00  0.00    +0.000 A 
ATOM      7  C   UNL     1      -1.378  12.868  19.897  0.00  0.00    +0.000 A 
ATOM      8  C   UNL     1      -1.250  11.551  19.356  0.00  0.00    +0.000 A 
ATOM      9  C   UNL     1      -0.382  10.727  20.097  0.00  0.00    +0.000 A 
ATOM     10  O   UNL     1       0.042   9.417  19.876  0.00  0.00    +0.000 OA
ATOM     11  H   UNL     1       1.912   7.958  22.066  0.00  0.00    +0.000 HD
ENDROOT
BRANCH   1  14
ATOM     12  C   UNL     1       1.602   4.444  19.989  0.00  0.00    +0.000 A 
ATOM     13  C   UNL     1       1.358   5.610  20.734  0.00  0.00    +0.000 A 
ATOM     14  C   UNL     1       1.842   6.878  20.361  0.00  0.00    +0.000 A 
ATOM     15  C   UNL     1       2.636   6.946  19.230  0.00  0.00    +0.000 A 
ATOM     16  C   UNL     1       2.928   5.787  18.477  0.00  0.00    +0.000 A 
ATOM     17  C   UNL     1       2.426   4.516  18.854  0.00  0.00    +0.000 A 
BRANCH  12  19
ATOM     18  C   UNL     1       1.613   2.673  21.580  0.00  0.00    +0.000 C 
ATOM     19  O   UNL     1       1.075   3.240  20.384  0.00  0.00    +0.000 OA
ENDBRANCH  12  19
BRANCH  16  20
ATOM     20  O   UNL     1       3.761   6.057  17.412  0.00  0.00    +0.000 OA
ATOM     21  C   UNL     1       5.150   6.187  17.687  0.00  0.00    +0.000 C 
ENDBRANCH  16  20
BRANCH  17  22
ATOM     22  O   UNL     1       2.808   3.469  18.061  0.00  0.00    +0.000 OA
ATOM     23  C   UNL     1       3.900   2.628  18.391  0.00  0.00    +0.000 C 
ENDBRANCH  17  22
ENDBRANCH   1  14
BRANCH   8  24
ATOM     24  C   UNL     1      -2.072  11.153  18.195  0.00  0.00    +0.000 A 
ATOM     25  C   UNL     1      -1.723  10.204  17.242  0.00  0.00    +0.000 A 
ATOM     26  C   UNL     1      -2.659   9.847  16.264  0.00  0.00    +0.000 A 
ATOM     27  C   UNL     1      -3.909  10.443  16.245  0.00  0.00    +0.000 A 
ATOM     28  C   UNL     1      -4.177  11.398  17.199  0.00  0.00    +0.000 A 
ATOM     29  N   UNL     1      -3.295  11.759  18.151  0.00  0.00    +0.000 NA
ENDBRANCH   8  24
TORSDOF 5
ENDMDL
MODEL 3
REMARK VINA RESULT:      -8.1      0.460      2.464
REMARK  Name = 
REMARK  8 active torsions:
REMARK  status: ('A' for Active; 'I' for Inactive)
REMARK    1  A    between atoms: C_1  and  O_2
REMARK    2  A    between atoms: O_2  and  C_3
REMARK    3  A    between atoms: C_5  and  N_6
REMARK    4  A    between atoms: C_13  and  C_14
REMARK    5  A    between atoms: C_23  and  O_24
REMARK    6  A    between atoms: O_24  and  C_25
REMARK    7  A    between atoms: C_26  and  O_27
REMARK    8  A    between atoms: O_27  and  C_28
REMARK                            x       y       z     vdW  Elec       q    Type
REMARK                         _______ _______ _______ _____ _____    ______ ____
ROOT
ATOM      1  N   UNL     1       0.924   6.820  21.268  0.00  0.00    +0.000 N 
ATOM      2  C   UNL     1       1.638   5.882  20.623  0.00  0.00    +0.000 A 
ATOM      3  N   UNL     1       1.260   4.623  20.623  0.00  0.00    +0.000 NA
ATOM      4  C   UNL     1       2.216   3.985  19.896  0.00  0.00    +0.000 A 
ATOM      5  C   UNL     1       2.284   2.626  19.573  0.00  0.00    +0.000 A 
ATOM      6  C   UNL     1       3.353   2.188  18.804  0.00  0.00    +0.000 A 
ATOM      7  C   UNL     1       4.345   3.091  18.419  0.00  0.00    +0.000 A 
ATOM      8  C   UNL     1       4.354   4.475  18.773  0.00  0.00    +0.000 A 
ATOM      9  C   UNL     1       3.211   4.872  19.493  0.00  0.00    +0.000 A 
ATOM     10  O   UNL     1       2.823   6.125  19.969  0.00  0.00    +0.000 OA
ATOM     11  H   UNL     1       0.150   6.389  21.758  0.00  0.00    +0.000 HD
ENDROOT
BRANCH   1  14
ATOM     12  C   UNL     1       1.111  10.202  19.763  0.00  0.00    +0.000 A 
ATOM     13  C   UNL     1       1.228   8.824  20.003  0.00  0.00    +0.000 A 
ATOM     14  C   UNL     1       0.814   8.212  21.203  0.00  0.00    +0.000 A 
ATOM     15  C   UNL     1       0.317   9.039  22.196  0.00  0.00    +0.000 A 
ATOM     16  C   UNL     1       0.218  10.433  21.998  0.00  0.00    +0.000 A 
ATOM     17  C   UNL     1       0.627  11.037  20.782  0.00  0.00    +0.000 A 
BRANCH  12  19
ATOM     18  C   UNL     1       2.132   9.842  17.643  0.00  0.00    +0.000 C 
ATOM     19  O   UNL     1       1.500  10.736  18.560  0.00  0.00    +0.000 OA
ENDBRANCH  12  19
BRANCH  16  20
ATOM     20  O   UNL     1      -0.265  11.082  23.114  0.00  0.00    +0.000 OA
ATOM     21  C   UNL     1      -1.666  11.314  23.180  0.00  0.00    +0.000 C 
ENDBRANCH  16  20
BRANCH  17  22
ATOM     22  O   UNL     1       0.510  12.399  20.728  0.00  0.00    +0.000 OA
ATOM     23  C   UNL     1      -0.562  13.041  20.058  0.00  0.00    +0.000 C 
ENDBRANCH  17  22
ENDBRANCH   1  14
BRANCH   8  24
ATOM     24  C   UNL     1       5.538   5.303  18.466  0.00  0.00    +0.000 A 
ATOM     25  C   UNL     1       5.609   6.288  17.489  0.00  0.00    +0.000 A 
ATOM     26  C   UNL     1       6.764   7.072  17.396  0.00  0.00    +0.000 A 
ATOM     27  C   UNL     1       7.825   6.857  18.260  0.00  0.00    +0.000 A 
ATOM     28  C   UNL     1       7.701   5.843  19.183  0.00  0.00    +0.000 A 
ATOM     29  N   UNL     1       6.600   5.075  19.295  0.00  0.00    +0.000 NA
ENDBRANCH   8  24
TORSDOF 5
ENDMDL
MODEL 4
REMARK VINA RESULT:      -8.0      2.259      4.211
REMARK  Name = 
REMARK  8 active torsions:
REMARK  status: ('A' for Active; 'I' for Inactive)
REMARK    1  A    between atoms: C_1  and  O_2
REMARK    2  A    between atoms: O_2  and  C_3
REMARK    3  A    between atoms: C_5  and  N_6
REMARK    4  A    between atoms: C_13  and  C_14
REMARK    5  A    between atoms: C_23  and  O_24
REMARK    6  A    between atoms: O_24  and  C_25
REMARK    7  A    between atoms: C_26  and  O_27
REMARK    8  A    between atoms: O_27  and  C_28
REMARK                            x       y       z     vdW  Elec       q    Type
REMARK                         _______ _______ _______ _____ _____    ______ ____
ROOT
ATOM      1  N   UNL     1       1.393   9.774  17.850  0.00  0.00    +0.000 N 
ATOM      2  C   UNL     1       2.178   8.684  17.820  0.00  0.00    +0.000 A 
ATOM      3  N   UNL     1       3.210   8.613  17.007  0.00  0.00    +0.000 NA
ATOM      4  C   UNL     1       3.742   7.384  17.246  0.00  0.00    +0.000 A 
ATOM      5  C   UNL     1       4.872   6.809  16.655  0.00  0.00    +0.000 A 
ATOM      6  C   UNL     1       5.245   5.536  17.059  0.00  0.00    +0.000 A 
ATOM      7  C   UNL     1       4.470   4.849  17.995  0.00  0.00    +0.000 A 
ATOM      8  C   UNL     1       3.275   5.368  18.583  0.00  0.00    +0.000 A 
ATOM      9  C   UNL     1       2.987   6.687  18.187  0.00  0.00    +0.000 A 
ATOM     10  O   UNL     1       1.959   7.551  18.568  0.00  0.00    +0.000 OA
ATOM     11  H   UNL     1       1.692  10.434  17.143  0.00  0.00    +0.000 HD
ENDROOT
BRANCH   1  14
ATOM     12  C   UNL     1       0.048  10.788  21.152  0.00  0.00    +0.000 A 
ATOM     13  C   UNL     1       0.819  10.218  20.126  0.00  0.00    +0.000 A 
ATOM     14  C   UNL     1       0.490  10.329  18.761  0.00  0.00    +0.000 A 
ATOM     15  C   UNL     1      -0.683  10.993  18.445  0.00  0.00    +0.000 A 
ATOM     16  C   UNL     1      -1.498  11.549  19.456  0.00  0.00    +0.000 A 
ATOM     17  C   UNL     1      -1.151  11.441  20.826  0.00  0.00    +0.000 A 
BRANCH  12  19
ATOM     18  C   UNL     1      -0.070   9.552  23.183  0.00  0.00    +0.000 C 
ATOM     19  O   UNL     1       0.439  10.675  22.463  0.00  0.00    +0.000 OA
ENDBRANCH  12  19
BRANCH  16  20
ATOM     20  O   UNL     1      -2.634  12.134  18.941  0.00  0.00    +0.000 OA
ATOM     21  C   UNL     1      -3.458  11.334  18.102  0.00  0.00    +0.000 C 
ENDBRANCH  16  20
BRANCH  17  22
ATOM     22  O   UNL     1      -2.040  11.992  21.708  0.00  0.00    +0.000 OA
ATOM     23  C   UNL     1      -1.834  13.266  22.295  0.00  0.00    +0.000 C 
ENDBRANCH  17  22
ENDBRANCH   1  14
BRANCH   8  24
ATOM     24  C   UNL     1       2.434   4.494  19.426  0.00  0.00    +0.000 A 
ATOM     25  C   UNL     1       1.401   3.681  18.974  0.00  0.00    +0.000 A 
ATOM     26  C   UNL     1       0.771   2.817  19.877  0.00  0.00    +0.000 A 
ATOM     27  C   UNL     1       1.168   2.785  21.204  0.00  0.00    +0.000 A 
ATOM     28  C   UNL     1       2.175   3.639  21.591  0.00  0.00    +0.000 A 
ATOM     29  N   UNL     1       2.799   4.479  20.743  0.00  0.00    +0.000 NA
ENDBRANCH   8  24
TORSDOF 5
ENDMDL
MODEL 5
REMARK VINA RESULT:      -8.0      2.254      4.439
REMARK  Name = 
REMARK  8 active torsions:
REMARK  status: ('A' for Active; 'I' for Inactive)
REMARK    1  A    between atoms: C_1  and  O_2
REMARK    2  A    between atoms: O_2  and  C_3
REMARK    3  A    between atoms: C_5  and  N_6
REMARK    4  A    between atoms: C_13  and  C_14
REMARK    5  A    between atoms: C_23  and  O_24
REMARK    6  A    between atoms: O_24  and  C_25
REMARK    7  A    between atoms: C_26  and  O_27
REMARK    8  A    between atoms: O_27  and  C_28
REMARK                            x       y       z     vdW  Elec       q    Type
REMARK                         _______ _______ _______ _____ _____    ______ ____
ROOT
ATOM      1  N   UNL     1       1.531   9.734  17.980  0.00  0.00    +0.000 N 
ATOM      2  C   UNL     1       2.281   8.622  17.904  0.00  0.00    +0.000 A 
ATOM      3  N   UNL     1       3.276   8.531  17.049  0.00  0.00    +0.000 NA
ATOM      4  C   UNL     1       3.780   7.284  17.250  0.00  0.00    +0.000 A 
ATOM      5  C   UNL     1       4.867   6.683  16.607  0.00  0.00    +0.000 A 
ATOM      6  C   UNL     1       5.217   5.394  16.979  0.00  0.00    +0.000 A 
ATOM      7  C   UNL     1       4.459   4.718  17.937  0.00  0.00    +0.000 A 
ATOM      8  C   UNL     1       3.305   5.264  18.579  0.00  0.00    +0.000 A 
ATOM      9  C   UNL     1       3.042   6.597  18.212  0.00  0.00    +0.000 A 
ATOM     10  O   UNL     1       2.057   7.485  18.645  0.00  0.00    +0.000 OA
ATOM     11  H   UNL     1       1.822  10.395  17.269  0.00  0.00    +0.000 HD
ENDROOT
BRANCH   1  14
ATOM     12  C   UNL     1      -1.448  11.511  19.286  0.00  0.00    +0.000 A 
ATOM     13  C   UNL     1      -0.468  10.954  18.448  0.00  0.00    +0.000 A 
ATOM     14  C   UNL     1       0.683  10.304  18.933  0.00  0.00    +0.000 A 
ATOM     15  C   UNL     1       0.858  10.269  20.306  0.00  0.00    +0.000 A 
ATOM     16  C   UNL     1      -0.092  10.849  21.175  0.00  0.00    +0.000 A 
ATOM     17  C   UNL     1      -1.253  11.491  20.676  0.00  0.00    +0.000 A 
BRANCH  12  19
ATOM     18  C   UNL     1      -3.281  11.347  17.775  0.00  0.00    +0.000 C 
ATOM     19  O   UNL     1      -2.567  12.103  18.754  0.00  0.00    +0.000 OA
ENDBRANCH  12  19
BRANCH  16  20
ATOM     20  O   UNL     1       0.282  10.741  22.497  0.00  0.00    +0.000 OA
ATOM     21  C   UNL     1      -0.132   9.577  23.200  0.00  0.00    +0.000 C 
ENDBRANCH  16  20
BRANCH  17  22
ATOM     22  O   UNL     1      -2.078  12.041  21.618  0.00  0.00    +0.000 OA
ATOM     23  C   UNL     1      -2.011  13.410  21.978  0.00  0.00    +0.000 C 
ENDBRANCH  17  22
ENDBRANCH   1  14
BRANCH   8  24
ATOM     24  C   UNL     1       2.472   4.403  19.444  0.00  0.00    +0.000 A 
ATOM     25  C   UNL     1       1.463   3.552  19.010  0.00  0.00    +0.000 A 
ATOM     26  C   UNL     1       0.839   2.709  19.937  0.00  0.00    +0.000 A 
ATOM     27  C   UNL     1       1.219   2.735  21.269  0.00  0.00    +0.000 A 
ATOM     28  C   UNL     1       2.203   3.624  21.636  0.00  0.00    +0.000 A 
ATOM     29  N   UNL     1       2.820   4.446  20.764  0.00  0.00    +0.000 NA
ENDBRANCH   8  24
TORSDOF 5
ENDMDL
MODEL 6
REMARK VINA RESULT:      -7.9      3.006      8.591
REMARK  Name = 
REMARK  8 active torsions:
REMARK  status: ('A' for Active; 'I' for Inactive)
REMARK    1  A    between atoms: C_1  and  O_2
REMARK    2  A    between atoms: O_2  and  C_3
REMARK    3  A    between atoms: C_5  and  N_6
REMARK    4  A    between atoms: C_13  and  C_14
REMARK    5  A    between atoms: C_23  and  O_24
REMARK    6  A    between atoms: O_24  and  C_25
REMARK    7  A    between atoms: C_26  and  O_27
REMARK    8  A    between atoms: O_27  and  C_28
REMARK                            x       y       z     vdW  Elec       q    Type
REMARK                         _______ _______ _______ _____ _____    ______ ____
ROOT
ATOM      1  N   UNL     1       1.470   8.031  21.183  0.00  0.00    +0.000 N 
ATOM      2  C   UNL     1       0.930   9.231  20.910  0.00  0.00    +0.000 A 
ATOM      3  N   UNL     1       1.148  10.267  21.691  0.00  0.00    +0.000 NA
ATOM      4  C   UNL     1       0.443  11.277  21.113  0.00  0.00    +0.000 A 
ATOM      5  C   UNL     1       0.346  12.607  21.535  0.00  0.00    +0.000 A 
ATOM      6  C   UNL     1      -0.427  13.478  20.783  0.00  0.00    +0.000 A 
ATOM      7  C   UNL     1      -1.120  13.004  19.668  0.00  0.00    +0.000 A 
ATOM      8  C   UNL     1      -1.103  11.644  19.230  0.00  0.00    +0.000 A 
ATOM      9  C   UNL     1      -0.248  10.825  19.991  0.00  0.00    +0.000 A 
ATOM     10  O   UNL     1       0.082   9.476  19.856  0.00  0.00    +0.000 OA
ATOM     11  H   UNL     1       1.974   8.072  22.061  0.00  0.00    +0.000 HD
ENDROOT
BRANCH   1  14
ATOM     12  C   UNL     1       2.966   5.937  18.516  0.00  0.00    +0.000 A 
ATOM     13  C   UNL     1       2.547   7.019  19.307  0.00  0.00    +0.000 A 
ATOM     14  C   UNL     1       1.746   6.870  20.455  0.00  0.00    +0.000 A 
ATOM     15  C   UNL     1       1.322   5.591  20.769  0.00  0.00    +0.000 A 
ATOM     16  C   UNL     1       1.698   4.485  19.975  0.00  0.00    +0.000 A 
ATOM     17  C   UNL     1       2.515   4.645  18.827  0.00  0.00    +0.000 A 
BRANCH  12  19
ATOM     18  C   UNL     1       5.181   6.170  17.676  0.00  0.00    +0.000 C 
ATOM     19  O   UNL     1       3.775   6.141  17.426  0.00  0.00    +0.000 OA
ENDBRANCH  12  19
BRANCH  16  20
ATOM     20  O   UNL     1       1.146   3.308  20.432  0.00  0.00    +0.000 OA
ATOM     21  C   UNL     1       1.717   2.729  21.599  0.00  0.00    +0.000 C 
ENDBRANCH  16  20
BRANCH  17  22
ATOM     22  O   UNL     1       2.781   3.502  18.126  0.00  0.00    +0.000 OA
ATOM     23  C   UNL     1       3.906   2.686  18.405  0.00  0.00    +0.000 C 
ENDBRANCH  17  22
ENDBRANCH   1  14
BRANCH   8  24
ATOM     24  C   UNL     1      -2.009  11.212  18.147  0.00  0.00    +0.000 A 
ATOM     25  C   UNL     1      -1.717  10.265  17.173  0.00  0.00    +0.000 A 
ATOM     26  C   UNL     1      -2.722   9.872  16.282  0.00  0.00    +0.000 A 
ATOM     27  C   UNL     1      -3.987  10.432  16.367  0.00  0.00    +0.000 A 
ATOM     28  C   UNL     1      -4.199  11.387  17.335  0.00  0.00    +0.000 A 
ATOM     29  N   UNL     1      -3.250  11.782  18.205  0.00  0.00    +0.000 NA
ENDBRANCH   8  24
TORSDOF 5
ENDMDL
MODEL 7
REMARK VINA RESULT:      -7.9      0.574      2.590
REMARK  Name = 
REMARK  8 active torsions:
REMARK  status: ('A' for Active; 'I' for Inactive)
REMARK    1  A    between atoms: C_1  and  O_2
REMARK    2  A    between atoms: O_2  and  C_3
REMARK    3  A    between atoms: C_5  and  N_6
REMARK    4  A    between atoms: C_13  and  C_14
REMARK    5  A    between atoms: C_23  and  O_24
REMARK    6  A    between atoms: O_24  and  C_25
REMARK    7  A    between atoms: C_26  and  O_27
REMARK    8  A    between atoms: O_27  and  C_28
REMARK                            x       y       z     vdW  Elec       q    Type
REMARK                         _______ _______ _______ _____ _____    ______ ____
ROOT
ATOM      1  N   UNL     1       0.857   6.953  21.302  0.00  0.00    +0.000 N 
ATOM      2  C   UNL     1       1.606   6.029  20.677  0.00  0.00    +0.000 A 
ATOM      3  N   UNL     1       1.256   4.761  20.673  0.00  0.00    +0.000 NA
ATOM      4  C   UNL     1       2.243   4.143  19.970  0.00  0.00    +0.000 A 
ATOM      5  C   UNL     1       2.350   2.785  19.653  0.00  0.00    +0.000 A 
ATOM      6  C   UNL     1       3.445   2.369  18.911  0.00  0.00    +0.000 A 
ATOM      7  C   UNL     1       4.426   3.293  18.545  0.00  0.00    +0.000 A 
ATOM      8  C   UNL     1       4.395   4.678  18.894  0.00  0.00    +0.000 A 
ATOM      9  C   UNL     1       3.227   5.052  19.586  0.00  0.00    +0.000 A 
ATOM     10  O   UNL     1       2.800   6.296  20.049  0.00  0.00    +0.000 OA
ATOM     11  H   UNL     1       0.081   6.505  21.775  0.00  0.00    +0.000 HD
ENDROOT
BRANCH   1  14
ATOM     12  C   UNL     1       0.963  10.328  19.775  0.00  0.00    +0.000 A 
ATOM     13  C   UNL     1       1.111   8.954  20.023  0.00  0.00    +0.000 A 
ATOM     14  C   UNL     1       0.716   8.342  21.229  0.00  0.00    +0.000 A 
ATOM     15  C   UNL     1       0.208   9.163  22.219  0.00  0.00    +0.000 A 
ATOM     16  C   UNL     1       0.077  10.554  22.013  0.00  0.00    +0.000 A 
ATOM     17  C   UNL     1       0.467  11.159  20.792  0.00  0.00    +0.000 A 
BRANCH  12  19
ATOM     18  C   UNL     1       2.117  10.025  17.715  0.00  0.00    +0.000 C 
ATOM     19  O   UNL     1       1.335  10.863  18.567  0.00  0.00    +0.000 OA
ENDBRANCH  12  19
BRANCH  16  20
ATOM     20  O   UNL     1      -0.413  11.199  23.129  0.00  0.00    +0.000 OA
ATOM     21  C   UNL     1      -1.811  11.457  23.172  0.00  0.00    +0.000 C 
ENDBRANCH  16  20
BRANCH  17  22
ATOM     22  O   UNL     1       0.321  12.518  20.731  0.00  0.00    +0.000 OA
ATOM     23  C   UNL     1       1.402  13.407  20.949  0.00  0.00    +0.000 C 
ENDBRANCH  17  22
ENDBRANCH   1  14
BRANCH   8  24
ATOM     24  C   UNL     1       5.566   5.531  18.611  0.00  0.00    +0.000 A 
ATOM     25  C   UNL     1       6.794   5.466  19.259  0.00  0.00    +0.000 A 
ATOM     26  C   UNL     1       7.849   6.262  18.799  0.00  0.00    +0.000 A 
ATOM     27  C   UNL     1       7.665   7.109  17.719  0.00  0.00    +0.000 A 
ATOM     28  C   UNL     1       6.415   7.147  17.143  0.00  0.00    +0.000 A 
ATOM     29  N   UNL     1       5.383   6.392  17.566  0.00  0.00    +0.000 NA
ENDBRANCH   8  24
TORSDOF 5
ENDMDL
MODEL 8
REMARK VINA RESULT:      -7.8      0.753      1.050
REMARK  Name = 
REMARK  8 active torsions:
REMARK  status: ('A' for Active; 'I' for Inactive)
REMARK    1  A    between atoms: C_1  and  O_2
REMARK    2  A    between atoms: O_2  and  C_3
REMARK    3  A    between atoms: C_5  and  N_6
REMARK    4  A    between atoms: C_13  and  C_14
REMARK    5  A    between atoms: C_23  and  O_24
REMARK    6  A    between atoms: O_24  and  C_25
REMARK    7  A    between atoms: C_26  and  O_27
REMARK    8  A    between atoms: O_27  and  C_28
REMARK                            x       y       z     vdW  Elec       q    Type
REMARK                         _______ _______ _______ _____ _____    ______ ____
ROOT
ATOM      1  N   UNL     1       0.861   7.133  21.190  0.00  0.00    +0.000 N 
ATOM      2  C   UNL     1       1.636   6.173  20.657  0.00  0.00    +0.000 A 
ATOM      3  N   UNL     1       1.314   4.903  20.767  0.00  0.00    +0.000 NA
ATOM      4  C   UNL     1       2.321   4.245  20.129  0.00  0.00    +0.000 A 
ATOM      5  C   UNL     1       2.460   2.866  19.939  0.00  0.00    +0.000 A 
ATOM      6  C   UNL     1       3.570   2.410  19.246  0.00  0.00    +0.000 A 
ATOM      7  C   UNL     1       4.533   3.318  18.803  0.00  0.00    +0.000 A 
ATOM      8  C   UNL     1       4.469   4.728  19.023  0.00  0.00    +0.000 A 
ATOM      9  C   UNL     1       3.288   5.137  19.671  0.00  0.00    +0.000 A 
ATOM     10  O   UNL     1       2.829   6.409  20.015  0.00  0.00    +0.000 OA
ATOM     11  H   UNL     1       0.091   6.713  21.697  0.00  0.00    +0.000 HD
ENDROOT
BRANCH   1  14
ATOM     12  C   UNL     1       0.020  10.640  22.044  0.00  0.00    +0.000 A 
ATOM     13  C   UNL     1       0.179   9.245  22.072  0.00  0.00    +0.000 A 
ATOM     14  C   UNL     1       0.691   8.506  20.988  0.00  0.00    +0.000 A 
ATOM     15  C   UNL     1       0.997   9.205  19.834  0.00  0.00    +0.000 A 
ATOM     16  C   UNL     1       0.817  10.604  19.762  0.00  0.00    +0.000 A 
ATOM     17  C   UNL     1       0.312  11.340  20.863  0.00  0.00    +0.000 A 
BRANCH  12  19
ATOM     18  C   UNL     1      -1.871  11.455  23.241  0.00  0.00    +0.000 C 
ATOM     19  O   UNL     1      -0.453  11.310  23.145  0.00  0.00    +0.000 OA
ENDBRANCH  12  19
BRANCH  16  20
ATOM     20  O   UNL     1       1.144  11.105  18.521  0.00  0.00    +0.000 OA
ATOM     21  C   UNL     1       2.337  10.622  17.915  0.00  0.00    +0.000 C 
ENDBRANCH  16  20
BRANCH  17  22
ATOM     22  O   UNL     1       0.154  12.683  20.656  0.00  0.00    +0.000 OA
ATOM     23  C   UNL     1      -1.045  13.233  20.137  0.00  0.00    +0.000 C 
ENDBRANCH  17  22
ENDBRANCH   1  14
BRANCH   8  24
ATOM     24  C   UNL     1       5.624   5.579  18.671  0.00  0.00    +0.000 A 
ATOM     25  C   UNL     1       6.876   5.538  19.273  0.00  0.00    +0.000 A 
ATOM     26  C   UNL     1       7.908   6.324  18.750  0.00  0.00    +0.000 A 
ATOM     27  C   UNL     1       7.677   7.139  17.654  0.00  0.00    +0.000 A 
ATOM     28  C   UNL     1       6.406   7.156  17.126  0.00  0.00    +0.000 A 
ATOM     29  N   UNL     1       5.395   6.409  17.610  0.00  0.00    +0.000 NA
ENDBRANCH   8  24
TORSDOF 5
ENDMDL
MODEL 9
REMARK VINA RESULT:      -7.7      1.602      1.696
REMARK  Name = 
REMARK  8 active torsions:
REMARK  status: ('A' for Active; 'I' for Inactive)
REMARK    1  A    between atoms: C_1  and  O_2
REMARK    2  A    between atoms: O_2  and  C_3
REMARK    3  A    between atoms: C_5  and  N_6
REMARK    4  A    between atoms: C_13  and  C_14
REMARK    5  A    between atoms: C_23  and  O_24
REMARK    6  A    between atoms: O_24  and  C_25
REMARK    7  A    between atoms: C_26  and  O_27
REMARK    8  A    between atoms: O_27  and  C_28
REMARK                            x       y       z     vdW  Elec       q    Type
REMARK                         _______ _______ _______ _____ _____    ______ ____
ROOT
ATOM      1  N   UNL     1       1.415   6.857  21.224  0.00  0.00    +0.000 N 
ATOM      2  C   UNL     1       1.830   5.778  20.537  0.00  0.00    +0.000 A 
ATOM      3  N   UNL     1       1.620   4.562  20.993  0.00  0.00    +0.000 NA
ATOM      4  C   UNL     1       2.179   3.751  20.055  0.00  0.00    +0.000 A 
ATOM      5  C   UNL     1       2.219   2.353  20.043  0.00  0.00    +0.000 A 
ATOM      6  C   UNL     1       2.838   1.725  18.973  0.00  0.00    +0.000 A 
ATOM      7  C   UNL     1       3.439   2.490  17.972  0.00  0.00    +0.000 A 
ATOM      8  C   UNL     1       3.478   3.919  17.968  0.00  0.00    +0.000 A 
ATOM      9  C   UNL     1       2.776   4.498  19.041  0.00  0.00    +0.000 A 
ATOM     10  O   UNL     1       2.537   5.835  19.360  0.00  0.00    +0.000 OA
ATOM     11  H   UNL     1       1.008   6.569  22.106  0.00  0.00    +0.000 HD
ENDROOT
BRANCH   1  14
ATOM     12  C   UNL     1       0.403  10.371  21.826  0.00  0.00    +0.000 A 
ATOM     13  C   UNL     1       0.648   8.995  21.962  0.00  0.00    +0.000 A 
ATOM     14  C   UNL     1       1.152   8.195  20.918  0.00  0.00    +0.000 A 
ATOM     15  C   UNL     1       1.359   8.808  19.695  0.00  0.00    +0.000 A 
ATOM     16  C   UNL     1       1.091  10.183  19.516  0.00  0.00    +0.000 A 
ATOM     17  C   UNL     1       0.595  10.982  20.577  0.00  0.00    +0.000 A 
BRANCH  12  19
ATOM     18  C   UNL     1      -1.466  11.075  23.123  0.00  0.00    +0.000 C 
ATOM     19  O   UNL     1      -0.057  11.106  22.891  0.00  0.00    +0.000 OA
ENDBRANCH  12  19
BRANCH  16  20
ATOM     20  O   UNL     1       1.327  10.593  18.222  0.00  0.00    +0.000 OA
ATOM     21  C   UNL     1       2.400  11.502  18.010  0.00  0.00    +0.000 C 
ENDBRANCH  16  20
BRANCH  17  22
ATOM     22  O   UNL     1       0.345  12.290  20.267  0.00  0.00    +0.000 OA
ATOM     23  C   UNL     1      -0.918  12.730  19.798  0.00  0.00    +0.000 C 
ENDBRANCH  17  22
ENDBRANCH   1  14
BRANCH   8  24
ATOM     24  C   UNL     1       4.292   4.626  16.958  0.00  0.00    +0.000 A 
ATOM     25  C   UNL     1       4.454   6.003  16.867  0.00  0.00    +0.000 A 
ATOM     26  C   UNL     1       5.354   6.521  15.928  0.00  0.00    +0.000 A 
ATOM     27  C   UNL     1       6.062   5.669  15.096  0.00  0.00    +0.000 A 
ATOM     28  C   UNL     1       5.829   4.318  15.218  0.00  0.00    +0.000 A 
ATOM     29  N   UNL     1       4.970   3.793  16.114  0.00  0.00    +0.000 NA
ENDBRANCH   8  24
TORSDOF 5
ENDMDL
