MODEL 1
REMARK VINA RESULT:      -6.6      0.000      0.000
REMARK  Name = 
REMARK  4 active torsions:
REMARK  status: ('A' for Active; 'I' for Inactive)
REMARK    1  A    between atoms: C_1  and  N_2
REMARK    2  A    between atoms: C_6  and  S_7
REMARK    3  A    between atoms: S_7  and  C_8
REMARK    4  A    between atoms: C_8  and  C_9
REMARK                            x       y       z     vdW  Elec       q    Type
REMARK                         _______ _______ _______ _____ _____    ______ ____
ROOT
ATOM      1  C   UNL     1       4.948   5.386  16.152  0.00  0.00    +0.000 C 
ENDROOT
BRANCH   1   2
ATOM      2  C   UNL     1       3.921   5.052  17.215  0.00  0.00    +0.000 A 
ATOM      3  C   UNL     1       3.558   3.719  17.470  0.00  0.00    +0.000 A 
ATOM      4  C   UNL     1       2.612   3.411  18.453  0.00  0.00    +0.000 A 
ATOM      5  C   UNL     1       2.033   4.433  19.202  0.00  0.00    +0.000 A 
ATOM      6 CL   UNL     1       0.865   4.054  20.407  0.00  0.00    +0.000 Cl
ATOM      7  C   UNL     1       2.395   5.758  18.978  0.00  0.00    +0.000 A 
ATOM      8  C   UNL     1       3.335   6.067  17.990  0.00  0.00    +0.000 A 
ENDBRANCH   1   2
BRANCH   1   9
ATOM      9  S   UNL     1       5.874   3.917  15.594  0.00  0.00    +0.000 S 
BRANCH   9  15
ATOM     10  C   UNL     1       5.969   3.309  12.372  0.00  0.00    +0.000 C 
ATOM     11  N   UNL     1       6.801   4.269  13.043  0.00  0.00    +0.000 N 
ATOM     12  N   UNL     1       7.703   4.989  12.351  0.00  0.00    +0.000 NA
ATOM     13  N   UNL     1       8.299   5.757  13.252  0.00  0.00    +0.000 NA
ATOM     14  N   UNL     1       7.788   5.532  14.511  0.00  0.00    +0.000 NA
ATOM     15  C   UNL     1       6.865   4.611  14.364  0.00  0.00    +0.000 A 
ENDBRANCH   9  15
ENDBRANCH   1   9
TORSDOF 3
ENDMDL
MODEL 2
REMARK VINA RESULT:      -6.5      0.166      1.252
REMARK  Name = 
REMARK  4 active torsions:
REMARK  status: ('A' for Active; 'I' for Inactive)
REMARK    1  A    between atoms: C_1  and  N_2
REMARK    2  A    between atoms: C_6  and  S_7
REMARK    3  A    between atoms: S_7  and  C_8
REMARK    4  A    between atoms: C_8  and  C_9
REMARK                            x       y       z     vdW  Elec       q    Type
REMARK                         _______ _______ _______ _____ _____    ______ ____
ROOT
ATOM      1  C   UNL     1       4.996   5.308  16.227  0.00  0.00    +0.000 C 
ENDROOT
BRANCH   1   2
ATOM      2  C   UNL     1       3.925   4.946  17.236  0.00  0.00    +0.000 A 
ATOM      3  C   UNL     1       3.161   5.943  17.864  0.00  0.00    +0.000 A 
ATOM      4  C   UNL     1       2.171   5.609  18.792  0.00  0.00    +0.000 A 
ATOM      5  C   UNL     1       1.925   4.270  19.091  0.00  0.00    +0.000 A 
ATOM      6 CL   UNL     1       0.711   3.859  20.238  0.00  0.00    +0.000 Cl
ATOM      7  C   UNL     1       2.658   3.266  18.464  0.00  0.00    +0.000 A 
ATOM      8  C   UNL     1       3.653   3.601  17.541  0.00  0.00    +0.000 A 
ENDBRANCH   1   2
BRANCH   1   9
ATOM      9  S   UNL     1       5.853   3.840  15.566  0.00  0.00    +0.000 S 
BRANCH   9  15
ATOM     10  C   UNL     1       5.930   3.297  12.332  0.00  0.00    +0.000 C 
ATOM     11  N   UNL     1       6.761   4.247  13.017  0.00  0.00    +0.000 N 
ATOM     12  N   UNL     1       7.654   4.985  12.333  0.00  0.00    +0.000 NA
ATOM     13  N   UNL     1       8.253   5.738  13.245  0.00  0.00    +0.000 NA
ATOM     14  N   UNL     1       7.751   5.486  14.503  0.00  0.00    +0.000 NA
ATOM     15  C   UNL     1       6.832   4.563  14.344  0.00  0.00    +0.000 A 
ENDBRANCH   9  15
ENDBRANCH   1   9
TORSDOF 3
ENDMDL
MODEL 3
REMARK VINA RESULT:      -6.5      5.614      7.054
REMARK  Name = 
REMARK  4 active torsions:
REMARK  status: ('A' for Active; 'I' for Inactive)
REMARK    1  A    between atoms: C_1  and  N_2
REMARK    2  A    between atoms: C_6  and  S_7
REMARK    3  A    between atoms: S_7  and  C_8
REMARK    4  A    between atoms: C_8  and  C_9
REMARK                            x       y       z     vdW  Elec       q    Type
REMARK                         _______ _______ _______ _____ _____    ______ ____
ROOT
ATOM      1  C   UNL     1       3.091   5.166  18.348  0.00  0.00    +0.000 C 
ENDROOT
BRANCH   1   2
ATOM      2  C   UNL     1       4.112   5.126  17.229  0.00  0.00    +0.000 A 
ATOM      3  C   UNL     1       4.618   6.313  16.674  0.00  0.00    +0.000 A 
ATOM      4  C   UNL     1       5.562   6.275  15.643  0.00  0.00    +0.000 A 
ATOM      5  C   UNL     1       6.020   5.049  15.168  0.00  0.00    +0.000 A 
ATOM      6 CL   UNL     1       7.177   5.003  13.895  0.00  0.00    +0.000 Cl
ATOM      7  C   UNL     1       5.546   3.861  15.720  0.00  0.00    +0.000 A 
ATOM      8  C   UNL     1       4.596   3.899  16.745  0.00  0.00    +0.000 A 
ENDBRANCH   1   2
BRANCH   1   9
ATOM      9  S   UNL     1       1.978   3.722  18.326  0.00  0.00    +0.000 S 
BRANCH   9  15
ATOM     10  C   UNL     1       4.371   2.264  20.030  0.00  0.00    +0.000 C 
ATOM     11  N   UNL     1       3.101   2.650  20.580  0.00  0.00    +0.000 N 
ATOM     12  N   UNL     1       2.820   2.413  21.874  0.00  0.00    +0.000 NA
ATOM     13  N   UNL     1       1.589   2.872  22.051  0.00  0.00    +0.000 NA
ATOM     14  N   UNL     1       1.083   3.397  20.883  0.00  0.00    +0.000 NA
ATOM     15  C   UNL     1       2.029   3.251  19.985  0.00  0.00    +0.000 A 
ENDBRANCH   9  15
ENDBRANCH   1   9
TORSDOF 3
ENDMDL
MODEL 4
REMARK VINA RESULT:      -6.3      2.997      3.718
REMARK  Name = 
REMARK  4 active torsions:
REMARK  status: ('A' for Active; 'I' for Inactive)
REMARK    1  A    between atoms: C_1  and  N_2
REMARK    2  A    between atoms: C_6  and  S_7
REMARK    3  A    between atoms: S_7  and  C_8
REMARK    4  A    between atoms: C_8  and  C_9
REMARK                            x       y       z     vdW  Elec       q    Type
REMARK                         _______ _______ _______ _____ _____    ______ ____
ROOT
ATOM      1  C   UNL     1       5.066   3.981  16.203  0.00  0.00    +0.000 C 
ENDROOT
BRANCH   1   2
ATOM      2  C   UNL     1       3.966   3.832  17.235  0.00  0.00    +0.000 A 
ATOM      3  C   UNL     1       3.728   2.597  17.861  0.00  0.00    +0.000 A 
ATOM      4  C   UNL     1       2.716   2.461  18.816  0.00  0.00    +0.000 A 
ATOM      5  C   UNL     1       1.941   3.565  19.165  0.00  0.00    +0.000 A 
ATOM      6 CL   UNL     1       0.690   3.396  20.335  0.00  0.00    +0.000 Cl
ATOM      7  C   UNL     1       2.174   4.803  18.571  0.00  0.00    +0.000 A 
ATOM      8  C   UNL     1       3.182   4.936  17.611  0.00  0.00    +0.000 A 
ENDBRANCH   1   2
BRANCH   1   9
ATOM      9  S   UNL     1       5.760   5.667  16.165  0.00  0.00    +0.000 S 
BRANCH   9  15
ATOM     10  C   UNL     1       7.602   8.030  17.499  0.00  0.00    +0.000 C 
ATOM     11  N   UNL     1       7.506   6.690  18.008  0.00  0.00    +0.000 N 
ATOM     12  N   UNL     1       8.205   6.325  19.098  0.00  0.00    +0.000 NA
ATOM     13  N   UNL     1       7.905   5.048  19.290  0.00  0.00    +0.000 NA
ATOM     14  N   UNL     1       7.024   4.596  18.333  0.00  0.00    +0.000 NA
ATOM     15  C   UNL     1       6.789   5.622  17.549  0.00  0.00    +0.000 A 
ENDBRANCH   9  15
ENDBRANCH   1   9
TORSDOF 3
ENDMDL
MODEL 5
REMARK VINA RESULT:      -6.3      2.867      3.859
REMARK  Name = 
REMARK  4 active torsions:
REMARK  status: ('A' for Active; 'I' for Inactive)
REMARK    1  A    between atoms: C_1  and  N_2
REMARK    2  A    between atoms: C_6  and  S_7
REMARK    3  A    between atoms: S_7  and  C_8
REMARK    4  A    between atoms: C_8  and  C_9
REMARK                            x       y       z     vdW  Elec       q    Type
REMARK                         _______ _______ _______ _____ _____    ______ ____
ROOT
ATOM      1  C   UNL     1       3.433   4.624  18.911  0.00  0.00    +0.000 C 
ENDROOT
BRANCH   1   2
ATOM      2  C   UNL     1       2.863   6.026  18.987  0.00  0.00    +0.000 A 
ATOM      3  C   UNL     1       2.925   6.889  17.881  0.00  0.00    +0.000 A 
ATOM      4  C   UNL     1       2.396   8.181  17.951  0.00  0.00    +0.000 A 
ATOM      5  C   UNL     1       1.784   8.616  19.125  0.00  0.00    +0.000 A 
ATOM      6 CL   UNL     1       1.138  10.209  19.213  0.00  0.00    +0.000 Cl
ATOM      7  C   UNL     1       1.693   7.768  20.225  0.00  0.00    +0.000 A 
ATOM      8  C   UNL     1       2.230   6.479  20.157  0.00  0.00    +0.000 A 
ENDBRANCH   1   2
BRANCH   1   9
ATOM      9  S   UNL     1       4.029   4.206  17.238  0.00  0.00    +0.000 S 
BRANCH   9  15
ATOM     10  C   UNL     1       6.450   4.188  15.025  0.00  0.00    +0.000 C 
ATOM     11  N   UNL     1       6.644   4.328  16.441  0.00  0.00    +0.000 N 
ATOM     12  N   UNL     1       7.884   4.455  16.948  0.00  0.00    +0.000 NA
ATOM     13  N   UNL     1       7.715   4.550  18.260  0.00  0.00    +0.000 NA
ATOM     14  N   UNL     1       6.380   4.483  18.593  0.00  0.00    +0.000 NA
ATOM     15  C   UNL     1       5.733   4.345  17.460  0.00  0.00    +0.000 A 
ENDBRANCH   9  15
ENDBRANCH   1   9
TORSDOF 3
ENDMDL
MODEL 6
REMARK VINA RESULT:      -6.3      3.262      3.854
REMARK  Name = 
REMARK  4 active torsions:
REMARK  status: ('A' for Active; 'I' for Inactive)
REMARK    1  A    between atoms: C_1  and  N_2
REMARK    2  A    between atoms: C_6  and  S_7
REMARK    3  A    between atoms: S_7  and  C_8
REMARK    4  A    between atoms: C_8  and  C_9
REMARK                            x       y       z     vdW  Elec       q    Type
REMARK                         _______ _______ _______ _____ _____    ______ ____
ROOT
ATOM      1  C   UNL     1       4.555   6.269  16.815  0.00  0.00    +0.000 C 
ENDROOT
BRANCH   1   2
ATOM      2  C   UNL     1       3.595   5.216  17.330  0.00  0.00    +0.000 A 
ATOM      3  C   UNL     1       3.781   3.859  17.020  0.00  0.00    +0.000 A 
ATOM      4  C   UNL     1       2.897   2.887  17.498  0.00  0.00    +0.000 A 
ATOM      5  C   UNL     1       1.825   3.263  18.305  0.00  0.00    +0.000 A 
ATOM      6 CL   UNL     1       0.733   2.068  18.889  0.00  0.00    +0.000 Cl
ATOM      7  C   UNL     1       1.635   4.601  18.641  0.00  0.00    +0.000 A 
ATOM      8  C   UNL     1       2.516   5.573  18.156  0.00  0.00    +0.000 A 
ENDBRANCH   1   2
BRANCH   1   9
ATOM      9  S   UNL     1       6.128   5.551  16.234  0.00  0.00    +0.000 S 
BRANCH   9  15
ATOM     10  C   UNL     1       7.735   8.071  17.584  0.00  0.00    +0.000 C 
ATOM     11  N   UNL     1       7.686   6.747  18.139  0.00  0.00    +0.000 N 
ATOM     12  N   UNL     1       8.333   6.466  19.285  0.00  0.00    +0.000 NA
ATOM     13  N   UNL     1       8.099   5.181  19.509  0.00  0.00    +0.000 NA
ATOM     14  N   UNL     1       7.310   4.640  18.517  0.00  0.00    +0.000 NA
ATOM     15  C   UNL     1       7.066   5.620  17.679  0.00  0.00    +0.000 A 
ENDBRANCH   9  15
ENDBRANCH   1   9
TORSDOF 3
ENDMDL
MODEL 7
REMARK VINA RESULT:      -6.2      2.398      3.131
REMARK  Name = 
REMARK  4 active torsions:
REMARK  status: ('A' for Active; 'I' for Inactive)
REMARK    1  A    between atoms: C_1  and  N_2
REMARK    2  A    between atoms: C_6  and  S_7
REMARK    3  A    between atoms: S_7  and  C_8
REMARK    4  A    between atoms: C_8  and  C_9
REMARK                            x       y       z     vdW  Elec       q    Type
REMARK                         _______ _______ _______ _____ _____    ______ ____
ROOT
ATOM      1  C   UNL     1       3.568   4.224  16.946  0.00  0.00    +0.000 C 
ENDROOT
BRANCH   1   2
ATOM      2  C   UNL     1       2.947   3.773  18.252  0.00  0.00    +0.000 A 
ATOM      3  C   UNL     1       2.201   2.585  18.323  0.00  0.00    +0.000 A 
ATOM      4  C   UNL     1       1.631   2.168  19.530  0.00  0.00    +0.000 A 
ATOM      5  C   UNL     1       1.815   2.929  20.682  0.00  0.00    +0.000 A 
ATOM      6 CL   UNL     1       1.107   2.420  22.165  0.00  0.00    +0.000 Cl
ATOM      7  C   UNL     1       2.568   4.099  20.637  0.00  0.00    +0.000 A 
ATOM      8  C   UNL     1       3.131   4.520  19.428  0.00  0.00    +0.000 A 
ENDBRANCH   1   2
BRANCH   1   9
ATOM      9  S   UNL     1       4.518   5.770  17.124  0.00  0.00    +0.000 S 
BRANCH   9  15
ATOM     10  C   UNL     1       6.859   4.690  15.096  0.00  0.00    +0.000 C 
ATOM     11  N   UNL     1       6.978   4.729  16.527  0.00  0.00    +0.000 N 
ATOM     12  N   UNL     1       8.102   4.297  17.128  0.00  0.00    +0.000 NA
ATOM     13  N   UNL     1       7.884   4.456  18.426  0.00  0.00    +0.000 NA
ATOM     14  N   UNL     1       6.633   4.983  18.658  0.00  0.00    +0.000 NA
ATOM     15  C   UNL     1       6.087   5.144  17.476  0.00  0.00    +0.000 A 
ENDBRANCH   9  15
ENDBRANCH   1   9
TORSDOF 3
ENDMDL
MODEL 8
REMARK VINA RESULT:      -6.2      2.684      3.754
REMARK  Name = 
REMARK  4 active torsions:
REMARK  status: ('A' for Active; 'I' for Inactive)
REMARK    1  A    between atoms: C_1  and  N_2
REMARK    2  A    between atoms: C_6  and  S_7
REMARK    3  A    between atoms: S_7  and  C_8
REMARK    4  A    between atoms: C_8  and  C_9
REMARK                            x       y       z     vdW  Elec       q    Type
REMARK                         _______ _______ _______ _____ _____    ______ ____
ROOT
ATOM      1  C   UNL     1       4.602   4.954  16.881  0.00  0.00    +0.000 C 
ENDROOT
BRANCH   1   2
ATOM      2  C   UNL     1       3.779   4.391  18.022  0.00  0.00    +0.000 A 
ATOM      3  C   UNL     1       2.440   4.775  18.201  0.00  0.00    +0.000 A 
ATOM      4  C   UNL     1       1.680   4.253  19.252  0.00  0.00    +0.000 A 
ATOM      5  C   UNL     1       2.249   3.329  20.126  0.00  0.00    +0.000 A 
ATOM      6 CL   UNL     1       1.315   2.692  21.423  0.00  0.00    +0.000 Cl
ATOM      7  C   UNL     1       3.568   2.920  19.953  0.00  0.00    +0.000 A 
ATOM      8  C   UNL     1       4.331   3.449  18.906  0.00  0.00    +0.000 A 
ENDBRANCH   1   2
BRANCH   1   9
ATOM      9  S   UNL     1       6.348   4.431  16.960  0.00  0.00    +0.000 S 
BRANCH   9  15
ATOM     10  C   UNL     1       7.665   5.540  19.752  0.00  0.00    +0.000 C 
ATOM     11  N   UNL     1       7.636   6.276  18.519  0.00  0.00    +0.000 N 
ATOM     12  N   UNL     1       8.163   7.512  18.453  0.00  0.00    +0.000 NA
ATOM     13  N   UNL     1       7.965   7.907  17.202  0.00  0.00    +0.000 NA
ATOM     14  N   UNL     1       7.315   6.935  16.473  0.00  0.00    +0.000 NA
ATOM     15  C   UNL     1       7.119   5.937  17.301  0.00  0.00    +0.000 A 
ENDBRANCH   9  15
ENDBRANCH   1   9
TORSDOF 3
ENDMDL
MODEL 9
REMARK VINA RESULT:      -6.2      5.323      6.917
REMARK  Name = 
REMARK  4 active torsions:
REMARK  status: ('A' for Active; 'I' for Inactive)
REMARK    1  A    between atoms: C_1  and  N_2
REMARK    2  A    between atoms: C_6  and  S_7
REMARK    3  A    between atoms: S_7  and  C_8
REMARK    4  A    between atoms: C_8  and  C_9
REMARK                            x       y       z     vdW  Elec       q    Type
REMARK                         _______ _______ _______ _____ _____    ______ ____
ROOT
ATOM      1  C   UNL     1       4.844   4.147  19.225  0.00  0.00    +0.000 C 
ENDROOT
BRANCH   1   2
ATOM      2  C   UNL     1       5.461   4.348  17.855  0.00  0.00    +0.000 A 
ATOM      3  C   UNL     1       6.842   4.561  17.713  0.00  0.00    +0.000 A 
ATOM      4  C   UNL     1       7.411   4.743  16.448  0.00  0.00    +0.000 A 
ATOM      5  C   UNL     1       6.605   4.698  15.313  0.00  0.00    +0.000 A 
ATOM      6 CL   UNL     1       7.305   4.928  13.758  0.00  0.00    +0.000 Cl
ATOM      7  C   UNL     1       5.237   4.467  15.432  0.00  0.00    +0.000 A 
ATOM      8  C   UNL     1       4.667   4.293  16.697  0.00  0.00    +0.000 A 
ENDBRANCH   1   2
BRANCH   1   9
ATOM      9  S   UNL     1       4.375   2.411  19.528  0.00  0.00    +0.000 S 
BRANCH   9  15
ATOM     10  C   UNL     1       1.957   3.074  21.644  0.00  0.00    +0.000 C 
ATOM     11  N   UNL     1       1.762   2.785  20.251  0.00  0.00    +0.000 N 
ATOM     12  N   UNL     1       0.522   2.764  19.728  0.00  0.00    +0.000 NA
ATOM     13  N   UNL     1       0.689   2.461  18.448  0.00  0.00    +0.000 NA
ATOM     14  N   UNL     1       2.023   2.287  18.151  0.00  0.00    +0.000 NA
ATOM     15  C   UNL     1       2.670   2.490  19.274  0.00  0.00    +0.000 A 
ENDBRANCH   9  15
ENDBRANCH   1   9
TORSDOF 3
ENDMDL
