MODEL 1
REMARK VINA RESULT:      -7.1      0.000      0.000
REMARK  Name = 
REMARK  20 active torsions:
REMARK  status: ('A' for Active; 'I' for Inactive)
REMARK    1  A    between atoms: C_1  and  C_2
REMARK    2  A    between atoms: C_2  and  C_3
REMARK    3  A    between atoms: C_2  and  C_4
REMARK    4  A    between atoms: C_4  and  C_5
REMARK    5  A    between atoms: C_5  and  C_6
REMARK    6  A    between atoms: C_7  and  O_8
REMARK    7  A    between atoms: O_8  and  C_9
REMARK    8  A    between atoms: C_9  and  C_10
REMARK    9  A    between atoms: C_10  and  C_11
REMARK   10  A    between atoms: C_11  and  C_12
REMARK   11  A    between atoms: C_12  and  C_13
REMARK   12  A    between atoms: C_13  and  C_14
REMARK   13  A    between atoms: C_14  and  C_15
REMARK   14  A    between atoms: C_15  and  C_16
REMARK   15  A    between atoms: N_18  and  O_19
REMARK   16  A    between atoms: C_22  and  C_23
REMARK   17  A    between atoms: C_23  and  C_24
REMARK   18  A    between atoms: C_24  and  C_25
REMARK   19  A    between atoms: N_27  and  O_28
REMARK   20  A    between atoms: C_29  and  O_30
REMARK                            x       y       z     vdW  Elec       q    Type
REMARK                         _______ _______ _______ _____ _____    ______ ____
ROOT
ATOM      1  C   UNL     1       2.148   8.069  18.686  0.00  0.00    +0.000 A 
ATOM      2  C   UNL     1       1.942   7.502  19.957  0.00  0.00    +0.000 A 
ATOM      3  C   UNL     1       1.199   8.210  20.911  0.00  0.00    +0.000 A 
ATOM      4  C   UNL     1       0.664   9.464  20.638  0.00  0.00    +0.000 A 
ATOM      5  C   UNL     1       0.922  10.087  19.422  0.00  0.00    +0.000 A 
ATOM      6  C   UNL     1       1.694   9.392  18.480  0.00  0.00    +0.000 A 
ENDROOT
BRANCH   6   7
ATOM      7  O   UNL     1       2.067  10.025  17.322  0.00  0.00    +0.000 OA
ATOM      8  H   UNL     1       2.025  10.991  17.494  0.00  0.00    +0.000 HD
ENDBRANCH   6   7
BRANCH   5   9
ATOM      9  C   UNL     1       0.365  11.469  19.183  0.00  0.00    +0.000 C 
BRANCH   9  10
ATOM     10  C   UNL     1      -1.159  11.497  19.068  0.00  0.00    +0.000 C 
BRANCH  10  11
ATOM     11  C   UNL     1      -1.695  10.968  17.756  0.00  0.00    +0.000 C 
ATOM     12  O   UNL     1      -1.666   9.787  17.412  0.00  0.00    +0.000 OA
ATOM     13  N   UNL     1      -2.210  11.945  16.941  0.00  0.00    +0.000 N 
ATOM     14  H   UNL     1      -2.388  12.901  17.231  0.00  0.00    +0.000 HD
BRANCH  13  15
ATOM     15  O   UNL     1      -2.796  11.525  15.731  0.00  0.00    +0.000 OA
ATOM     16  H   UNL     1      -3.465  12.222  15.563  0.00  0.00    +0.000 HD
ENDBRANCH  13  15
ENDBRANCH  10  11
ENDBRANCH   9  10
ENDBRANCH   5   9
BRANCH   2  17
ATOM     17  O   UNL     1       2.443   6.251  20.215  0.00  0.00    +0.000 OA
BRANCH  17  18
ATOM     18  C   UNL     1       1.574   5.323  20.878  0.00  0.00    +0.000 C 
BRANCH  18  19
ATOM     19  C   UNL     1       1.070   4.211  19.954  0.00  0.00    +0.000 C 
BRANCH  19  20
ATOM     20  C   UNL     1       1.784   2.882  20.180  0.00  0.00    +0.000 C 
BRANCH  20  21
ATOM     21  C   UNL     1       2.046   2.192  18.842  0.00  0.00    +0.000 C 
BRANCH  21  22
ATOM     22  C   UNL     1       3.537   1.965  18.616  0.00  0.00    +0.000 C 
BRANCH  22  23
ATOM     23  C   UNL     1       4.202   3.256  18.148  0.00  0.00    +0.000 C 
BRANCH  23  24
ATOM     24  C   UNL     1       4.752   4.072  19.313  0.00  0.00    +0.000 C 
BRANCH  24  25
ATOM     25  C   UNL     1       6.207   4.427  19.082  0.00  0.00    +0.000 C 
ATOM     26  O   UNL     1       6.867   5.172  19.802  0.00  0.00    +0.000 OA
ATOM     27  N   UNL     1       6.750   3.820  17.974  0.00  0.00    +0.000 N 
ATOM     28  H   UNL     1       6.192   3.493  17.197  0.00  0.00    +0.000 HD
BRANCH  27  29
ATOM     29  O   UNL     1       8.075   4.217  17.672  0.00  0.00    +0.000 OA
ATOM     30  H   UNL     1       8.070   4.264  16.684  0.00  0.00    +0.000 HD
ENDBRANCH  27  29
ENDBRANCH  24  25
ENDBRANCH  23  24
ENDBRANCH  22  23
ENDBRANCH  21  22
ENDBRANCH  20  21
ENDBRANCH  19  20
ENDBRANCH  18  19
ENDBRANCH  17  18
ENDBRANCH   2  17
BRANCH   1  31
ATOM     31  C   UNL     1       2.878   7.392  17.536  0.00  0.00    +0.000 C 
BRANCH  31  32
ATOM     32  C   UNL     1       4.306   6.892  17.788  0.00  0.00    +0.000 C 
BRANCH  32  34
ATOM     33  C   UNL     1       6.686   7.455  17.056  0.00  0.00    +0.000 C 
ATOM     34  C   UNL     1       5.255   7.168  16.599  0.00  0.00    +0.000 C 
ATOM     35  C   UNL     1       5.247   5.976  15.640  0.00  0.00    +0.000 C 
ENDBRANCH  32  34
ENDBRANCH  31  32
ENDBRANCH   1  31
TORSDOF 18
ENDMDL
MODEL 2
REMARK VINA RESULT:      -7.1      3.156      5.698
REMARK  Name = 
REMARK  20 active torsions:
REMARK  status: ('A' for Active; 'I' for Inactive)
REMARK    1  A    between atoms: C_1  and  C_2
REMARK    2  A    between atoms: C_2  and  C_3
REMARK    3  A    between atoms: C_2  and  C_4
REMARK    4  A    between atoms: C_4  and  C_5
REMARK    5  A    between atoms: C_5  and  C_6
REMARK    6  A    between atoms: C_7  and  O_8
REMARK    7  A    between atoms: O_8  and  C_9
REMARK    8  A    between atoms: C_9  and  C_10
REMARK    9  A    between atoms: C_10  and  C_11
REMARK   10  A    between atoms: C_11  and  C_12
REMARK   11  A    between atoms: C_12  and  C_13
REMARK   12  A    between atoms: C_13  and  C_14
REMARK   13  A    between atoms: C_14  and  C_15
REMARK   14  A    between atoms: C_15  and  C_16
REMARK   15  A    between atoms: N_18  and  O_19
REMARK   16  A    between atoms: C_22  and  C_23
REMARK   17  A    between atoms: C_23  and  C_24
REMARK   18  A    between atoms: C_24  and  C_25
REMARK   19  A    between atoms: N_27  and  O_28
REMARK   20  A    between atoms: C_29  and  O_30
REMARK                            x       y       z     vdW  Elec       q    Type
REMARK                         _______ _______ _______ _____ _____    ______ ____
ROOT
ATOM      1  C   UNL     1       3.342   5.918  19.057  0.00  0.00    +0.000 A 
ATOM      2  C   UNL     1       3.813   6.234  17.770  0.00  0.00    +0.000 A 
ATOM      3  C   UNL     1       3.461   7.462  17.194  0.00  0.00    +0.000 A 
ATOM      4  C   UNL     1       2.653   8.378  17.858  0.00  0.00    +0.000 A 
ATOM      5  C   UNL     1       2.103   8.058  19.095  0.00  0.00    +0.000 A 
ATOM      6  C   UNL     1       2.427   6.815  19.656  0.00  0.00    +0.000 A 
ENDROOT
BRANCH   6   7
ATOM      7  O   UNL     1       1.808   6.421  20.815  0.00  0.00    +0.000 OA
ATOM      8  H   UNL     1       0.952   6.901  20.863  0.00  0.00    +0.000 HD
ENDBRANCH   6   7
BRANCH   5   9
ATOM      9  C   UNL     1       1.190   9.058  19.762  0.00  0.00    +0.000 C 
BRANCH   9  10
ATOM     10  C   UNL     1       1.195  10.429  19.086  0.00  0.00    +0.000 C 
BRANCH  10  11
ATOM     11  C   UNL     1      -0.046  10.727  18.272  0.00  0.00    +0.000 C 
ATOM     12  O   UNL     1      -0.754   9.876  17.737  0.00  0.00    +0.000 OA
ATOM     13  N   UNL     1      -0.312  12.069  18.153  0.00  0.00    +0.000 N 
ATOM     14  H   UNL     1       0.150  12.797  18.688  0.00  0.00    +0.000 HD
BRANCH  13  15
ATOM     15  O   UNL     1      -1.491  12.428  17.472  0.00  0.00    +0.000 OA
ATOM     16  H   UNL     1      -1.874  13.120  18.053  0.00  0.00    +0.000 HD
ENDBRANCH  13  15
ENDBRANCH  10  11
ENDBRANCH   9  10
ENDBRANCH   5   9
BRANCH   2  17
ATOM     17  O   UNL     1       4.636   5.345  17.127  0.00  0.00    +0.000 OA
BRANCH  17  18
ATOM     18  C   UNL     1       5.823   5.873  16.522  0.00  0.00    +0.000 C 
BRANCH  18  19
ATOM     19  C   UNL     1       7.099   5.507  17.286  0.00  0.00    +0.000 C 
BRANCH  19  20
ATOM     20  C   UNL     1       7.596   6.633  18.187  0.00  0.00    +0.000 C 
BRANCH  20  21
ATOM     21  C   UNL     1       7.082   7.979  17.679  0.00  0.00    +0.000 C 
BRANCH  21  22
ATOM     22  C   UNL     1       8.213   8.995  17.555  0.00  0.00    +0.000 C 
BRANCH  22  23
ATOM     23  C   UNL     1       8.819   9.279  18.926  0.00  0.00    +0.000 C 
BRANCH  23  24
ATOM     24  C   UNL     1       9.654  10.554  18.931  0.00  0.00    +0.000 C 
BRANCH  24  25
ATOM     25  C   UNL     1       9.316  11.414  20.132  0.00  0.00    +0.000 C 
ATOM     26  O   UNL     1       9.040  12.610  20.080  0.00  0.00    +0.000 OA
ATOM     27  N   UNL     1       9.332  10.723  21.321  0.00  0.00    +0.000 N 
ATOM     28  H   UNL     1       9.860   9.871  21.456  0.00  0.00    +0.000 HD
BRANCH  27  29
ATOM     29  O   UNL     1       9.127  11.522  22.472  0.00  0.00    +0.000 OA
ATOM     30  H   UNL     1       8.856  12.393  22.090  0.00  0.00    +0.000 HD
ENDBRANCH  27  29
ENDBRANCH  24  25
ENDBRANCH  23  24
ENDBRANCH  22  23
ENDBRANCH  21  22
ENDBRANCH  20  21
ENDBRANCH  19  20
ENDBRANCH  18  19
ENDBRANCH  17  18
ENDBRANCH   2  17
BRANCH   1  31
ATOM     31  C   UNL     1       3.691   4.655  19.829  0.00  0.00    +0.000 C 
BRANCH  31  32
ATOM     32  C   UNL     1       3.050   3.337  19.375  0.00  0.00    +0.000 C 
BRANCH  32  34
ATOM     33  C   UNL     1       0.799   2.276  18.801  0.00  0.00    +0.000 C 
ATOM     34  C   UNL     1       1.542   3.260  19.707  0.00  0.00    +0.000 C 
ATOM     35  C   UNL     1       1.352   2.859  21.172  0.00  0.00    +0.000 C 
ENDBRANCH  32  34
ENDBRANCH  31  32
ENDBRANCH   1  31
TORSDOF 18
ENDMDL
MODEL 3
REMARK VINA RESULT:      -7.0      2.090      8.878
REMARK  Name = 
REMARK  20 active torsions:
REMARK  status: ('A' for Active; 'I' for Inactive)
REMARK    1  A    between atoms: C_1  and  C_2
REMARK    2  A    between atoms: C_2  and  C_3
REMARK    3  A    between atoms: C_2  and  C_4
REMARK    4  A    between atoms: C_4  and  C_5
REMARK    5  A    between atoms: C_5  and  C_6
REMARK    6  A    between atoms: C_7  and  O_8
REMARK    7  A    between atoms: O_8  and  C_9
REMARK    8  A    between atoms: C_9  and  C_10
REMARK    9  A    between atoms: C_10  and  C_11
REMARK   10  A    between atoms: C_11  and  C_12
REMARK   11  A    between atoms: C_12  and  C_13
REMARK   12  A    between atoms: C_13  and  C_14
REMARK   13  A    between atoms: C_14  and  C_15
REMARK   14  A    between atoms: C_15  and  C_16
REMARK   15  A    between atoms: N_18  and  O_19
REMARK   16  A    between atoms: C_22  and  C_23
REMARK   17  A    between atoms: C_23  and  C_24
REMARK   18  A    between atoms: C_24  and  C_25
REMARK   19  A    between atoms: N_27  and  O_28
REMARK   20  A    between atoms: C_29  and  O_30
REMARK                            x       y       z     vdW  Elec       q    Type
REMARK                         _______ _______ _______ _____ _____    ______ ____
ROOT
ATOM      1  C   UNL     1       3.078   5.805  19.359  0.00  0.00    +0.000 A 
ATOM      2  C   UNL     1       2.690   7.056  18.846  0.00  0.00    +0.000 A 
ATOM      3  C   UNL     1       3.387   7.595  17.755  0.00  0.00    +0.000 A 
ATOM      4  C   UNL     1       4.457   6.928  17.168  0.00  0.00    +0.000 A 
ATOM      5  C   UNL     1       4.917   5.732  17.707  0.00  0.00    +0.000 A 
ATOM      6  C   UNL     1       4.241   5.210  18.819  0.00  0.00    +0.000 A 
ENDROOT
BRANCH   6   7
ATOM      7  O   UNL     1       4.743   4.097  19.446  0.00  0.00    +0.000 OA
ATOM      8  H   UNL     1       5.582   3.863  18.992  0.00  0.00    +0.000 HD
ENDBRANCH   6   7
BRANCH   5   9
ATOM      9  C   UNL     1       6.112   5.064  17.072  0.00  0.00    +0.000 C 
BRANCH   9  10
ATOM     10  C   UNL     1       5.745   4.141  15.909  0.00  0.00    +0.000 C 
BRANCH  10  11
ATOM     11  C   UNL     1       6.501   4.422  14.629  0.00  0.00    +0.000 C 
ATOM     12  O   UNL     1       6.281   3.873  13.550  0.00  0.00    +0.000 OA
ATOM     13  N   UNL     1       7.502   5.349  14.777  0.00  0.00    +0.000 N 
ATOM     14  H   UNL     1       7.631   5.931  15.598  0.00  0.00    +0.000 HD
BRANCH  13  15
ATOM     15  O   UNL     1       8.207   5.720  13.615  0.00  0.00    +0.000 OA
ATOM     16  H   UNL     1       9.141   5.568  13.872  0.00  0.00    +0.000 HD
ENDBRANCH  13  15
ENDBRANCH  10  11
ENDBRANCH   9  10
ENDBRANCH   5   9
BRANCH   2  17
ATOM     17  O   UNL     1       1.615   7.699  19.404  0.00  0.00    +0.000 OA
BRANCH  17  18
ATOM     18  C   UNL     1       1.734   8.104  20.774  0.00  0.00    +0.000 C 
BRANCH  18  19
ATOM     19  C   UNL     1       0.677   9.132  21.188  0.00  0.00    +0.000 C 
BRANCH  19  20
ATOM     20  C   UNL     1       0.699  10.388  20.323  0.00  0.00    +0.000 C 
BRANCH  20  21
ATOM     21  C   UNL     1      -0.720  10.753  19.890  0.00  0.00    +0.000 C 
BRANCH  21  22
ATOM     22  C   UNL     1      -0.967  10.393  18.429  0.00  0.00    +0.000 C 
BRANCH  22  23
ATOM     23  C   UNL     1      -1.716  11.521  17.727  0.00  0.00    +0.000 C 
BRANCH  23  24
ATOM     24  C   UNL     1      -2.681  10.997  16.669  0.00  0.00    +0.000 C 
BRANCH  24  25
ATOM     25  C   UNL     1      -4.111  11.061  17.166  0.00  0.00    +0.000 C 
ATOM     26  O   UNL     1      -4.622  10.249  17.933  0.00  0.00    +0.000 OA
ATOM     27  N   UNL     1      -4.810  12.143  16.684  0.00  0.00    +0.000 N 
ATOM     28  H   UNL     1      -4.562  12.622  15.828  0.00  0.00    +0.000 HD
BRANCH  27  29
ATOM     29  O   UNL     1      -6.179  12.171  17.043  0.00  0.00    +0.000 OA
ATOM     30  H   UNL     1      -6.326  11.269  17.420  0.00  0.00    +0.000 HD
ENDBRANCH  27  29
ENDBRANCH  24  25
ENDBRANCH  23  24
ENDBRANCH  22  23
ENDBRANCH  21  22
ENDBRANCH  20  21
ENDBRANCH  19  20
ENDBRANCH  18  19
ENDBRANCH  17  18
ENDBRANCH   2  17
BRANCH   1  31
ATOM     31  C   UNL     1       2.379   5.073  20.495  0.00  0.00    +0.000 C 
BRANCH  31  32
ATOM     32  C   UNL     1       1.038   4.394  20.192  0.00  0.00    +0.000 C 
BRANCH  32  34
ATOM     33  C   UNL     1       1.780   2.126  19.282  0.00  0.00    +0.000 C 
ATOM     34  C   UNL     1       1.077   2.865  20.422  0.00  0.00    +0.000 C 
ATOM     35  C   UNL     1       1.777   2.557  21.747  0.00  0.00    +0.000 C 
ENDBRANCH  32  34
ENDBRANCH  31  32
ENDBRANCH   1  31
TORSDOF 18
ENDMDL
MODEL 4
REMARK VINA RESULT:      -7.0      2.503      9.198
REMARK  Name = 
REMARK  20 active torsions:
REMARK  status: ('A' for Active; 'I' for Inactive)
REMARK    1  A    between atoms: C_1  and  C_2
REMARK    2  A    between atoms: C_2  and  C_3
REMARK    3  A    between atoms: C_2  and  C_4
REMARK    4  A    between atoms: C_4  and  C_5
REMARK    5  A    between atoms: C_5  and  C_6
REMARK    6  A    between atoms: C_7  and  O_8
REMARK    7  A    between atoms: O_8  and  C_9
REMARK    8  A    between atoms: C_9  and  C_10
REMARK    9  A    between atoms: C_10  and  C_11
REMARK   10  A    between atoms: C_11  and  C_12
REMARK   11  A    between atoms: C_12  and  C_13
REMARK   12  A    between atoms: C_13  and  C_14
REMARK   13  A    between atoms: C_14  and  C_15
REMARK   14  A    between atoms: C_15  and  C_16
REMARK   15  A    between atoms: N_18  and  O_19
REMARK   16  A    between atoms: C_22  and  C_23
REMARK   17  A    between atoms: C_23  and  C_24
REMARK   18  A    between atoms: C_24  and  C_25
REMARK   19  A    between atoms: N_27  and  O_28
REMARK   20  A    between atoms: C_29  and  O_30
REMARK                            x       y       z     vdW  Elec       q    Type
REMARK                         _______ _______ _______ _____ _____    ______ ____
ROOT
ATOM      1  C   UNL     1       3.009   5.044  17.646  0.00  0.00    +0.000 A 
ATOM      2  C   UNL     1       3.208   6.424  17.829  0.00  0.00    +0.000 A 
ATOM      3  C   UNL     1       4.363   7.025  17.309  0.00  0.00    +0.000 A 
ATOM      4  C   UNL     1       5.323   6.291  16.621  0.00  0.00    +0.000 A 
ATOM      5  C   UNL     1       5.195   4.912  16.498  0.00  0.00    +0.000 A 
ATOM      6  C   UNL     1       4.056   4.307  17.048  0.00  0.00    +0.000 A 
ENDROOT
BRANCH   6   7
ATOM      7  O   UNL     1       3.959   2.938  17.049  0.00  0.00    +0.000 OA
ATOM      8  H   UNL     1       3.519   2.679  16.210  0.00  0.00    +0.000 HD
ENDBRANCH   6   7
BRANCH   5   9
ATOM      9  C   UNL     1       6.282   4.144  15.786  0.00  0.00    +0.000 C 
BRANCH   9  10
ATOM     10  C   UNL     1       6.014   3.954  14.293  0.00  0.00    +0.000 C 
BRANCH  10  11
ATOM     11  C   UNL     1       7.065   4.562  13.389  0.00  0.00    +0.000 C 
ATOM     12  O   UNL     1       7.182   4.319  12.189  0.00  0.00    +0.000 OA
ATOM     13  N   UNL     1       7.921   5.414  14.041  0.00  0.00    +0.000 N 
ATOM     14  H   UNL     1       7.782   5.758  14.986  0.00  0.00    +0.000 HD
BRANCH  13  15
ATOM     15  O   UNL     1       8.883   6.078  13.255  0.00  0.00    +0.000 OA
ATOM     16  H   UNL     1       9.696   5.555  13.423  0.00  0.00    +0.000 HD
ENDBRANCH  13  15
ENDBRANCH  10  11
ENDBRANCH   9  10
ENDBRANCH   5   9
BRANCH   2  17
ATOM     17  O   UNL     1       2.246   7.154  18.480  0.00  0.00    +0.000 OA
BRANCH  17  18
ATOM     18  C   UNL     1       2.218   8.566  18.234  0.00  0.00    +0.000 C 
BRANCH  18  19
ATOM     19  C   UNL     1       1.201   9.305  19.108  0.00  0.00    +0.000 C 
BRANCH  19  20
ATOM     20  C   UNL     1       1.008  10.761  18.694  0.00  0.00    +0.000 C 
BRANCH  20  21
ATOM     21  C   UNL     1      -0.452  11.012  18.322  0.00  0.00    +0.000 C 
BRANCH  21  22
ATOM     22  C   UNL     1      -1.081   9.783  17.674  0.00  0.00    +0.000 C 
BRANCH  22  23
ATOM     23  C   UNL     1      -2.602   9.877  17.731  0.00  0.00    +0.000 C 
BRANCH  23  24
ATOM     24  C   UNL     1      -3.150  10.909  16.751  0.00  0.00    +0.000 C 
BRANCH  24  25
ATOM     25  C   UNL     1      -4.271  11.708  17.382  0.00  0.00    +0.000 C 
ATOM     26  O   UNL     1      -5.366  11.907  16.861  0.00  0.00    +0.000 OA
ATOM     27  N   UNL     1      -3.960  12.199  18.628  0.00  0.00    +0.000 N 
ATOM     28  H   UNL     1      -3.010  12.351  18.938  0.00  0.00    +0.000 HD
BRANCH  27  29
ATOM     29  O   UNL     1      -4.947  13.040  19.196  0.00  0.00    +0.000 OA
ATOM     30  H   UNL     1      -4.551  13.941  19.100  0.00  0.00    +0.000 HD
ENDBRANCH  27  29
ENDBRANCH  24  25
ENDBRANCH  23  24
ENDBRANCH  22  23
ENDBRANCH  21  22
ENDBRANCH  20  21
ENDBRANCH  19  20
ENDBRANCH  18  19
ENDBRANCH  17  18
ENDBRANCH   2  17
BRANCH   1  31
ATOM     31  C   UNL     1       1.779   4.272  18.099  0.00  0.00    +0.000 C 
BRANCH  31  32
ATOM     32  C   UNL     1       1.972   3.164  19.142  0.00  0.00    +0.000 C 
BRANCH  32  34
ATOM     33  C   UNL     1       1.926   2.723  21.657  0.00  0.00    +0.000 C 
ATOM     34  C   UNL     1       1.296   3.492  20.493  0.00  0.00    +0.000 C 
ATOM     35  C   UNL     1       1.377   4.996  20.764  0.00  0.00    +0.000 C 
ENDBRANCH  32  34
ENDBRANCH  31  32
ENDBRANCH   1  31
TORSDOF 18
ENDMDL
MODEL 5
REMARK VINA RESULT:      -6.9      2.059      7.816
REMARK  Name = 
REMARK  20 active torsions:
REMARK  status: ('A' for Active; 'I' for Inactive)
REMARK    1  A    between atoms: C_1  and  C_2
REMARK    2  A    between atoms: C_2  and  C_3
REMARK    3  A    between atoms: C_2  and  C_4
REMARK    4  A    between atoms: C_4  and  C_5
REMARK    5  A    between atoms: C_5  and  C_6
REMARK    6  A    between atoms: C_7  and  O_8
REMARK    7  A    between atoms: O_8  and  C_9
REMARK    8  A    between atoms: C_9  and  C_10
REMARK    9  A    between atoms: C_10  and  C_11
REMARK   10  A    between atoms: C_11  and  C_12
REMARK   11  A    between atoms: C_12  and  C_13
REMARK   12  A    between atoms: C_13  and  C_14
REMARK   13  A    between atoms: C_14  and  C_15
REMARK   14  A    between atoms: C_15  and  C_16
REMARK   15  A    between atoms: N_18  and  O_19
REMARK   16  A    between atoms: C_22  and  C_23
REMARK   17  A    between atoms: C_23  and  C_24
REMARK   18  A    between atoms: C_24  and  C_25
REMARK   19  A    between atoms: N_27  and  O_28
REMARK   20  A    between atoms: C_29  and  O_30
REMARK                            x       y       z     vdW  Elec       q    Type
REMARK                         _______ _______ _______ _____ _____    ______ ____
ROOT
ATOM      1  C   UNL     1       3.537   6.057  18.414  0.00  0.00    +0.000 A 
ATOM      2  C   UNL     1       2.664   7.128  18.680  0.00  0.00    +0.000 A 
ATOM      3  C   UNL     1       1.841   7.075  19.814  0.00  0.00    +0.000 A 
ATOM      4  C   UNL     1       1.859   5.988  20.681  0.00  0.00    +0.000 A 
ATOM      5  C   UNL     1       2.648   4.879  20.399  0.00  0.00    +0.000 A 
ATOM      6  C   UNL     1       3.446   4.918  19.246  0.00  0.00    +0.000 A 
ENDROOT
BRANCH   6   7
ATOM      7  O   UNL     1       4.142   3.796  18.875  0.00  0.00    +0.000 OA
ATOM      8  H   UNL     1       3.487   3.074  18.757  0.00  0.00    +0.000 HD
ENDBRANCH   6   7
BRANCH   5   9
ATOM      9  C   UNL     1       2.603   3.699  21.338  0.00  0.00    +0.000 C 
BRANCH   9  10
ATOM     10  C   UNL     1       1.406   2.779  21.100  0.00  0.00    +0.000 C 
BRANCH  10  11
ATOM     11  C   UNL     1       1.155   2.444  19.646  0.00  0.00    +0.000 C 
ATOM     12  O   UNL     1       0.112   2.686  19.040  0.00  0.00    +0.000 OA
ATOM     13  N   UNL     1       2.210   1.806  19.043  0.00  0.00    +0.000 N 
ATOM     14  H   UNL     1       3.136   1.713  19.449  0.00  0.00    +0.000 HD
BRANCH  13  15
ATOM     15  O   UNL     1       2.085   1.525  17.668  0.00  0.00    +0.000 OA
ATOM     16  H   UNL     1       2.964   1.150  17.444  0.00  0.00    +0.000 HD
ENDBRANCH  13  15
ENDBRANCH  10  11
ENDBRANCH   9  10
ENDBRANCH   5   9
BRANCH   2  17
ATOM     17  O   UNL     1       2.669   8.213  17.842  0.00  0.00    +0.000 OA
BRANCH  17  18
ATOM     18  C   UNL     1       1.715   9.249  18.109  0.00  0.00    +0.000 C 
BRANCH  18  19
ATOM     19  C   UNL     1       2.309  10.655  17.988  0.00  0.00    +0.000 C 
BRANCH  19  20
ATOM     20  C   UNL     1       1.514  11.705  18.759  0.00  0.00    +0.000 C 
BRANCH  20  21
ATOM     21  C   UNL     1       0.868  11.074  19.992  0.00  0.00    +0.000 C 
BRANCH  21  22
ATOM     22  C   UNL     1      -0.520  11.650  20.250  0.00  0.00    +0.000 C 
BRANCH  22  23
ATOM     23  C   UNL     1      -1.321  11.699  18.952  0.00  0.00    +0.000 C 
BRANCH  23  24
ATOM     24  C   UNL     1      -1.706  10.307  18.464  0.00  0.00    +0.000 C 
BRANCH  24  25
ATOM     25  C   UNL     1      -2.615  10.393  17.255  0.00  0.00    +0.000 C 
ATOM     26  O   UNL     1      -3.512   9.594  16.998  0.00  0.00    +0.000 OA
ATOM     27  N   UNL     1      -2.355  11.477  16.451  0.00  0.00    +0.000 N 
ATOM     28  H   UNL     1      -1.459  11.944  16.428  0.00  0.00    +0.000 HD
BRANCH  27  29
ATOM     29  O   UNL     1      -3.117  11.524  15.257  0.00  0.00    +0.000 OA
ATOM     30  H   UNL     1      -4.011  11.801  15.577  0.00  0.00    +0.000 HD
ENDBRANCH  27  29
ENDBRANCH  24  25
ENDBRANCH  23  24
ENDBRANCH  22  23
ENDBRANCH  21  22
ENDBRANCH  20  21
ENDBRANCH  19  20
ENDBRANCH  18  19
ENDBRANCH  17  18
ENDBRANCH   2  17
BRANCH   1  31
ATOM     31  C   UNL     1       4.527   6.005  17.260  0.00  0.00    +0.000 C 
BRANCH  31  32
ATOM     32  C   UNL     1       5.810   6.838  17.377  0.00  0.00    +0.000 C 
BRANCH  32  34
ATOM     33  C   UNL     1       7.374   4.829  17.575  0.00  0.00    +0.000 C 
ATOM     34  C   UNL     1       6.903   6.136  18.216  0.00  0.00    +0.000 C 
ATOM     35  C   UNL     1       8.095   7.076  18.407  0.00  0.00    +0.000 C 
ENDBRANCH  32  34
ENDBRANCH  31  32
ENDBRANCH   1  31
TORSDOF 18
ENDMDL
MODEL 6
REMARK VINA RESULT:      -6.9      2.775      9.208
REMARK  Name = 
REMARK  20 active torsions:
REMARK  status: ('A' for Active; 'I' for Inactive)
REMARK    1  A    between atoms: C_1  and  C_2
REMARK    2  A    between atoms: C_2  and  C_3
REMARK    3  A    between atoms: C_2  and  C_4
REMARK    4  A    between atoms: C_4  and  C_5
REMARK    5  A    between atoms: C_5  and  C_6
REMARK    6  A    between atoms: C_7  and  O_8
REMARK    7  A    between atoms: O_8  and  C_9
REMARK    8  A    between atoms: C_9  and  C_10
REMARK    9  A    between atoms: C_10  and  C_11
REMARK   10  A    between atoms: C_11  and  C_12
REMARK   11  A    between atoms: C_12  and  C_13
REMARK   12  A    between atoms: C_13  and  C_14
REMARK   13  A    between atoms: C_14  and  C_15
REMARK   14  A    between atoms: C_15  and  C_16
REMARK   15  A    between atoms: N_18  and  O_19
REMARK   16  A    between atoms: C_22  and  C_23
REMARK   17  A    between atoms: C_23  and  C_24
REMARK   18  A    between atoms: C_24  and  C_25
REMARK   19  A    between atoms: N_27  and  O_28
REMARK   20  A    between atoms: C_29  and  O_30
REMARK                            x       y       z     vdW  Elec       q    Type
REMARK                         _______ _______ _______ _____ _____    ______ ____
ROOT
ATOM      1  C   UNL     1       3.388   5.342  17.640  0.00  0.00    +0.000 A 
ATOM      2  C   UNL     1       3.784   6.692  17.607  0.00  0.00    +0.000 A 
ATOM      3  C   UNL     1       4.846   7.075  16.776  0.00  0.00    +0.000 A 
ATOM      4  C   UNL     1       5.524   6.154  15.984  0.00  0.00    +0.000 A 
ATOM      5  C   UNL     1       5.211   4.801  16.058  0.00  0.00    +0.000 A 
ATOM      6  C   UNL     1       4.172   4.414  16.916  0.00  0.00    +0.000 A 
ENDROOT
BRANCH   6   7
ATOM      7  O   UNL     1       3.920   3.079  17.103  0.00  0.00    +0.000 OA
ATOM      8  H   UNL     1       4.764   2.662  17.383  0.00  0.00    +0.000 HD
ENDBRANCH   6   7
BRANCH   5   9
ATOM      9  C   UNL     1       6.002   3.828  15.220  0.00  0.00    +0.000 C 
BRANCH   9  10
ATOM     10  C   UNL     1       6.260   4.322  13.796  0.00  0.00    +0.000 C 
BRANCH  10  11
ATOM     11  C   UNL     1       5.626   3.471  12.717  0.00  0.00    +0.000 C 
ATOM     12  O   UNL     1       4.504   3.655  12.247  0.00  0.00    +0.000 OA
ATOM     13  N   UNL     1       6.418   2.427  12.309  0.00  0.00    +0.000 N 
ATOM     14  H   UNL     1       7.396   2.315  12.556  0.00  0.00    +0.000 HD
BRANCH  13  15
ATOM     15  O   UNL     1       5.931   1.629  11.255  0.00  0.00    +0.000 OA
ATOM     16  H   UNL     1       6.101   0.718  11.578  0.00  0.00    +0.000 HD
ENDBRANCH  13  15
ENDBRANCH  10  11
ENDBRANCH   9  10
ENDBRANCH   5   9
BRANCH   2  17
ATOM     17  O   UNL     1       3.095   7.605  18.365  0.00  0.00    +0.000 OA
BRANCH  17  18
ATOM     18  C   UNL     1       1.990   8.270  17.740  0.00  0.00    +0.000 C 
BRANCH  18  19
ATOM     19  C   UNL     1       1.667   9.623  18.381  0.00  0.00    +0.000 C 
BRANCH  19  20
ATOM     20  C   UNL     1       0.758   9.501  19.601  0.00  0.00    +0.000 C 
BRANCH  20  21
ATOM     21  C   UNL     1      -0.541  10.269  19.367  0.00  0.00    +0.000 C 
BRANCH  21  22
ATOM     22  C   UNL     1      -0.269  11.714  18.962  0.00  0.00    +0.000 C 
BRANCH  22  23
ATOM     23  C   UNL     1      -1.413  12.247  18.105  0.00  0.00    +0.000 C 
BRANCH  23  24
ATOM     24  C   UNL     1      -2.116  11.137  17.332  0.00  0.00    +0.000 C 
BRANCH  24  25
ATOM     25  C   UNL     1      -3.600  11.416  17.219  0.00  0.00    +0.000 C 
ATOM     26  O   UNL     1      -4.338  10.937  16.361  0.00  0.00    +0.000 OA
ATOM     27  N   UNL     1      -4.073  12.265  18.191  0.00  0.00    +0.000 N 
ATOM     28  H   UNL     1      -3.483  12.923  18.682  0.00  0.00    +0.000 HD
BRANCH  27  29
ATOM     29  O   UNL     1      -5.434  12.630  18.047  0.00  0.00    +0.000 OA
ATOM     30  H   UNL     1      -5.451  13.558  18.390  0.00  0.00    +0.000 HD
ENDBRANCH  27  29
ENDBRANCH  24  25
ENDBRANCH  23  24
ENDBRANCH  22  23
ENDBRANCH  21  22
ENDBRANCH  20  21
ENDBRANCH  19  20
ENDBRANCH  18  19
ENDBRANCH  17  18
ENDBRANCH   2  17
BRANCH   1  31
ATOM     31  C   UNL     1       2.220   4.795  18.445  0.00  0.00    +0.000 C 
BRANCH  31  32
ATOM     32  C   UNL     1       2.499   4.299  19.869  0.00  0.00    +0.000 C 
BRANCH  32  34
ATOM     33  C   UNL     1       1.437   2.681  21.535  0.00  0.00    +0.000 C 
ATOM     34  C   UNL     1       1.978   2.865  20.115  0.00  0.00    +0.000 C 
ATOM     35  C   UNL     1       0.885   2.527  19.099  0.00  0.00    +0.000 C 
ENDBRANCH  32  34
ENDBRANCH  31  32
ENDBRANCH   1  31
TORSDOF 18
ENDMDL
MODEL 7
REMARK VINA RESULT:      -6.9      2.241      8.604
REMARK  Name = 
REMARK  20 active torsions:
REMARK  status: ('A' for Active; 'I' for Inactive)
REMARK    1  A    between atoms: C_1  and  C_2
REMARK    2  A    between atoms: C_2  and  C_3
REMARK    3  A    between atoms: C_2  and  C_4
REMARK    4  A    between atoms: C_4  and  C_5
REMARK    5  A    between atoms: C_5  and  C_6
REMARK    6  A    between atoms: C_7  and  O_8
REMARK    7  A    between atoms: O_8  and  C_9
REMARK    8  A    between atoms: C_9  and  C_10
REMARK    9  A    between atoms: C_10  and  C_11
REMARK   10  A    between atoms: C_11  and  C_12
REMARK   11  A    between atoms: C_12  and  C_13
REMARK   12  A    between atoms: C_13  and  C_14
REMARK   13  A    between atoms: C_14  and  C_15
REMARK   14  A    between atoms: C_15  and  C_16
REMARK   15  A    between atoms: N_18  and  O_19
REMARK   16  A    between atoms: C_22  and  C_23
REMARK   17  A    between atoms: C_23  and  C_24
REMARK   18  A    between atoms: C_24  and  C_25
REMARK   19  A    between atoms: N_27  and  O_28
REMARK   20  A    between atoms: C_29  and  O_30
REMARK                            x       y       z     vdW  Elec       q    Type
REMARK                         _______ _______ _______ _____ _____    ______ ____
ROOT
ATOM      1  C   UNL     1       2.907   5.338  17.824  0.00  0.00    +0.000 A 
ATOM      2  C   UNL     1       2.986   6.743  17.842  0.00  0.00    +0.000 A 
ATOM      3  C   UNL     1       4.152   7.369  17.382  0.00  0.00    +0.000 A 
ATOM      4  C   UNL     1       5.239   6.639  16.911  0.00  0.00    +0.000 A 
ATOM      5  C   UNL     1       5.223   5.250  16.961  0.00  0.00    +0.000 A 
ATOM      6  C   UNL     1       4.069   4.624  17.453  0.00  0.00    +0.000 A 
ENDROOT
BRANCH   6   7
ATOM      7  O   UNL     1       4.068   3.263  17.627  0.00  0.00    +0.000 OA
ATOM      8  H   UNL     1       3.621   2.872  16.845  0.00  0.00    +0.000 HD
ENDBRANCH   6   7
BRANCH   5   9
ATOM      9  C   UNL     1       6.440   4.495  16.487  0.00  0.00    +0.000 C 
BRANCH   9  10
ATOM     10  C   UNL     1       6.185   3.654  15.236  0.00  0.00    +0.000 C 
BRANCH  10  11
ATOM     11  C   UNL     1       6.694   4.275  13.953  0.00  0.00    +0.000 C 
ATOM     12  O   UNL     1       6.325   3.954  12.824  0.00  0.00    +0.000 OA
ATOM     13  N   UNL     1       7.651   5.238  14.154  0.00  0.00    +0.000 N 
ATOM     14  H   UNL     1       7.884   5.638  15.057  0.00  0.00    +0.000 HD
BRANCH  13  15
ATOM     15  O   UNL     1       8.124   5.917  13.014  0.00  0.00    +0.000 OA
ATOM     16  H   UNL     1       8.877   6.436  13.370  0.00  0.00    +0.000 HD
ENDBRANCH  13  15
ENDBRANCH  10  11
ENDBRANCH   9  10
ENDBRANCH   5   9
BRANCH   2  17
ATOM     17  O   UNL     1       1.903   7.463  18.277  0.00  0.00    +0.000 OA
BRANCH  17  18
ATOM     18  C   UNL     1       2.108   8.347  19.386  0.00  0.00    +0.000 C 
BRANCH  18  19
ATOM     19  C   UNL     1       1.652   7.749  20.720  0.00  0.00    +0.000 C 
BRANCH  19  20
ATOM     20  C   UNL     1       1.104   8.796  21.685  0.00  0.00    +0.000 C 
BRANCH  20  21
ATOM     21  C   UNL     1      -0.354   9.107  21.350  0.00  0.00    +0.000 C 
BRANCH  21  22
ATOM     22  C   UNL     1      -0.473  10.374  20.509  0.00  0.00    +0.000 C 
BRANCH  22  23
ATOM     23  C   UNL     1      -1.077  10.048  19.147  0.00  0.00    +0.000 C 
BRANCH  23  24
ATOM     24  C   UNL     1      -1.220  11.287  18.271  0.00  0.00    +0.000 C 
BRANCH  24  25
ATOM     25  C   UNL     1      -2.678  11.662  18.101  0.00  0.00    +0.000 C 
ATOM     26  O   UNL     1      -3.460  11.863  19.027  0.00  0.00    +0.000 OA
ATOM     27  N   UNL     1      -3.065  11.774  16.787  0.00  0.00    +0.000 N 
ATOM     28  H   UNL     1      -2.584  11.308  16.029  0.00  0.00    +0.000 HD
BRANCH  27  29
ATOM     29  O   UNL     1      -4.447  12.017  16.595  0.00  0.00    +0.000 OA
ATOM     30  H   UNL     1      -4.487  12.341  15.662  0.00  0.00    +0.000 HD
ENDBRANCH  27  29
ENDBRANCH  24  25
ENDBRANCH  23  24
ENDBRANCH  22  23
ENDBRANCH  21  22
ENDBRANCH  20  21
ENDBRANCH  19  20
ENDBRANCH  18  19
ENDBRANCH  17  18
ENDBRANCH   2  17
BRANCH   1  31
ATOM     31  C   UNL     1       1.687   4.527  18.234  0.00  0.00    +0.000 C 
BRANCH  31  32
ATOM     32  C   UNL     1       1.431   4.325  19.733  0.00  0.00    +0.000 C 
BRANCH  32  34
ATOM     33  C   UNL     1       1.381   2.632  21.643  0.00  0.00    +0.000 C 
ATOM     34  C   UNL     1       1.899   2.941  20.238  0.00  0.00    +0.000 C 
ATOM     35  C   UNL     1       1.440   1.851  19.267  0.00  0.00    +0.000 C 
ENDBRANCH  32  34
ENDBRANCH  31  32
ENDBRANCH   1  31
TORSDOF 18
ENDMDL
MODEL 8
REMARK VINA RESULT:      -6.9      3.359      8.890
REMARK  Name = 
REMARK  20 active torsions:
REMARK  status: ('A' for Active; 'I' for Inactive)
REMARK    1  A    between atoms: C_1  and  C_2
REMARK    2  A    between atoms: C_2  and  C_3
REMARK    3  A    between atoms: C_2  and  C_4
REMARK    4  A    between atoms: C_4  and  C_5
REMARK    5  A    between atoms: C_5  and  C_6
REMARK    6  A    between atoms: C_7  and  O_8
REMARK    7  A    between atoms: O_8  and  C_9
REMARK    8  A    between atoms: C_9  and  C_10
REMARK    9  A    between atoms: C_10  and  C_11
REMARK   10  A    between atoms: C_11  and  C_12
REMARK   11  A    between atoms: C_12  and  C_13
REMARK   12  A    between atoms: C_13  and  C_14
REMARK   13  A    between atoms: C_14  and  C_15
REMARK   14  A    between atoms: C_15  and  C_16
REMARK   15  A    between atoms: N_18  and  O_19
REMARK   16  A    between atoms: C_22  and  C_23
REMARK   17  A    between atoms: C_23  and  C_24
REMARK   18  A    between atoms: C_24  and  C_25
REMARK   19  A    between atoms: N_27  and  O_28
REMARK   20  A    between atoms: C_29  and  O_30
REMARK                            x       y       z     vdW  Elec       q    Type
REMARK                         _______ _______ _______ _____ _____    ______ ____
ROOT
ATOM      1  C   UNL     1       3.061   5.392  17.807  0.00  0.00    +0.000 A 
ATOM      2  C   UNL     1       3.420   6.750  17.886  0.00  0.00    +0.000 A 
ATOM      3  C   UNL     1       4.568   7.195  17.216  0.00  0.00    +0.000 A 
ATOM      4  C   UNL     1       5.367   6.328  16.479  0.00  0.00    +0.000 A 
ATOM      5  C   UNL     1       5.086   4.967  16.452  0.00  0.00    +0.000 A 
ATOM      6  C   UNL     1       3.956   4.517  17.151  0.00  0.00    +0.000 A 
ENDROOT
BRANCH   6   7
ATOM      7  O   UNL     1       3.720   3.169  17.244  0.00  0.00    +0.000 OA
ATOM      8  H   UNL     1       3.150   2.922  16.483  0.00  0.00    +0.000 HD
ENDBRANCH   6   7
BRANCH   5   9
ATOM      9  C   UNL     1       6.005   4.052  15.681  0.00  0.00    +0.000 C 
BRANCH   9  10
ATOM     10  C   UNL     1       5.743   4.057  14.175  0.00  0.00    +0.000 C 
BRANCH  10  11
ATOM     11  C   UNL     1       6.914   4.529  13.341  0.00  0.00    +0.000 C 
ATOM     12  O   UNL     1       7.150   4.159  12.191  0.00  0.00    +0.000 OA
ATOM     13  N   UNL     1       7.734   5.412  13.998  0.00  0.00    +0.000 N 
ATOM     14  H   UNL     1       7.510   5.856  14.883  0.00  0.00    +0.000 HD
BRANCH  13  15
ATOM     15  O   UNL     1       8.807   5.955  13.266  0.00  0.00    +0.000 OA
ATOM     16  H   UNL     1       9.588   5.686  13.796  0.00  0.00    +0.000 HD
ENDBRANCH  13  15
ENDBRANCH  10  11
ENDBRANCH   9  10
ENDBRANCH   5   9
BRANCH   2  17
ATOM     17  O   UNL     1       2.614   7.610  18.587  0.00  0.00    +0.000 OA
BRANCH  17  18
ATOM     18  C   UNL     1       1.903   8.600  17.833  0.00  0.00    +0.000 C 
BRANCH  18  19
ATOM     19  C   UNL     1       1.434   9.781  18.689  0.00  0.00    +0.000 C 
BRANCH  19  20
ATOM     20  C   UNL     1      -0.022  10.157  18.435  0.00  0.00    +0.000 C 
BRANCH  20  21
ATOM     21  C   UNL     1      -0.251  11.629  18.774  0.00  0.00    +0.000 C 
BRANCH  21  22
ATOM     22  C   UNL     1       1.030  12.293  19.268  0.00  0.00    +0.000 C 
BRANCH  22  23
ATOM     23  C   UNL     1       1.354  13.515  18.415  0.00  0.00    +0.000 C 
BRANCH  23  24
ATOM     24  C   UNL     1       2.846  13.830  18.408  0.00  0.00    +0.000 C 
BRANCH  24  25
ATOM     25  C   UNL     1       3.080  15.324  18.316  0.00  0.00    +0.000 C 
ATOM     26  O   UNL     1       2.216  16.152  18.037  0.00  0.00    +0.000 OA
ATOM     27  N   UNL     1       4.376  15.693  18.591  0.00  0.00    +0.000 N 
ATOM     28  H   UNL     1       5.160  15.063  18.491  0.00  0.00    +0.000 HD
BRANCH  27  29
ATOM     29  O   UNL     1       4.651  17.070  18.408  0.00  0.00    +0.000 OA
ATOM     30  H   UNL     1       4.386  17.224  17.467  0.00  0.00    +0.000 HD
ENDBRANCH  27  29
ENDBRANCH  24  25
ENDBRANCH  23  24
ENDBRANCH  22  23
ENDBRANCH  21  22
ENDBRANCH  20  21
ENDBRANCH  19  20
ENDBRANCH  18  19
ENDBRANCH  17  18
ENDBRANCH   2  17
BRANCH   1  31
ATOM     31  C   UNL     1       1.814   4.781  18.429  0.00  0.00    +0.000 C 
BRANCH  31  32
ATOM     32  C   UNL     1       1.719   4.748  19.960  0.00  0.00    +0.000 C 
BRANCH  32  34
ATOM     33  C   UNL     1       0.786   2.447  19.365  0.00  0.00    +0.000 C 
ATOM     34  C   UNL     1       1.106   3.432  20.491  0.00  0.00    +0.000 C 
ATOM     35  C   UNL     1       2.062   2.779  21.492  0.00  0.00    +0.000 C 
ENDBRANCH  32  34
ENDBRANCH  31  32
ENDBRANCH   1  31
TORSDOF 18
ENDMDL
MODEL 9
REMARK VINA RESULT:      -6.8      3.246      9.448
REMARK  Name = 
REMARK  20 active torsions:
REMARK  status: ('A' for Active; 'I' for Inactive)
REMARK    1  A    between atoms: C_1  and  C_2
REMARK    2  A    between atoms: C_2  and  C_3
REMARK    3  A    between atoms: C_2  and  C_4
REMARK    4  A    between atoms: C_4  and  C_5
REMARK    5  A    between atoms: C_5  and  C_6
REMARK    6  A    between atoms: C_7  and  O_8
REMARK    7  A    between atoms: O_8  and  C_9
REMARK    8  A    between atoms: C_9  and  C_10
REMARK    9  A    between atoms: C_10  and  C_11
REMARK   10  A    between atoms: C_11  and  C_12
REMARK   11  A    between atoms: C_12  and  C_13
REMARK   12  A    between atoms: C_13  and  C_14
REMARK   13  A    between atoms: C_14  and  C_15
REMARK   14  A    between atoms: C_15  and  C_16
REMARK   15  A    between atoms: N_18  and  O_19
REMARK   16  A    between atoms: C_22  and  C_23
REMARK   17  A    between atoms: C_23  and  C_24
REMARK   18  A    between atoms: C_24  and  C_25
REMARK   19  A    between atoms: N_27  and  O_28
REMARK   20  A    between atoms: C_29  and  O_30
REMARK                            x       y       z     vdW  Elec       q    Type
REMARK                         _______ _______ _______ _____ _____    ______ ____
ROOT
ATOM      1  C   UNL     1       2.841   5.395  17.900  0.00  0.00    +0.000 A 
ATOM      2  C   UNL     1       3.083   6.781  17.919  0.00  0.00    +0.000 A 
ATOM      3  C   UNL     1       4.240   7.284  17.308  0.00  0.00    +0.000 A 
ATOM      4  C   UNL     1       5.161   6.448  16.686  0.00  0.00    +0.000 A 
ATOM      5  C   UNL     1       4.993   5.068  16.724  0.00  0.00    +0.000 A 
ATOM      6  C   UNL     1       3.853   4.564  17.366  0.00  0.00    +0.000 A 
ENDROOT
BRANCH   6   7
ATOM      7  O   UNL     1       3.719   3.208  17.525  0.00  0.00    +0.000 OA
ATOM      8  H   UNL     1       4.104   2.981  18.399  0.00  0.00    +0.000 HD
ENDBRANCH   6   7
BRANCH   5   9
ATOM      9  C   UNL     1       6.039   4.193  16.080  0.00  0.00    +0.000 C 
BRANCH   9  10
ATOM     10  C   UNL     1       7.079   4.978  15.280  0.00  0.00    +0.000 C 
BRANCH  10  11
ATOM     11  C   UNL     1       7.124   4.632  13.808  0.00  0.00    +0.000 C 
ATOM     12  O   UNL     1       7.709   5.293  12.950  0.00  0.00    +0.000 OA
ATOM     13  N   UNL     1       6.416   3.500  13.490  0.00  0.00    +0.000 N 
ATOM     14  H   UNL     1       6.040   2.846  14.170  0.00  0.00    +0.000 HD
BRANCH  13  15
ATOM     15  O   UNL     1       6.468   3.069  12.150  0.00  0.00    +0.000 OA
ATOM     16  H   UNL     1       7.431   2.957  11.997  0.00  0.00    +0.000 HD
ENDBRANCH  13  15
ENDBRANCH  10  11
ENDBRANCH   9  10
ENDBRANCH   5   9
BRANCH   2  17
ATOM     17  O   UNL     1       2.159   7.608  18.505  0.00  0.00    +0.000 OA
BRANCH  17  18
ATOM     18  C   UNL     1       1.877   8.847  17.842  0.00  0.00    +0.000 C 
BRANCH  18  19
ATOM     19  C   UNL     1       1.264   9.897  18.772  0.00  0.00    +0.000 C 
BRANCH  19  20
ATOM     20  C   UNL     1      -0.202  10.184  18.461  0.00  0.00    +0.000 C 
BRANCH  20  21
ATOM     21  C   UNL     1      -0.834  10.985  19.599  0.00  0.00    +0.000 C 
BRANCH  21  22
ATOM     22  C   UNL     1      -1.649  12.159  19.067  0.00  0.00    +0.000 C 
BRANCH  22  23
ATOM     23  C   UNL     1      -2.949  12.298  19.854  0.00  0.00    +0.000 C 
BRANCH  23  24
ATOM     24  C   UNL     1      -2.751  13.063  21.158  0.00  0.00    +0.000 C 
BRANCH  24  25
ATOM     25  C   UNL     1      -3.840  12.719  22.154  0.00  0.00    +0.000 C 
ATOM     26  O   UNL     1      -5.038  12.922  21.977  0.00  0.00    +0.000 OA
ATOM     27  N   UNL     1      -3.364  12.132  23.303  0.00  0.00    +0.000 N 
ATOM     28  H   UNL     1      -2.415  12.251  23.630  0.00  0.00    +0.000 HD
BRANCH  27  29
ATOM     29  O   UNL     1      -4.345  11.899  24.297  0.00  0.00    +0.000 OA
ATOM     30  H   UNL     1      -4.688  11.001  24.062  0.00  0.00    +0.000 HD
ENDBRANCH  27  29
ENDBRANCH  24  25
ENDBRANCH  23  24
ENDBRANCH  22  23
ENDBRANCH  21  22
ENDBRANCH  20  21
ENDBRANCH  19  20
ENDBRANCH  18  19
ENDBRANCH  17  18
ENDBRANCH   2  17
BRANCH   1  31
ATOM     31  C   UNL     1       1.604   4.717  18.466  0.00  0.00    +0.000 C 
BRANCH  31  32
ATOM     32  C   UNL     1       1.495   4.580  19.991  0.00  0.00    +0.000 C 
BRANCH  32  34
ATOM     33  C   UNL     1       0.822   2.224  19.274  0.00  0.00    +0.000 C 
ATOM     34  C   UNL     1       0.887   3.227  20.427  0.00  0.00    +0.000 C 
ATOM     35  C   UNL     1       1.704   2.638  21.579  0.00  0.00    +0.000 C 
ENDBRANCH  32  34
ENDBRANCH  31  32
ENDBRANCH   1  31
TORSDOF 18
ENDMDL
