MODEL 1
REMARK VINA RESULT:      -8.3      0.000      0.000
REMARK  Name = 
REMARK  5 active torsions:
REMARK  status: ('A' for Active; 'I' for Inactive)
REMARK    1  A    between atoms: C_1  and  C_2
REMARK    2  A    between atoms: C_5  and  C_6
REMARK    3  A    between atoms: N_8  and  C_9
REMARK    4  A    between atoms: N_8  and  C_16
REMARK    5  A    between atoms: C_9  and  N_10
REMARK                            x       y       z     vdW  Elec       q    Type
REMARK                         _______ _______ _______ _____ _____    ______ ____
ROOT
ATOM      1  C   UNL     1       3.561   4.440  17.415  0.00  0.00    +0.000 C 
ATOM      2  O   UNL     1       2.976   3.382  17.152  0.00  0.00    +0.000 OA
ATOM      3  N   UNL     1       4.790   4.741  16.787  0.00  0.00    +0.000 N 
ENDROOT
BRANCH   1   8
ATOM      4  C   UNL     1       1.593   8.538  21.051  0.00  0.00    +0.000 C 
ATOM      5  C   UNL     1       1.868   7.424  20.080  0.00  0.00    +0.000 A 
ATOM      6  C   UNL     1       2.237   7.724  18.770  0.00  0.00    +0.000 A 
ATOM      7  C   UNL     1       2.700   6.712  17.921  0.00  0.00    +0.000 A 
ATOM      8  C   UNL     1       2.827   5.367  18.352  0.00  0.00    +0.000 A 
ATOM      9  C   UNL     1       2.385   5.073  19.645  0.00  0.00    +0.000 A 
ATOM     10  C   UNL     1       1.899   6.088  20.493  0.00  0.00    +0.000 A 
ENDBRANCH   1   8
BRANCH   3  11
ATOM     11  C   UNL     1       5.800   5.546  17.394  0.00  0.00    +0.000 A 
ATOM     12  C   UNL     1       6.624   5.045  18.413  0.00  0.00    +0.000 A 
ATOM     13  C   UNL     1       7.652   5.835  18.938  0.00  0.00    +0.000 A 
ATOM     14  C   UNL     1       7.848   7.124  18.454  0.00  0.00    +0.000 A 
ATOM     15  F   UNL     1       8.831   7.879  18.963  0.00  0.00    +0.000 F 
ATOM     16  C   UNL     1       7.041   7.635  17.447  0.00  0.00    +0.000 A 
ATOM     17  C   UNL     1       6.021   6.843  16.911  0.00  0.00    +0.000 A 
ENDBRANCH   3  11
BRANCH   3  18
ATOM     18  C   UNL     1       5.327   3.681  15.899  0.00  0.00    +0.000 C 
BRANCH  18  19
ATOM     19  N   UNL     1       5.822   4.101  14.597  0.00  0.00    +0.000 N 
ATOM     20  C   UNL     1       5.289   3.594  13.351  0.00  0.00    +0.000 C 
ATOM     21  C   UNL     1       6.390   3.862  12.317  0.00  0.00    +0.000 C 
ATOM     22  C   UNL     1       7.242   4.939  12.959  0.00  0.00    +0.000 C 
ATOM     23  C   UNL     1       7.116   4.586  14.416  0.00  0.00    +0.000 C 
ATOM     24  O   UNL     1       7.976   4.731  15.258  0.00  0.00    +0.000 OA
ENDBRANCH  18  19
ENDBRANCH   3  18
TORSDOF 4
ENDMDL
MODEL 2
REMARK VINA RESULT:      -8.3      3.417      5.142
REMARK  Name = 
REMARK  5 active torsions:
REMARK  status: ('A' for Active; 'I' for Inactive)
REMARK    1  A    between atoms: C_1  and  C_2
REMARK    2  A    between atoms: C_5  and  C_6
REMARK    3  A    between atoms: N_8  and  C_9
REMARK    4  A    between atoms: N_8  and  C_16
REMARK    5  A    between atoms: C_9  and  N_10
REMARK                            x       y       z     vdW  Elec       q    Type
REMARK                         _______ _______ _______ _____ _____    ______ ____
ROOT
ATOM      1  C   UNL     1       2.626   7.861  18.056  0.00  0.00    +0.000 C 
ATOM      2  O   UNL     1       3.049   8.463  17.061  0.00  0.00    +0.000 OA
ATOM      3  N   UNL     1       3.225   6.644  18.451  0.00  0.00    +0.000 N 
ENDROOT
BRANCH   1   8
ATOM      4  C   UNL     1      -1.170  11.422  20.663  0.00  0.00    +0.000 C 
ATOM      5  C   UNL     1      -0.355  10.329  20.028  0.00  0.00    +0.000 A 
ATOM      6  C   UNL     1      -0.245  10.267  18.640  0.00  0.00    +0.000 A 
ATOM      7  C   UNL     1       0.676   9.394  18.047  0.00  0.00    +0.000 A 
ATOM      8  C   UNL     1       1.529   8.563  18.816  0.00  0.00    +0.000 A 
ATOM      9  C   UNL     1       1.354   8.588  20.203  0.00  0.00    +0.000 A 
ATOM     10  C   UNL     1       0.413   9.450  20.800  0.00  0.00    +0.000 A 
ENDBRANCH   1   8
BRANCH   3  11
ATOM     11  C   UNL     1       2.516   5.612  19.135  0.00  0.00    +0.000 A 
ATOM     12  C   UNL     1       1.704   4.698  18.447  0.00  0.00    +0.000 A 
ATOM     13  C   UNL     1       1.079   3.654  19.136  0.00  0.00    +0.000 A 
ATOM     14  C   UNL     1       1.256   3.531  20.511  0.00  0.00    +0.000 A 
ATOM     15  F   UNL     1       0.653   2.532  21.168  0.00  0.00    +0.000 F 
ATOM     16  C   UNL     1       2.055   4.427  21.207  0.00  0.00    +0.000 A 
ATOM     17  C   UNL     1       2.692   5.463  20.518  0.00  0.00    +0.000 A 
ENDBRANCH   3  11
BRANCH   3  18
ATOM     18  C   UNL     1       4.292   6.139  17.553  0.00  0.00    +0.000 C 
BRANCH  18  19
ATOM     19  N   UNL     1       5.667   6.354  17.977  0.00  0.00    +0.000 N 
ATOM     20  C   UNL     1       6.548   7.309  17.340  0.00  0.00    +0.000 C 
ATOM     21  C   UNL     1       7.962   6.847  17.715  0.00  0.00    +0.000 C 
ATOM     22  C   UNL     1       7.750   5.971  18.934  0.00  0.00    +0.000 C 
ATOM     23  C   UNL     1       6.403   5.371  18.636  0.00  0.00    +0.000 C 
ATOM     24  O   UNL     1       6.038   4.256  18.944  0.00  0.00    +0.000 OA
ENDBRANCH  18  19
ENDBRANCH   3  18
TORSDOF 4
ENDMDL
MODEL 3
REMARK VINA RESULT:      -8.2      0.730      1.272
REMARK  Name = 
REMARK  5 active torsions:
REMARK  status: ('A' for Active; 'I' for Inactive)
REMARK    1  A    between atoms: C_1  and  C_2
REMARK    2  A    between atoms: C_5  and  C_6
REMARK    3  A    between atoms: N_8  and  C_9
REMARK    4  A    between atoms: N_8  and  C_16
REMARK    5  A    between atoms: C_9  and  N_10
REMARK                            x       y       z     vdW  Elec       q    Type
REMARK                         _______ _______ _______ _____ _____    ______ ____
ROOT
ATOM      1  C   UNL     1       3.410   5.407  17.598  0.00  0.00    +0.000 C 
ATOM      2  O   UNL     1       2.640   4.453  17.431  0.00  0.00    +0.000 OA
ATOM      3  N   UNL     1       4.693   5.391  17.007  0.00  0.00    +0.000 N 
ENDROOT
BRANCH   1   8
ATOM      4  C   UNL     1       0.390   9.295  20.706  0.00  0.00    +0.000 C 
ATOM      5  C   UNL     1       1.363   8.426  19.958  0.00  0.00    +0.000 A 
ATOM      6  C   UNL     1       1.755   7.202  20.498  0.00  0.00    +0.000 A 
ATOM      7  C   UNL     1       2.485   6.294  19.723  0.00  0.00    +0.000 A 
ATOM      8  C   UNL     1       2.840   6.566  18.378  0.00  0.00    +0.000 A 
ATOM      9  C   UNL     1       2.501   7.827  17.877  0.00  0.00    +0.000 A 
ATOM     10  C   UNL     1       1.784   8.750  18.664  0.00  0.00    +0.000 A 
ENDBRANCH   1   8
BRANCH   3  11
ATOM     11  C   UNL     1       5.820   6.061  17.569  0.00  0.00    +0.000 A 
ATOM     12  C   UNL     1       6.595   5.473  18.581  0.00  0.00    +0.000 A 
ATOM     13  C   UNL     1       7.735   6.125  19.061  0.00  0.00    +0.000 A 
ATOM     14  C   UNL     1       8.093   7.364  18.541  0.00  0.00    +0.000 A 
ATOM     15  F   UNL     1       9.183   7.987  19.006  0.00  0.00    +0.000 F 
ATOM     16  C   UNL     1       7.336   7.961  17.541  0.00  0.00    +0.000 A 
ATOM     17  C   UNL     1       6.203   7.305  17.050  0.00  0.00    +0.000 A 
ENDBRANCH   3  11
BRANCH   3  18
ATOM     18  C   UNL     1       5.042   4.145  16.281  0.00  0.00    +0.000 C 
BRANCH  18  19
ATOM     19  N   UNL     1       5.609   4.297  14.949  0.00  0.00    +0.000 N 
ATOM     20  C   UNL     1       4.984   3.760  13.761  0.00  0.00    +0.000 C 
ATOM     21  C   UNL     1       6.115   3.675  12.728  0.00  0.00    +0.000 C 
ATOM     22  C   UNL     1       7.167   4.630  13.256  0.00  0.00    +0.000 C 
ATOM     23  C   UNL     1       6.974   4.487  14.742  0.00  0.00    +0.000 C 
ATOM     24  O   UNL     1       7.847   4.559  15.581  0.00  0.00    +0.000 OA
ENDBRANCH  18  19
ENDBRANCH   3  18
TORSDOF 4
ENDMDL
MODEL 4
REMARK VINA RESULT:      -8.2      3.415      5.103
REMARK  Name = 
REMARK  5 active torsions:
REMARK  status: ('A' for Active; 'I' for Inactive)
REMARK    1  A    between atoms: C_1  and  C_2
REMARK    2  A    between atoms: C_5  and  C_6
REMARK    3  A    between atoms: N_8  and  C_9
REMARK    4  A    between atoms: N_8  and  C_16
REMARK    5  A    between atoms: C_9  and  N_10
REMARK                            x       y       z     vdW  Elec       q    Type
REMARK                         _______ _______ _______ _____ _____    ______ ____
ROOT
ATOM      1  C   UNL     1       2.830   7.787  17.913  0.00  0.00    +0.000 C 
ATOM      2  O   UNL     1       3.303   8.429  16.967  0.00  0.00    +0.000 OA
ATOM      3  N   UNL     1       3.356   6.516  18.236  0.00  0.00    +0.000 N 
ENDROOT
BRANCH   1   8
ATOM      4  C   UNL     1      -0.871  11.371  20.623  0.00  0.00    +0.000 C 
ATOM      5  C   UNL     1      -0.082  10.275  19.963  0.00  0.00    +0.000 A 
ATOM      6  C   UNL     1       0.000  10.222  18.573  0.00  0.00    +0.000 A 
ATOM      7  C   UNL     1       0.898   9.343  17.955  0.00  0.00    +0.000 A 
ATOM      8  C   UNL     1       1.756   8.496  18.700  0.00  0.00    +0.000 A 
ATOM      9  C   UNL     1       1.609   8.512  20.090  0.00  0.00    +0.000 A 
ATOM     10  C   UNL     1       0.691   9.380  20.712  0.00  0.00    +0.000 A 
ENDBRANCH   1   8
BRANCH   3  11
ATOM     11  C   UNL     1       2.581   5.481  18.839  0.00  0.00    +0.000 A 
ATOM     12  C   UNL     1       1.846   4.569  18.066  0.00  0.00    +0.000 A 
ATOM     13  C   UNL     1       1.154   3.522  18.683  0.00  0.00    +0.000 A 
ATOM     14  C   UNL     1       1.187   3.395  20.068  0.00  0.00    +0.000 A 
ATOM     15  F   UNL     1       0.519   2.393  20.655  0.00  0.00    +0.000 F 
ATOM     16  C   UNL     1       1.908   4.289  20.847  0.00  0.00    +0.000 A 
ATOM     17  C   UNL     1       2.611   5.328  20.232  0.00  0.00    +0.000 A 
ENDBRANCH   3  11
BRANCH   3  18
ATOM     18  C   UNL     1       4.412   6.014  17.323  0.00  0.00    +0.000 C 
BRANCH  18  19
ATOM     19  N   UNL     1       5.753   5.890  17.873  0.00  0.00    +0.000 N 
ATOM     20  C   UNL     1       6.044   5.149  19.081  0.00  0.00    +0.000 C 
ATOM     21  C   UNL     1       7.391   5.702  19.565  0.00  0.00    +0.000 C 
ATOM     22  C   UNL     1       7.985   6.352  18.331  0.00  0.00    +0.000 C 
ATOM     23  C   UNL     1       6.746   6.837  17.627  0.00  0.00    +0.000 C 
ATOM     24  O   UNL     1       6.659   7.844  16.957  0.00  0.00    +0.000 OA
ENDBRANCH  18  19
ENDBRANCH   3  18
TORSDOF 4
ENDMDL
MODEL 5
REMARK VINA RESULT:      -8.1      3.423      5.048
REMARK  Name = 
REMARK  5 active torsions:
REMARK  status: ('A' for Active; 'I' for Inactive)
REMARK    1  A    between atoms: C_1  and  C_2
REMARK    2  A    between atoms: C_5  and  C_6
REMARK    3  A    between atoms: N_8  and  C_9
REMARK    4  A    between atoms: N_8  and  C_16
REMARK    5  A    between atoms: C_9  and  N_10
REMARK                            x       y       z     vdW  Elec       q    Type
REMARK                         _______ _______ _______ _____ _____    ______ ____
ROOT
ATOM      1  C   UNL     1       2.941   7.648  17.935  0.00  0.00    +0.000 C 
ATOM      2  O   UNL     1       3.413   8.278  16.981  0.00  0.00    +0.000 OA
ATOM      3  N   UNL     1       3.487   6.395  18.292  0.00  0.00    +0.000 N 
ENDROOT
BRANCH   1   8
ATOM      4  C   UNL     1      -0.804  11.220  20.601  0.00  0.00    +0.000 C 
ATOM      5  C   UNL     1      -0.010  10.130  19.935  0.00  0.00    +0.000 A 
ATOM      6  C   UNL     1       0.148  10.136  18.551  0.00  0.00    +0.000 A 
ATOM      7  C   UNL     1       1.054   9.259  17.943  0.00  0.00    +0.000 A 
ATOM      8  C   UNL     1       1.845   8.354  18.694  0.00  0.00    +0.000 A 
ATOM      9  C   UNL     1       1.621   8.313  20.074  0.00  0.00    +0.000 A 
ATOM     10  C   UNL     1       0.694   9.181  20.684  0.00  0.00    +0.000 A 
ENDBRANCH   1   8
BRANCH   3  11
ATOM     11  C   UNL     1       2.724   5.359  18.909  0.00  0.00    +0.000 A 
ATOM     12  C   UNL     1       2.735   5.167  20.299  0.00  0.00    +0.000 A 
ATOM     13  C   UNL     1       1.921   4.189  20.880  0.00  0.00    +0.000 A 
ATOM     14  C   UNL     1       1.109   3.398  20.074  0.00  0.00    +0.000 A 
ATOM     15  F   UNL     1       0.335   2.460  20.634  0.00  0.00    +0.000 F 
ATOM     16  C   UNL     1       1.088   3.574  18.697  0.00  0.00    +0.000 A 
ATOM     17  C   UNL     1       1.890   4.560  18.115  0.00  0.00    +0.000 A 
ENDBRANCH   3  11
BRANCH   3  18
ATOM     18  C   UNL     1       4.563   5.894  17.403  0.00  0.00    +0.000 C 
BRANCH  18  19
ATOM     19  N   UNL     1       5.898   5.800  17.973  0.00  0.00    +0.000 N 
ATOM     20  C   UNL     1       6.189   5.062  19.183  0.00  0.00    +0.000 C 
ATOM     21  C   UNL     1       7.514   5.646  19.689  0.00  0.00    +0.000 C 
ATOM     22  C   UNL     1       8.111   6.314  18.466  0.00  0.00    +0.000 C 
ATOM     23  C   UNL     1       6.872   6.771  17.745  0.00  0.00    +0.000 C 
ATOM     24  O   UNL     1       6.770   7.778  17.076  0.00  0.00    +0.000 OA
ENDBRANCH  18  19
ENDBRANCH   3  18
TORSDOF 4
ENDMDL
MODEL 6
REMARK VINA RESULT:      -8.1      3.133      4.868
REMARK  Name = 
REMARK  5 active torsions:
REMARK  status: ('A' for Active; 'I' for Inactive)
REMARK    1  A    between atoms: C_1  and  C_2
REMARK    2  A    between atoms: C_5  and  C_6
REMARK    3  A    between atoms: N_8  and  C_9
REMARK    4  A    between atoms: N_8  and  C_16
REMARK    5  A    between atoms: C_9  and  N_10
REMARK                            x       y       z     vdW  Elec       q    Type
REMARK                         _______ _______ _______ _____ _____    ______ ____
ROOT
ATOM      1  C   UNL     1       3.058   6.897  17.980  0.00  0.00    +0.000 C 
ATOM      2  O   UNL     1       3.490   7.308  16.895  0.00  0.00    +0.000 OA
ATOM      3  N   UNL     1       3.500   5.656  18.490  0.00  0.00    +0.000 N 
ENDROOT
BRANCH   1   8
ATOM      4  C   UNL     1       0.174  11.255  20.545  0.00  0.00    +0.000 C 
ATOM      5  C   UNL     1       0.709  10.008  19.897  0.00  0.00    +0.000 A 
ATOM      6  C   UNL     1       0.920   9.981  18.520  0.00  0.00    +0.000 A 
ATOM      7  C   UNL     1       1.613   8.914  17.936  0.00  0.00    +0.000 A 
ATOM      8  C   UNL     1       2.133   7.843  18.705  0.00  0.00    +0.000 A 
ATOM      9  C   UNL     1       1.851   7.852  20.075  0.00  0.00    +0.000 A 
ATOM     10  C   UNL     1       1.135   8.915  20.660  0.00  0.00    +0.000 A 
ENDBRANCH   1   8
BRANCH   3  11
ATOM     11  C   UNL     1       2.700   4.832  19.336  0.00  0.00    +0.000 A 
ATOM     12  C   UNL     1       1.615   4.098  18.834  0.00  0.00    +0.000 A 
ATOM     13  C   UNL     1       0.894   3.243  19.674  0.00  0.00    +0.000 A 
ATOM     14  C   UNL     1       1.251   3.131  21.014  0.00  0.00    +0.000 A 
ATOM     15  F   UNL     1       0.556   2.314  21.817  0.00  0.00    +0.000 F 
ATOM     16  C   UNL     1       2.321   3.850  21.528  0.00  0.00    +0.000 A 
ATOM     17  C   UNL     1       3.051   4.695  20.687  0.00  0.00    +0.000 A 
ENDBRANCH   3  11
BRANCH   3  18
ATOM     18  C   UNL     1       4.412   4.893  17.604  0.00  0.00    +0.000 C 
BRANCH  18  19
ATOM     19  N   UNL     1       5.808   4.815  18.008  0.00  0.00    +0.000 N 
ATOM     20  C   UNL     1       6.332   5.497  19.170  0.00  0.00    +0.000 C 
ATOM     21  C   UNL     1       7.844   5.586  18.924  0.00  0.00    +0.000 C 
ATOM     22  C   UNL     1       8.110   4.513  17.887  0.00  0.00    +0.000 C 
ATOM     23  C   UNL     1       6.829   4.541  17.098  0.00  0.00    +0.000 C 
ATOM     24  O   UNL     1       6.723   4.333  15.908  0.00  0.00    +0.000 OA
ENDBRANCH  18  19
ENDBRANCH   3  18
TORSDOF 4
ENDMDL
MODEL 7
REMARK VINA RESULT:      -8.1      3.398      5.099
REMARK  Name = 
REMARK  5 active torsions:
REMARK  status: ('A' for Active; 'I' for Inactive)
REMARK    1  A    between atoms: C_1  and  C_2
REMARK    2  A    between atoms: C_5  and  C_6
REMARK    3  A    between atoms: N_8  and  C_9
REMARK    4  A    between atoms: N_8  and  C_16
REMARK    5  A    between atoms: C_9  and  N_10
REMARK                            x       y       z     vdW  Elec       q    Type
REMARK                         _______ _______ _______ _____ _____    ______ ____
ROOT
ATOM      1  C   UNL     1       2.443   7.662  18.664  0.00  0.00    +0.000 C 
ATOM      2  O   UNL     1       2.686   8.338  17.657  0.00  0.00    +0.000 OA
ATOM      3  N   UNL     1       3.107   6.431  18.864  0.00  0.00    +0.000 N 
ENDROOT
BRANCH   1   8
ATOM      4  C   UNL     1      -0.682  10.918  22.341  0.00  0.00    +0.000 C 
ATOM      5  C   UNL     1      -0.066   9.928  21.393  0.00  0.00    +0.000 A 
ATOM      6  C   UNL     1       0.009  10.226  20.033  0.00  0.00    +0.000 A 
ATOM      7  C   UNL     1       0.765   9.417  19.177  0.00  0.00    +0.000 A 
ATOM      8  C   UNL     1       1.486   8.291  19.647  0.00  0.00    +0.000 A 
ATOM      9  C   UNL     1       1.342   7.966  20.999  0.00  0.00    +0.000 A 
ATOM     10  C   UNL     1       0.564   8.768  21.857  0.00  0.00    +0.000 A 
ENDBRANCH   1   8
BRANCH   3  11
ATOM     11  C   UNL     1       2.531   5.342  19.584  0.00  0.00    +0.000 A 
ATOM     12  C   UNL     1       2.954   5.013  20.881  0.00  0.00    +0.000 A 
ATOM     13  C   UNL     1       2.321   3.985  21.587  0.00  0.00    +0.000 A 
ATOM     14  C   UNL     1       1.278   3.281  20.995  0.00  0.00    +0.000 A 
ATOM     15  F   UNL     1       0.677   2.295  21.673  0.00  0.00    +0.000 F 
ATOM     16  C   UNL     1       0.848   3.593  19.712  0.00  0.00    +0.000 A 
ATOM     17  C   UNL     1       1.470   4.629  19.009  0.00  0.00    +0.000 A 
ENDBRANCH   3  11
BRANCH   3  18
ATOM     18  C   UNL     1       4.008   6.009  17.764  0.00  0.00    +0.000 C 
BRANCH  18  19
ATOM     19  N   UNL     1       5.433   6.232  17.958  0.00  0.00    +0.000 N 
ATOM     20  C   UNL     1       6.214   7.111  17.117  0.00  0.00    +0.000 C 
ATOM     21  C   UNL     1       7.666   6.655  17.314  0.00  0.00    +0.000 C 
ATOM     22  C   UNL     1       7.634   5.888  18.621  0.00  0.00    +0.000 C 
ATOM     23  C   UNL     1       6.253   5.292  18.581  0.00  0.00    +0.000 C 
ATOM     24  O   UNL     1       5.931   4.214  19.035  0.00  0.00    +0.000 OA
ENDBRANCH  18  19
ENDBRANCH   3  18
TORSDOF 4
ENDMDL
MODEL 8
REMARK VINA RESULT:      -8.1      2.855      4.657
REMARK  Name = 
REMARK  5 active torsions:
REMARK  status: ('A' for Active; 'I' for Inactive)
REMARK    1  A    between atoms: C_1  and  C_2
REMARK    2  A    between atoms: C_5  and  C_6
REMARK    3  A    between atoms: N_8  and  C_9
REMARK    4  A    between atoms: N_8  and  C_16
REMARK    5  A    between atoms: C_9  and  N_10
REMARK                            x       y       z     vdW  Elec       q    Type
REMARK                         _______ _______ _______ _____ _____    ______ ____
ROOT
ATOM      1  C   UNL     1       2.516   8.152  18.240  0.00  0.00    +0.000 C 
ATOM      2  O   UNL     1       2.677   9.021  17.375  0.00  0.00    +0.000 OA
ATOM      3  N   UNL     1       3.255   6.950  18.179  0.00  0.00    +0.000 N 
ENDROOT
BRANCH   1   8
ATOM      4  C   UNL     1      -0.697  10.488  22.496  0.00  0.00    +0.000 C 
ATOM      5  C   UNL     1      -0.035   9.710  21.393  0.00  0.00    +0.000 A 
ATOM      6  C   UNL     1      -0.117  10.167  20.078  0.00  0.00    +0.000 A 
ATOM      7  C   UNL     1       0.666   9.578  19.079  0.00  0.00    +0.000 A 
ATOM      8  C   UNL     1       1.570   8.521  19.356  0.00  0.00    +0.000 A 
ATOM      9  C   UNL     1       1.587   8.029  20.665  0.00  0.00    +0.000 A 
ATOM     10  C   UNL     1       0.783   8.608  21.667  0.00  0.00    +0.000 A 
ENDBRANCH   1   8
BRANCH   3  11
ATOM     11  C   UNL     1       2.773   5.710  18.694  0.00  0.00    +0.000 A 
ATOM     12  C   UNL     1       3.134   5.255  19.972  0.00  0.00    +0.000 A 
ATOM     13  C   UNL     1       2.588   4.071  20.477  0.00  0.00    +0.000 A 
ATOM     14  C   UNL     1       1.694   3.337  19.703  0.00  0.00    +0.000 A 
ATOM     15  F   UNL     1       1.177   2.201  20.189  0.00  0.00    +0.000 F 
ATOM     16  C   UNL     1       1.328   3.772  18.436  0.00  0.00    +0.000 A 
ATOM     17  C   UNL     1       1.862   4.963  17.935  0.00  0.00    +0.000 A 
ENDBRANCH   3  11
BRANCH   3  18
ATOM     18  C   UNL     1       4.129   6.801  16.990  0.00  0.00    +0.000 C 
BRANCH  18  19
ATOM     19  N   UNL     1       5.289   5.933  17.129  0.00  0.00    +0.000 N 
ATOM     20  C   UNL     1       6.252   6.072  18.200  0.00  0.00    +0.000 C 
ATOM     21  C   UNL     1       7.513   5.365  17.686  0.00  0.00    +0.000 C 
ATOM     22  C   UNL     1       7.002   4.460  16.583  0.00  0.00    +0.000 C 
ATOM     23  C   UNL     1       5.856   5.272  16.042  0.00  0.00    +0.000 C 
ATOM     24  O   UNL     1       5.495   5.307  14.884  0.00  0.00    +0.000 OA
ENDBRANCH  18  19
ENDBRANCH   3  18
TORSDOF 4
ENDMDL
MODEL 9
REMARK VINA RESULT:      -8.0      0.876      1.332
REMARK  Name = 
REMARK  5 active torsions:
REMARK  status: ('A' for Active; 'I' for Inactive)
REMARK    1  A    between atoms: C_1  and  C_2
REMARK    2  A    between atoms: C_5  and  C_6
REMARK    3  A    between atoms: N_8  and  C_9
REMARK    4  A    between atoms: N_8  and  C_16
REMARK    5  A    between atoms: C_9  and  N_10
REMARK                            x       y       z     vdW  Elec       q    Type
REMARK                         _______ _______ _______ _____ _____    ______ ____
ROOT
ATOM      1  C   UNL     1       4.578   4.332  17.061  0.00  0.00    +0.000 C 
ATOM      2  O   UNL     1       4.182   3.195  16.774  0.00  0.00    +0.000 OA
ATOM      3  N   UNL     1       5.769   4.830  16.487  0.00  0.00    +0.000 N 
ENDROOT
BRANCH   1   8
ATOM      4  C   UNL     1       1.800   8.068  20.556  0.00  0.00    +0.000 C 
ATOM      5  C   UNL     1       2.300   7.002  19.621  0.00  0.00    +0.000 A 
ATOM      6  C   UNL     1       2.619   7.330  18.304  0.00  0.00    +0.000 A 
ATOM      7  C   UNL     1       3.282   6.404  17.491  0.00  0.00    +0.000 A 
ATOM      8  C   UNL     1       3.664   5.124  17.963  0.00  0.00    +0.000 A 
ATOM      9  C   UNL     1       3.273   4.786  19.263  0.00  0.00    +0.000 A 
ATOM     10  C   UNL     1       2.586   5.710  20.075  0.00  0.00    +0.000 A 
ENDBRANCH   1   8
BRANCH   3  11
ATOM     11  C   UNL     1       6.609   5.782  17.136  0.00  0.00    +0.000 A 
ATOM     12  C   UNL     1       6.689   7.112  16.696  0.00  0.00    +0.000 A 
ATOM     13  C   UNL     1       7.467   8.039  17.398  0.00  0.00    +0.000 A 
ATOM     14  C   UNL     1       8.172   7.635  18.527  0.00  0.00    +0.000 A 
ATOM     15  F   UNL     1       8.919   8.525  19.193  0.00  0.00    +0.000 F 
ATOM     16  C   UNL     1       8.105   6.322  18.975  0.00  0.00    +0.000 A 
ATOM     17  C   UNL     1       7.317   5.397  18.283  0.00  0.00    +0.000 A 
ENDBRANCH   3  11
BRANCH   3  18
ATOM     18  C   UNL     1       6.507   3.874  15.625  0.00  0.00    +0.000 C 
BRANCH  18  19
ATOM     19  N   UNL     1       6.486   4.129  14.192  0.00  0.00    +0.000 N 
ATOM     20  C   UNL     1       5.923   3.201  13.235  0.00  0.00    +0.000 C 
ATOM     21  C   UNL     1       6.564   3.585  11.895  0.00  0.00    +0.000 C 
ATOM     22  C   UNL     1       7.050   5.004  12.114  0.00  0.00    +0.000 C 
ATOM     23  C   UNL     1       7.409   4.970  13.575  0.00  0.00    +0.000 C 
ATOM     24  O   UNL     1       8.313   5.588  14.098  0.00  0.00    +0.000 OA
ENDBRANCH  18  19
ENDBRANCH   3  18
TORSDOF 4
ENDMDL
