MODEL 1
REMARK VINA RESULT:      -7.9      0.000      0.000
REMARK  Name = 
REMARK  5 active torsions:
REMARK  status: ('A' for Active; 'I' for Inactive)
REMARK    1  A    between atoms: C_1  and  C_2
REMARK    2  A    between atoms: C_4  and  N_5
REMARK    3  A    between atoms: N_9  and  C_10
REMARK    4  A    between atoms: C_13  and  O_14
REMARK    5  A    between atoms: O_14  and  C_15
REMARK                            x       y       z     vdW  Elec       q    Type
REMARK                         _______ _______ _______ _____ _____    ______ ____
ROOT
ATOM      1  C   UNL     1       4.527   4.216  16.877  0.00  0.00    +0.000 A 
ATOM      2  C   UNL     1       4.187   2.898  17.205  0.00  0.00    +0.000 A 
ATOM      3  C   UNL     1       3.101   2.650  18.051  0.00  0.00    +0.000 A 
ATOM      4  C   UNL     1       2.333   3.699  18.561  0.00  0.00    +0.000 A 
ATOM      5  C   UNL     1       2.621   5.002  18.165  0.00  0.00    +0.000 A 
ATOM      6  C   UNL     1       3.725   5.263  17.340  0.00  0.00    +0.000 A 
ENDROOT
BRANCH   1  12
ATOM      7  C   UNL     1       7.464   4.916  17.782  0.00  0.00    +0.000 C 
ATOM      8  C   UNL     1       6.928   4.886  16.392  0.00  0.00    +0.000 A 
ATOM      9  N   UNL     1       7.671   5.118  15.324  0.00  0.00    +0.000 NA
ATOM     10  C   UNL     1       6.884   4.778  14.251  0.00  0.00    +0.000 A 
ATOM     11  C   UNL     1       5.651   4.334  14.665  0.00  0.00    +0.000 A 
ATOM     12  N   UNL     1       5.645   4.472  16.038  0.00  0.00    +0.000 N 
BRANCH  10  13
ATOM     13  N   UNL     1       7.368   4.897  12.892  0.00  0.00    +0.000 N 
ATOM     14  O   UNL     1       6.969   4.044  12.086  0.00  0.00    +0.000 OA
ATOM     15  O   UNL     1       8.140   5.831  12.631  0.00  0.00    +0.000 OA
ENDBRANCH  10  13
ENDBRANCH   1  12
BRANCH   4  16
ATOM     16  O   UNL     1       1.312   3.315  19.373  0.00  0.00    +0.000 OA
BRANCH  16  17
ATOM     17  C   UNL     1       1.303   3.720  20.736  0.00  0.00    +0.000 C 
ATOM     18  F   UNL     1       2.529   3.885  21.275  0.00  0.00    +0.000 F 
ATOM     19  F   UNL     1       0.617   4.877  20.854  0.00  0.00    +0.000 F 
ATOM     20  F   UNL     1       0.663   2.774  21.459  0.00  0.00    +0.000 F 
ENDBRANCH  16  17
ENDBRANCH   4  16
TORSDOF 4
ENDMDL
MODEL 2
REMARK VINA RESULT:      -7.8      1.338      1.929
REMARK  Name = 
REMARK  5 active torsions:
REMARK  status: ('A' for Active; 'I' for Inactive)
REMARK    1  A    between atoms: C_1  and  C_2
REMARK    2  A    between atoms: C_4  and  N_5
REMARK    3  A    between atoms: N_9  and  C_10
REMARK    4  A    between atoms: C_13  and  O_14
REMARK    5  A    between atoms: O_14  and  C_15
REMARK                            x       y       z     vdW  Elec       q    Type
REMARK                         _______ _______ _______ _____ _____    ______ ____
ROOT
ATOM      1  C   UNL     1       4.233   3.983  17.478  0.00  0.00    +0.000 A 
ATOM      2  C   UNL     1       4.808   3.712  18.727  0.00  0.00    +0.000 A 
ATOM      3  C   UNL     1       4.047   3.088  19.720  0.00  0.00    +0.000 A 
ATOM      4  C   UNL     1       2.723   2.710  19.484  0.00  0.00    +0.000 A 
ATOM      5  C   UNL     1       2.183   2.904  18.216  0.00  0.00    +0.000 A 
ATOM      6  C   UNL     1       2.928   3.555  17.220  0.00  0.00    +0.000 A 
ENDROOT
BRANCH   1  12
ATOM      7  C   UNL     1       4.584   7.090  17.083  0.00  0.00    +0.000 C 
ATOM      8  C   UNL     1       5.092   6.003  16.201  0.00  0.00    +0.000 A 
ATOM      9  N   UNL     1       5.822   6.227  15.122  0.00  0.00    +0.000 NA
ATOM     10  C   UNL     1       6.273   4.992  14.724  0.00  0.00    +0.000 A 
ATOM     11  C   UNL     1       5.818   4.005  15.566  0.00  0.00    +0.000 A 
ATOM     12  N   UNL     1       4.995   4.639  16.475  0.00  0.00    +0.000 N 
BRANCH  10  13
ATOM     13  N   UNL     1       7.119   4.837  13.561  0.00  0.00    +0.000 N 
ATOM     14  O   UNL     1       8.112   5.577  13.496  0.00  0.00    +0.000 OA
ATOM     15  O   UNL     1       6.798   3.987  12.718  0.00  0.00    +0.000 OA
ENDBRANCH  10  13
ENDBRANCH   1  12
BRANCH   4  16
ATOM     16  O   UNL     1       2.102   2.118  20.538  0.00  0.00    +0.000 OA
BRANCH  16  17
ATOM     17  C   UNL     1       1.467   2.922  21.525  0.00  0.00    +0.000 C 
ATOM     18  F   UNL     1       0.704   2.232  22.398  0.00  0.00    +0.000 F 
ATOM     19  F   UNL     1       2.404   3.608  22.213  0.00  0.00    +0.000 F 
ATOM     20  F   UNL     1       0.667   3.814  20.899  0.00  0.00    +0.000 F 
ENDBRANCH  16  17
ENDBRANCH   4  16
TORSDOF 4
ENDMDL
MODEL 3
REMARK VINA RESULT:      -7.8      0.126      1.542
REMARK  Name = 
REMARK  5 active torsions:
REMARK  status: ('A' for Active; 'I' for Inactive)
REMARK    1  A    between atoms: C_1  and  C_2
REMARK    2  A    between atoms: C_4  and  N_5
REMARK    3  A    between atoms: N_9  and  C_10
REMARK    4  A    between atoms: C_13  and  O_14
REMARK    5  A    between atoms: O_14  and  C_15
REMARK                            x       y       z     vdW  Elec       q    Type
REMARK                         _______ _______ _______ _____ _____    ______ ____
ROOT
ATOM      1  C   UNL     1       4.524   4.173  16.809  0.00  0.00    +0.000 A 
ATOM      2  C   UNL     1       3.750   5.224  17.315  0.00  0.00    +0.000 A 
ATOM      3  C   UNL     1       2.633   4.945  18.108  0.00  0.00    +0.000 A 
ATOM      4  C   UNL     1       2.283   3.629  18.422  0.00  0.00    +0.000 A 
ATOM      5  C   UNL     1       3.103   2.592  17.988  0.00  0.00    +0.000 A 
ATOM      6  C   UNL     1       4.210   2.859  17.168  0.00  0.00    +0.000 A 
ENDROOT
BRANCH   1  12
ATOM      7  C   UNL     1       7.440   4.923  17.744  0.00  0.00    +0.000 C 
ATOM      8  C   UNL     1       6.917   4.888  16.349  0.00  0.00    +0.000 A 
ATOM      9  N   UNL     1       7.666   5.138  15.288  0.00  0.00    +0.000 NA
ATOM     10  C   UNL     1       6.895   4.787  14.207  0.00  0.00    +0.000 A 
ATOM     11  C   UNL     1       5.667   4.319  14.608  0.00  0.00    +0.000 A 
ATOM     12  N   UNL     1       5.645   4.452  15.982  0.00  0.00    +0.000 N 
BRANCH  10  13
ATOM     13  N   UNL     1       7.389   4.920  12.854  0.00  0.00    +0.000 N 
ATOM     14  O   UNL     1       8.173   5.857  12.640  0.00  0.00    +0.000 OA
ATOM     15  O   UNL     1       7.000   4.100  12.011  0.00  0.00    +0.000 OA
ENDBRANCH  10  13
ENDBRANCH   1  12
BRANCH   4  16
ATOM     16  O   UNL     1       1.173   3.503  19.196  0.00  0.00    +0.000 OA
BRANCH  16  17
ATOM     17  C   UNL     1       1.251   3.772  20.591  0.00  0.00    +0.000 C 
ATOM     18  F   UNL     1       0.660   2.843  21.370  0.00  0.00    +0.000 F 
ATOM     19  F   UNL     1       2.546   3.884  20.952  0.00  0.00    +0.000 F 
ATOM     20  F   UNL     1       0.642   4.955  20.832  0.00  0.00    +0.000 F 
ENDBRANCH  16  17
ENDBRANCH   4  16
TORSDOF 4
ENDMDL
MODEL 4
REMARK VINA RESULT:      -7.8      1.299      1.456
REMARK  Name = 
REMARK  5 active torsions:
REMARK  status: ('A' for Active; 'I' for Inactive)
REMARK    1  A    between atoms: C_1  and  C_2
REMARK    2  A    between atoms: C_4  and  N_5
REMARK    3  A    between atoms: N_9  and  C_10
REMARK    4  A    between atoms: C_13  and  O_14
REMARK    5  A    between atoms: O_14  and  C_15
REMARK                            x       y       z     vdW  Elec       q    Type
REMARK                         _______ _______ _______ _____ _____    ______ ____
ROOT
ATOM      1  C   UNL     1       4.943   4.744  17.853  0.00  0.00    +0.000 A 
ATOM      2  C   UNL     1       5.153   3.668  18.724  0.00  0.00    +0.000 A 
ATOM      3  C   UNL     1       4.260   3.441  19.775  0.00  0.00    +0.000 A 
ATOM      4  C   UNL     1       3.144   4.260  19.963  0.00  0.00    +0.000 A 
ATOM      5  C   UNL     1       2.892   5.276  19.045  0.00  0.00    +0.000 A 
ATOM      6  C   UNL     1       3.797   5.531  18.004  0.00  0.00    +0.000 A 
ENDROOT
BRANCH   1  12
ATOM      7  C   UNL     1       7.562   6.493  17.986  0.00  0.00    +0.000 C 
ATOM      8  C   UNL     1       6.970   5.840  16.786  0.00  0.00    +0.000 A 
ATOM      9  N   UNL     1       7.527   5.886  15.587  0.00  0.00    +0.000 NA
ATOM     10  C   UNL     1       6.816   4.994  14.821  0.00  0.00    +0.000 A 
ATOM     11  C   UNL     1       5.818   4.399  15.554  0.00  0.00    +0.000 A 
ATOM     12  N   UNL     1       5.863   4.994  16.799  0.00  0.00    +0.000 N 
BRANCH  10  13
ATOM     13  N   UNL     1       7.144   4.767  13.430  0.00  0.00    +0.000 N 
ATOM     14  O   UNL     1       6.562   3.826  12.871  0.00  0.00    +0.000 OA
ATOM     15  O   UNL     1       7.975   5.518  12.900  0.00  0.00    +0.000 OA
ENDBRANCH  10  13
ENDBRANCH   1  12
BRANCH   4  16
ATOM     16  O   UNL     1       2.363   3.927  21.025  0.00  0.00    +0.000 OA
BRANCH  16  17
ATOM     17  C   UNL     1       1.260   3.049  20.842  0.00  0.00    +0.000 C 
ATOM     18  F   UNL     1       1.506   2.010  20.017  0.00  0.00    +0.000 F 
ATOM     19  F   UNL     1       0.867   2.570  22.041  0.00  0.00    +0.000 F 
ATOM     20  F   UNL     1       0.235   3.756  20.314  0.00  0.00    +0.000 F 
ENDBRANCH  16  17
ENDBRANCH   4  16
TORSDOF 4
ENDMDL
MODEL 5
REMARK VINA RESULT:      -7.8      0.982      1.146
REMARK  Name = 
REMARK  5 active torsions:
REMARK  status: ('A' for Active; 'I' for Inactive)
REMARK    1  A    between atoms: C_1  and  C_2
REMARK    2  A    between atoms: C_4  and  N_5
REMARK    3  A    between atoms: N_9  and  C_10
REMARK    4  A    between atoms: C_13  and  O_14
REMARK    5  A    between atoms: O_14  and  C_15
REMARK                            x       y       z     vdW  Elec       q    Type
REMARK                         _______ _______ _______ _____ _____    ______ ____
ROOT
ATOM      1  C   UNL     1       4.907   4.046  17.400  0.00  0.00    +0.000 A 
ATOM      2  C   UNL     1       3.558   3.911  17.049  0.00  0.00    +0.000 A 
ATOM      3  C   UNL     1       2.648   3.398  17.977  0.00  0.00    +0.000 A 
ATOM      4  C   UNL     1       3.057   3.032  19.262  0.00  0.00    +0.000 A 
ATOM      5  C   UNL     1       4.381   3.247  19.634  0.00  0.00    +0.000 A 
ATOM      6  C   UNL     1       5.309   3.735  18.702  0.00  0.00    +0.000 A 
ENDROOT
BRANCH   1  12
ATOM      7  C   UNL     1       7.194   6.157  17.904  0.00  0.00    +0.000 C 
ATOM      8  C   UNL     1       6.794   5.549  16.604  0.00  0.00    +0.000 A 
ATOM      9  N   UNL     1       7.411   5.806  15.463  0.00  0.00    +0.000 NA
ATOM     10  C   UNL     1       6.906   4.900  14.563  0.00  0.00    +0.000 A 
ATOM     11  C   UNL     1       5.973   4.083  15.156  0.00  0.00    +0.000 A 
ATOM     12  N   UNL     1       5.840   4.544  16.451  0.00  0.00    +0.000 N 
BRANCH  10  13
ATOM     13  N   UNL     1       7.355   4.873  13.188  0.00  0.00    +0.000 N 
ATOM     14  O   UNL     1       6.857   4.000  12.460  0.00  0.00    +0.000 OA
ATOM     15  O   UNL     1       8.196   5.711  12.836  0.00  0.00    +0.000 OA
ENDBRANCH  10  13
ENDBRANCH   1  12
BRANCH   4  16
ATOM     16  O   UNL     1       2.070   2.543  20.058  0.00  0.00    +0.000 OA
BRANCH  16  17
ATOM     17  C   UNL     1       1.434   3.400  20.999  0.00  0.00    +0.000 C 
ATOM     18  F   UNL     1       2.263   4.279  21.600  0.00  0.00    +0.000 F 
ATOM     19  F   UNL     1       0.445   4.083  20.385  0.00  0.00    +0.000 F 
ATOM     20  F   UNL     1       0.880   2.634  21.967  0.00  0.00    +0.000 F 
ENDBRANCH  16  17
ENDBRANCH   4  16
TORSDOF 4
ENDMDL
MODEL 6
REMARK VINA RESULT:      -7.8      0.659      1.330
REMARK  Name = 
REMARK  5 active torsions:
REMARK  status: ('A' for Active; 'I' for Inactive)
REMARK    1  A    between atoms: C_1  and  C_2
REMARK    2  A    between atoms: C_4  and  N_5
REMARK    3  A    between atoms: N_9  and  C_10
REMARK    4  A    between atoms: C_13  and  O_14
REMARK    5  A    between atoms: O_14  and  C_15
REMARK                            x       y       z     vdW  Elec       q    Type
REMARK                         _______ _______ _______ _____ _____    ______ ____
ROOT
ATOM      1  C   UNL     1       4.620   4.370  17.229  0.00  0.00    +0.000 A 
ATOM      2  C   UNL     1       4.226   3.046  17.460  0.00  0.00    +0.000 A 
ATOM      3  C   UNL     1       3.203   2.775  18.373  0.00  0.00    +0.000 A 
ATOM      4  C   UNL     1       2.549   3.807  19.050  0.00  0.00    +0.000 A 
ATOM      5  C   UNL     1       2.885   5.125  18.756  0.00  0.00    +0.000 A 
ATOM      6  C   UNL     1       3.929   5.408  17.862  0.00  0.00    +0.000 A 
ENDROOT
BRANCH   1  12
ATOM      7  C   UNL     1       7.442   5.599  17.909  0.00  0.00    +0.000 C 
ATOM      8  C   UNL     1       6.893   5.284  16.561  0.00  0.00    +0.000 A 
ATOM      9  N   UNL     1       7.578   5.451  15.442  0.00  0.00    +0.000 NA
ATOM     10  C   UNL     1       6.829   4.847  14.462  0.00  0.00    +0.000 A 
ATOM     11  C   UNL     1       5.679   4.305  14.984  0.00  0.00    +0.000 A 
ATOM     12  N   UNL     1       5.676   4.648  16.321  0.00  0.00    +0.000 N 
BRANCH  10  13
ATOM     13  N   UNL     1       7.269   4.823  13.084  0.00  0.00    +0.000 N 
ATOM     14  O   UNL     1       8.080   5.699  12.747  0.00  0.00    +0.000 OA
ATOM     15  O   UNL     1       6.810   3.943  12.343  0.00  0.00    +0.000 OA
ENDBRANCH  10  13
ENDBRANCH   1  12
BRANCH   4  16
ATOM     16  O   UNL     1       1.579   3.400  19.911  0.00  0.00    +0.000 OA
BRANCH  16  17
ATOM     17  C   UNL     1       1.893   3.197  21.284  0.00  0.00    +0.000 C 
ATOM     18  F   UNL     1       0.906   2.623  22.001  0.00  0.00    +0.000 F 
ATOM     19  F   UNL     1       3.002   2.434  21.379  0.00  0.00    +0.000 F 
ATOM     20  F   UNL     1       2.159   4.400  21.843  0.00  0.00    +0.000 F 
ENDBRANCH  16  17
ENDBRANCH   4  16
TORSDOF 4
ENDMDL
MODEL 7
REMARK VINA RESULT:      -7.7      0.994      1.375
REMARK  Name = 
REMARK  5 active torsions:
REMARK  status: ('A' for Active; 'I' for Inactive)
REMARK    1  A    between atoms: C_1  and  C_2
REMARK    2  A    between atoms: C_4  and  N_5
REMARK    3  A    between atoms: N_9  and  C_10
REMARK    4  A    between atoms: C_13  and  O_14
REMARK    5  A    between atoms: O_14  and  C_15
REMARK                            x       y       z     vdW  Elec       q    Type
REMARK                         _______ _______ _______ _____ _____    ______ ____
ROOT
ATOM      1  C   UNL     1       4.824   3.983  17.398  0.00  0.00    +0.000 A 
ATOM      2  C   UNL     1       5.247   3.588  18.673  0.00  0.00    +0.000 A 
ATOM      3  C   UNL     1       4.317   3.092  19.591  0.00  0.00    +0.000 A 
ATOM      4  C   UNL     1       2.968   2.964  19.251  0.00  0.00    +0.000 A 
ATOM      5  C   UNL     1       2.566   3.277  17.956  0.00  0.00    +0.000 A 
ATOM      6  C   UNL     1       3.486   3.803  17.036  0.00  0.00    +0.000 A 
ENDROOT
BRANCH   1  12
ATOM      7  C   UNL     1       7.021   6.174  17.955  0.00  0.00    +0.000 C 
ATOM      8  C   UNL     1       6.676   5.551  16.647  0.00  0.00    +0.000 A 
ATOM      9  N   UNL     1       7.314   5.826  15.522  0.00  0.00    +0.000 NA
ATOM     10  C   UNL     1       6.864   4.902  14.612  0.00  0.00    +0.000 A 
ATOM     11  C   UNL     1       5.945   4.054  15.183  0.00  0.00    +0.000 A 
ATOM     12  N   UNL     1       5.763   4.512  16.472  0.00  0.00    +0.000 N 
BRANCH  10  13
ATOM     13  N   UNL     1       7.349   4.888  13.248  0.00  0.00    +0.000 N 
ATOM     14  O   UNL     1       6.896   4.001  12.509  0.00  0.00    +0.000 OA
ATOM     15  O   UNL     1       8.173   5.751  12.917  0.00  0.00    +0.000 OA
ENDBRANCH  10  13
ENDBRANCH   1  12
BRANCH   4  16
ATOM     16  O   UNL     1       2.174   2.472  20.240  0.00  0.00    +0.000 OA
BRANCH  16  17
ATOM     17  C   UNL     1       1.447   3.368  21.072  0.00  0.00    +0.000 C 
ATOM     18  F   UNL     1       0.504   4.085  20.426  0.00  0.00    +0.000 F 
ATOM     19  F   UNL     1       0.861   2.674  22.070  0.00  0.00    +0.000 F 
ATOM     20  F   UNL     1       2.320   4.242  21.622  0.00  0.00    +0.000 F 
ENDBRANCH  16  17
ENDBRANCH   4  16
TORSDOF 4
ENDMDL
MODEL 8
REMARK VINA RESULT:      -7.7      1.310      1.624
REMARK  Name = 
REMARK  5 active torsions:
REMARK  status: ('A' for Active; 'I' for Inactive)
REMARK    1  A    between atoms: C_1  and  C_2
REMARK    2  A    between atoms: C_4  and  N_5
REMARK    3  A    between atoms: N_9  and  C_10
REMARK    4  A    between atoms: C_13  and  O_14
REMARK    5  A    between atoms: O_14  and  C_15
REMARK                            x       y       z     vdW  Elec       q    Type
REMARK                         _______ _______ _______ _____ _____    ______ ____
ROOT
ATOM      1  C   UNL     1       5.029   4.667  17.929  0.00  0.00    +0.000 A 
ATOM      2  C   UNL     1       5.107   3.434  18.590  0.00  0.00    +0.000 A 
ATOM      3  C   UNL     1       4.244   3.162  19.655  0.00  0.00    +0.000 A 
ATOM      4  C   UNL     1       3.287   4.095  20.063  0.00  0.00    +0.000 A 
ATOM      5  C   UNL     1       3.156   5.283  19.350  0.00  0.00    +0.000 A 
ATOM      6  C   UNL     1       4.036   5.578  18.297  0.00  0.00    +0.000 A 
ENDROOT
BRANCH   1  12
ATOM      7  C   UNL     1       7.579   6.518  18.028  0.00  0.00    +0.000 C 
ATOM      8  C   UNL     1       6.994   5.847  16.835  0.00  0.00    +0.000 A 
ATOM      9  N   UNL     1       7.530   5.919  15.628  0.00  0.00    +0.000 NA
ATOM     10  C   UNL     1       6.844   5.002  14.869  0.00  0.00    +0.000 A 
ATOM     11  C   UNL     1       5.882   4.365  15.615  0.00  0.00    +0.000 A 
ATOM     12  N   UNL     1       5.922   4.956  16.862  0.00  0.00    +0.000 N 
BRANCH  10  13
ATOM     13  N   UNL     1       7.159   4.793  13.472  0.00  0.00    +0.000 N 
ATOM     14  O   UNL     1       7.999   5.557  12.974  0.00  0.00    +0.000 OA
ATOM     15  O   UNL     1       6.574   3.878  12.876  0.00  0.00    +0.000 OA
ENDBRANCH  10  13
ENDBRANCH   1  12
BRANCH   4  16
ATOM     16  O   UNL     1       2.519   3.702  21.114  0.00  0.00    +0.000 OA
BRANCH  16  17
ATOM     17  C   UNL     1       1.239   3.129  20.876  0.00  0.00    +0.000 C 
ATOM     18  F   UNL     1       0.322   3.996  20.398  0.00  0.00    +0.000 F 
ATOM     19  F   UNL     1       1.363   2.103  20.009  0.00  0.00    +0.000 F 
ATOM     20  F   UNL     1       0.767   2.640  22.045  0.00  0.00    +0.000 F 
ENDBRANCH  16  17
ENDBRANCH   4  16
TORSDOF 4
ENDMDL
MODEL 9
REMARK VINA RESULT:      -7.7      1.306      1.912
REMARK  Name = 
REMARK  5 active torsions:
REMARK  status: ('A' for Active; 'I' for Inactive)
REMARK    1  A    between atoms: C_1  and  C_2
REMARK    2  A    between atoms: C_4  and  N_5
REMARK    3  A    between atoms: N_9  and  C_10
REMARK    4  A    between atoms: C_13  and  O_14
REMARK    5  A    between atoms: O_14  and  C_15
REMARK                            x       y       z     vdW  Elec       q    Type
REMARK                         _______ _______ _______ _____ _____    ______ ____
ROOT
ATOM      1  C   UNL     1       5.025   4.671  17.889  0.00  0.00    +0.000 A 
ATOM      2  C   UNL     1       3.944   5.526  18.134  0.00  0.00    +0.000 A 
ATOM      3  C   UNL     1       3.058   5.244  19.178  0.00  0.00    +0.000 A 
ATOM      4  C   UNL     1       3.244   4.129  19.999  0.00  0.00    +0.000 A 
ATOM      5  C   UNL     1       4.367   3.330  19.806  0.00  0.00    +0.000 A 
ATOM      6  C   UNL     1       5.246   3.587  18.743  0.00  0.00    +0.000 A 
ENDROOT
BRANCH   1  12
ATOM      7  C   UNL     1       7.597   6.492  17.951  0.00  0.00    +0.000 C 
ATOM      8  C   UNL     1       6.995   5.817  16.768  0.00  0.00    +0.000 A 
ATOM      9  N   UNL     1       7.521   5.872  15.556  0.00  0.00    +0.000 NA
ATOM     10  C   UNL     1       6.818   4.957  14.811  0.00  0.00    +0.000 A 
ATOM     11  C   UNL     1       5.855   4.338  15.571  0.00  0.00    +0.000 A 
ATOM     12  N   UNL     1       5.912   4.940  16.812  0.00  0.00    +0.000 N 
BRANCH  10  13
ATOM     13  N   UNL     1       7.119   4.732  13.414  0.00  0.00    +0.000 N 
ATOM     14  O   UNL     1       7.965   5.480  12.902  0.00  0.00    +0.000 OA
ATOM     15  O   UNL     1       6.517   3.819  12.831  0.00  0.00    +0.000 OA
ENDBRANCH  10  13
ENDBRANCH   1  12
BRANCH   4  16
ATOM     16  O   UNL     1       2.306   3.974  20.971  0.00  0.00    +0.000 OA
BRANCH  16  17
ATOM     17  C   UNL     1       1.182   3.134  20.740  0.00  0.00    +0.000 C 
ATOM     18  F   UNL     1       1.399   2.150  19.843  0.00  0.00    +0.000 F 
ATOM     19  F   UNL     1       0.790   2.581  21.907  0.00  0.00    +0.000 F 
ATOM     20  F   UNL     1       0.168   3.897  20.273  0.00  0.00    +0.000 F 
ENDBRANCH  16  17
ENDBRANCH   4  16
TORSDOF 4
ENDMDL
