MODEL 1
REMARK VINA RESULT:      -6.9      0.000      0.000
REMARK  Name = 
REMARK  6 active torsions:
REMARK  status: ('A' for Active; 'I' for Inactive)
REMARK    1  A    between atoms: C_1  and  O_2
REMARK    2  A    between atoms: O_2  and  C_3
REMARK    3  A    between atoms: C_6  and  N_7
REMARK    4  A    between atoms: N_10  and  C_11
REMARK    5  A    between atoms: C_11  and  C_12
REMARK    6  A    between atoms: C_12  and  C_14
REMARK                            x       y       z     vdW  Elec       q    Type
REMARK                         _______ _______ _______ _____ _____    ______ ____
ROOT
ATOM      1  N   UNL     1       1.845   8.261  19.569  0.00  0.00    +0.000 N 
ATOM      2  C   UNL     1       1.990   7.379  20.734  0.00  0.00    +0.000 C 
ATOM      3  C   UNL     1       1.823   5.894  20.336  0.00  0.00    +0.000 C 
ATOM      4  N   UNL     1       2.665   5.452  19.196  0.00  0.00    +0.000 NA
ATOM      5  C   UNL     1       2.396   6.375  18.059  0.00  0.00    +0.000 C 
ATOM      6  C   UNL     1       2.594   7.880  18.362  0.00  0.00    +0.000 C 
ENDROOT
BRANCH   1  10
ATOM      7  C   UNL     1      -1.090  11.295  19.395  0.00  0.00    +0.000 A 
ATOM      8  C   UNL     1      -0.571  10.876  20.617  0.00  0.00    +0.000 A 
ATOM      9  C   UNL     1       0.410   9.876  20.668  0.00  0.00    +0.000 A 
ATOM     10  C   UNL     1       0.885   9.252  19.506  0.00  0.00    +0.000 A 
ATOM     11  C   UNL     1       0.332   9.674  18.292  0.00  0.00    +0.000 A 
ATOM     12  C   UNL     1      -0.642  10.680  18.229  0.00  0.00    +0.000 A 
BRANCH   7  14
ATOM     13  C   UNL     1      -2.538  12.555  20.757  0.00  0.00    +0.000 C 
ATOM     14  O   UNL     1      -2.046  12.266  19.452  0.00  0.00    +0.000 OA
ENDBRANCH   7  14
ENDBRANCH   1  10
BRANCH   4  15
ATOM     15  C   UNL     1       4.095   5.445  19.580  0.00  0.00    +0.000 C 
BRANCH  15  16
ATOM     16  C   UNL     1       4.835   4.280  18.934  0.00  0.00    +0.000 C 
ATOM     17  O   UNL     1       4.960   3.201  19.515  0.00  0.00    +0.000 OA
BRANCH  16  18
ATOM     18  C   UNL     1       5.468   4.470  17.598  0.00  0.00    +0.000 A 
ATOM     19  C   UNL     1       4.707   4.182  16.458  0.00  0.00    +0.000 A 
ATOM     20  C   UNL     1       5.281   4.281  15.188  0.00  0.00    +0.000 A 
ATOM     21  C   UNL     1       6.610   4.682  15.061  0.00  0.00    +0.000 A 
ATOM     22 CL   UNL     1       7.328   4.777  13.501  0.00  0.00    +0.000 Cl
ATOM     23  C   UNL     1       7.364   4.998  16.189  0.00  0.00    +0.000 A 
ATOM     24  C   UNL     1       6.796   4.892  17.460  0.00  0.00    +0.000 A 
ENDBRANCH  16  18
ENDBRANCH  15  16
ENDBRANCH   4  15
TORSDOF 5
ENDMDL
MODEL 2
REMARK VINA RESULT:      -6.9      0.408      1.440
REMARK  Name = 
REMARK  6 active torsions:
REMARK  status: ('A' for Active; 'I' for Inactive)
REMARK    1  A    between atoms: C_1  and  O_2
REMARK    2  A    between atoms: O_2  and  C_3
REMARK    3  A    between atoms: C_6  and  N_7
REMARK    4  A    between atoms: N_10  and  C_11
REMARK    5  A    between atoms: C_11  and  C_12
REMARK    6  A    between atoms: C_12  and  C_14
REMARK                            x       y       z     vdW  Elec       q    Type
REMARK                         _______ _______ _______ _____ _____    ______ ____
ROOT
ATOM      1  N   UNL     1       1.890   8.199  19.570  0.00  0.00    +0.000 N 
ATOM      2  C   UNL     1       1.992   7.343  20.759  0.00  0.00    +0.000 C 
ATOM      3  C   UNL     1       1.779   5.855  20.397  0.00  0.00    +0.000 C 
ATOM      4  N   UNL     1       2.618   5.356  19.278  0.00  0.00    +0.000 NA
ATOM      5  C   UNL     1       2.392   6.258  18.115  0.00  0.00    +0.000 C 
ATOM      6  C   UNL     1       2.639   7.763  18.382  0.00  0.00    +0.000 C 
ENDROOT
BRANCH   1  10
ATOM      7  C   UNL     1      -0.933  11.326  19.246  0.00  0.00    +0.000 A 
ATOM      8  C   UNL     1      -0.325  10.795  18.111  0.00  0.00    +0.000 A 
ATOM      9  C   UNL     1       0.603   9.751  18.224  0.00  0.00    +0.000 A 
ATOM     10  C   UNL     1       0.966   9.221  19.470  0.00  0.00    +0.000 A 
ATOM     11  C   UNL     1       0.359   9.787  20.597  0.00  0.00    +0.000 A 
ATOM     12  C   UNL     1      -0.577  10.824  20.495  0.00  0.00    +0.000 A 
BRANCH   7  14
ATOM     13  C   UNL     1      -3.174  12.038  19.320  0.00  0.00    +0.000 C 
ATOM     14  O   UNL     1      -1.814  12.344  19.032  0.00  0.00    +0.000 OA
ENDBRANCH   7  14
ENDBRANCH   1  10
BRANCH   4  15
ATOM     15  C   UNL     1       4.042   5.310  19.679  0.00  0.00    +0.000 C 
BRANCH  15  16
ATOM     16  C   UNL     1       4.757   4.124  19.043  0.00  0.00    +0.000 C 
ATOM     17  O   UNL     1       4.850   3.044  19.628  0.00  0.00    +0.000 OA
BRANCH  16  18
ATOM     18  C   UNL     1       5.406   4.293  17.713  0.00  0.00    +0.000 A 
ATOM     19  C   UNL     1       6.666   4.904  17.662  0.00  0.00    +0.000 A 
ATOM     20  C   UNL     1       7.280   5.143  16.431  0.00  0.00    +0.000 A 
ATOM     21  C   UNL     1       6.642   4.756  15.253  0.00  0.00    +0.000 A 
ATOM     22 CL   UNL     1       7.383   5.074  13.735  0.00  0.00    +0.000 Cl
ATOM     23  C   UNL     1       5.403   4.120  15.298  0.00  0.00    +0.000 A 
ATOM     24  C   UNL     1       4.782   3.888  16.527  0.00  0.00    +0.000 A 
ENDBRANCH  16  18
ENDBRANCH  15  16
ENDBRANCH   4  15
TORSDOF 5
ENDMDL
MODEL 3
REMARK VINA RESULT:      -6.7      0.595      1.151
REMARK  Name = 
REMARK  6 active torsions:
REMARK  status: ('A' for Active; 'I' for Inactive)
REMARK    1  A    between atoms: C_1  and  O_2
REMARK    2  A    between atoms: O_2  and  C_3
REMARK    3  A    between atoms: C_6  and  N_7
REMARK    4  A    between atoms: N_10  and  C_11
REMARK    5  A    between atoms: C_11  and  C_12
REMARK    6  A    between atoms: C_12  and  C_14
REMARK                            x       y       z     vdW  Elec       q    Type
REMARK                         _______ _______ _______ _____ _____    ______ ____
ROOT
ATOM      1  N   UNL     1       1.965   8.038  19.779  0.00  0.00    +0.000 N 
ATOM      2  C   UNL     1       2.091   7.121  20.919  0.00  0.00    +0.000 C 
ATOM      3  C   UNL     1       1.799   5.663  20.499  0.00  0.00    +0.000 C 
ATOM      4  N   UNL     1       2.560   5.186  19.317  0.00  0.00    +0.000 NA
ATOM      5  C   UNL     1       2.315   6.153  18.211  0.00  0.00    +0.000 C 
ATOM      6  C   UNL     1       2.636   7.632  18.535  0.00  0.00    +0.000 C 
ENDROOT
BRANCH   1  10
ATOM      7  C   UNL     1      -0.745  11.278  19.785  0.00  0.00    +0.000 A 
ATOM      8  C   UNL     1      -0.528  10.530  20.939  0.00  0.00    +0.000 A 
ATOM      9  C   UNL     1       0.379   9.463  20.933  0.00  0.00    +0.000 A 
ATOM     10  C   UNL     1       1.081   9.099  19.775  0.00  0.00    +0.000 A 
ATOM     11  C   UNL     1       0.828   9.851  18.623  0.00  0.00    +0.000 A 
ATOM     12  C   UNL     1      -0.069  10.927  18.619  0.00  0.00    +0.000 A 
BRANCH   7  14
ATOM     13  C   UNL     1      -1.170  13.579  19.527  0.00  0.00    +0.000 C 
ATOM     14  O   UNL     1      -1.654  12.290  19.890  0.00  0.00    +0.000 OA
ENDBRANCH   7  14
ENDBRANCH   1  10
BRANCH   4  15
ATOM     15  C   UNL     1       3.999   5.065  19.641  0.00  0.00    +0.000 C 
BRANCH  15  16
ATOM     16  C   UNL     1       4.634   3.888  18.911  0.00  0.00    +0.000 C 
ATOM     17  O   UNL     1       4.628   2.756  19.396  0.00  0.00    +0.000 OA
BRANCH  16  18
ATOM     18  C   UNL     1       5.323   4.123  17.611  0.00  0.00    +0.000 A 
ATOM     19  C   UNL     1       6.650   4.573  17.637  0.00  0.00    +0.000 A 
ATOM     20  C   UNL     1       7.313   4.870  16.443  0.00  0.00    +0.000 A 
ATOM     21  C   UNL     1       6.653   4.703  15.226  0.00  0.00    +0.000 A 
ATOM     22 CL   UNL     1       7.456   5.095  13.758  0.00  0.00    +0.000 Cl
ATOM     23  C   UNL     1       5.344   4.227  15.193  0.00  0.00    +0.000 A 
ATOM     24  C   UNL     1       4.676   3.938  16.384  0.00  0.00    +0.000 A 
ENDBRANCH  16  18
ENDBRANCH  15  16
ENDBRANCH   4  15
TORSDOF 5
ENDMDL
MODEL 4
REMARK VINA RESULT:      -6.6      1.952      2.389
REMARK  Name = 
REMARK  6 active torsions:
REMARK  status: ('A' for Active; 'I' for Inactive)
REMARK    1  A    between atoms: C_1  and  O_2
REMARK    2  A    between atoms: O_2  and  C_3
REMARK    3  A    between atoms: C_6  and  N_7
REMARK    4  A    between atoms: N_10  and  C_11
REMARK    5  A    between atoms: C_11  and  C_12
REMARK    6  A    between atoms: C_12  and  C_14
REMARK                            x       y       z     vdW  Elec       q    Type
REMARK                         _______ _______ _______ _____ _____    ______ ____
ROOT
ATOM      1  N   UNL     1       2.091   6.769  20.164  0.00  0.00    +0.000 N 
ATOM      2  C   UNL     1       1.903   5.592  21.022  0.00  0.00    +0.000 C 
ATOM      3  C   UNL     1       1.263   4.424  20.238  0.00  0.00    +0.000 C 
ATOM      4  N   UNL     1       1.940   4.080  18.962  0.00  0.00    +0.000 NA
ATOM      5  C   UNL     1       2.024   5.326  18.152  0.00  0.00    +0.000 C 
ATOM      6  C   UNL     1       2.703   6.530  18.848  0.00  0.00    +0.000 C 
ENDROOT
BRANCH   1  10
ATOM      7  C   UNL     1       0.338  10.507  21.056  0.00  0.00    +0.000 A 
ATOM      8  C   UNL     1       0.486   9.537  22.044  0.00  0.00    +0.000 A 
ATOM      9  C   UNL     1       1.078   8.303  21.744  0.00  0.00    +0.000 A 
ATOM     10  C   UNL     1       1.519   7.993  20.450  0.00  0.00    +0.000 A 
ATOM     11  C   UNL     1       1.338   8.976  19.470  0.00  0.00    +0.000 A 
ATOM     12  C   UNL     1       0.757  10.217  19.760  0.00  0.00    +0.000 A 
BRANCH   7  14
ATOM     13  C   UNL     1      -0.997  11.596  22.660  0.00  0.00    +0.000 C 
ATOM     14  O   UNL     1      -0.258  11.671  21.445  0.00  0.00    +0.000 OA
ENDBRANCH   7  14
ENDBRANCH   1  10
BRANCH   4  15
ATOM     15  C   UNL     1       3.275   3.497  19.225  0.00  0.00    +0.000 C 
BRANCH  15  16
ATOM     16  C   UNL     1       4.141   3.508  17.971  0.00  0.00    +0.000 C 
ATOM     17  O   UNL     1       4.050   2.619  17.123  0.00  0.00    +0.000 OA
BRANCH  16  18
ATOM     18  C   UNL     1       5.155   4.585  17.796  0.00  0.00    +0.000 A 
ATOM     19  C   UNL     1       5.984   4.898  18.881  0.00  0.00    +0.000 A 
ATOM     20  C   UNL     1       6.903   5.945  18.783  0.00  0.00    +0.000 A 
ATOM     21  C   UNL     1       7.002   6.668  17.595  0.00  0.00    +0.000 A 
ATOM     22 CL   UNL     1       8.111   7.977  17.480  0.00  0.00    +0.000 Cl
ATOM     23  C   UNL     1       6.200   6.344  16.502  0.00  0.00    +0.000 A 
ATOM     24  C   UNL     1       5.275   5.303  16.600  0.00  0.00    +0.000 A 
ENDBRANCH  16  18
ENDBRANCH  15  16
ENDBRANCH   4  15
TORSDOF 5
ENDMDL
MODEL 5
REMARK VINA RESULT:      -6.6      1.165      1.637
REMARK  Name = 
REMARK  6 active torsions:
REMARK  status: ('A' for Active; 'I' for Inactive)
REMARK    1  A    between atoms: C_1  and  O_2
REMARK    2  A    between atoms: O_2  and  C_3
REMARK    3  A    between atoms: C_6  and  N_7
REMARK    4  A    between atoms: N_10  and  C_11
REMARK    5  A    between atoms: C_11  and  C_12
REMARK    6  A    between atoms: C_12  and  C_14
REMARK                            x       y       z     vdW  Elec       q    Type
REMARK                         _______ _______ _______ _____ _____    ______ ____
ROOT
ATOM      1  N   UNL     1       1.978   7.505  20.184  0.00  0.00    +0.000 N 
ATOM      2  C   UNL     1       1.966   6.213  20.882  0.00  0.00    +0.000 C 
ATOM      3  C   UNL     1       1.611   5.059  19.918  0.00  0.00    +0.000 C 
ATOM      4  N   UNL     1       2.420   5.010  18.673  0.00  0.00    +0.000 NA
ATOM      5  C   UNL     1       2.314   6.344  18.021  0.00  0.00    +0.000 C 
ATOM      6  C   UNL     1       2.705   7.552  18.907  0.00  0.00    +0.000 C 
ENDROOT
BRANCH   1  10
ATOM      7  C   UNL     1      -0.508  10.729  21.310  0.00  0.00    +0.000 A 
ATOM      8  C   UNL     1      -0.130  10.552  19.982  0.00  0.00    +0.000 A 
ATOM      9  C   UNL     1       0.686   9.475  19.613  0.00  0.00    +0.000 A 
ATOM     10  C   UNL     1       1.165   8.557  20.558  0.00  0.00    +0.000 A 
ATOM     11  C   UNL     1       0.791   8.769  21.890  0.00  0.00    +0.000 A 
ATOM     12  C   UNL     1      -0.033   9.837  22.268  0.00  0.00    +0.000 A 
BRANCH   7  14
ATOM     13  C   UNL     1      -1.152  12.367  22.873  0.00  0.00    +0.000 C 
ATOM     14  O   UNL     1      -1.296  11.812  21.569  0.00  0.00    +0.000 OA
ENDBRANCH   7  14
ENDBRANCH   1  10
BRANCH   4  15
ATOM     15  C   UNL     1       3.823   4.651  18.981  0.00  0.00    +0.000 C 
BRANCH  15  16
ATOM     16  C   UNL     1       4.363   3.631  17.987  0.00  0.00    +0.000 C 
ATOM     17  O   UNL     1       4.129   2.428  18.114  0.00  0.00    +0.000 OA
BRANCH  16  18
ATOM     18  C   UNL     1       5.237   4.092  16.872  0.00  0.00    +0.000 A 
ATOM     19  C   UNL     1       4.721   4.064  15.570  0.00  0.00    +0.000 A 
ATOM     20  C   UNL     1       5.527   4.423  14.488  0.00  0.00    +0.000 A 
ATOM     21  C   UNL     1       6.844   4.825  14.711  0.00  0.00    +0.000 A 
ATOM     22 CL   UNL     1       7.848   5.240  13.378  0.00  0.00    +0.000 Cl
ATOM     23  C   UNL     1       7.355   4.883  16.006  0.00  0.00    +0.000 A 
ATOM     24  C   UNL     1       6.554   4.516  17.089  0.00  0.00    +0.000 A 
ENDBRANCH  16  18
ENDBRANCH  15  16
ENDBRANCH   4  15
TORSDOF 5
ENDMDL
MODEL 6
REMARK VINA RESULT:      -6.6      4.776     10.412
REMARK  Name = 
REMARK  6 active torsions:
REMARK  status: ('A' for Active; 'I' for Inactive)
REMARK    1  A    between atoms: C_1  and  O_2
REMARK    2  A    between atoms: O_2  and  C_3
REMARK    3  A    between atoms: C_6  and  N_7
REMARK    4  A    between atoms: N_10  and  C_11
REMARK    5  A    between atoms: C_11  and  C_12
REMARK    6  A    between atoms: C_12  and  C_14
REMARK                            x       y       z     vdW  Elec       q    Type
REMARK                         _______ _______ _______ _____ _____    ______ ____
ROOT
ATOM      1  N   UNL     1       0.777   9.164  20.049  0.00  0.00    +0.000 N 
ATOM      2  C   UNL     1       0.073   8.839  21.297  0.00  0.00    +0.000 C 
ATOM      3  C   UNL     1       0.376   9.881  22.398  0.00  0.00    +0.000 C 
ATOM      4  N   UNL     1       0.172  11.296  21.996  0.00  0.00    +0.000 NA
ATOM      5  C   UNL     1       0.972  11.528  20.763  0.00  0.00    +0.000 C 
ATOM      6  C   UNL     1       0.687  10.559  19.591  0.00  0.00    +0.000 C 
ENDROOT
BRANCH   1  10
ATOM      7  C   UNL     1       3.512   6.495  18.250  0.00  0.00    +0.000 A 
ATOM      8  C   UNL     1       2.960   6.214  19.496  0.00  0.00    +0.000 A 
ATOM      9  C   UNL     1       2.045   7.098  20.083  0.00  0.00    +0.000 A 
ATOM     10  C   UNL     1       1.671   8.295  19.456  0.00  0.00    +0.000 A 
ATOM     11  C   UNL     1       2.258   8.566  18.215  0.00  0.00    +0.000 A 
ATOM     12  C   UNL     1       3.165   7.685  17.614  0.00  0.00    +0.000 A 
BRANCH   7  14
ATOM     13  C   UNL     1       3.818   4.368  17.291  0.00  0.00    +0.000 C 
ATOM     14  O   UNL     1       4.399   5.577  17.767  0.00  0.00    +0.000 OA
ENDBRANCH   7  14
ENDBRANCH   1  10
BRANCH   4  15
ATOM     15  C   UNL     1      -1.267  11.572  21.786  0.00  0.00    +0.000 C 
BRANCH  15  16
ATOM     16  C   UNL     1      -1.812  12.511  22.856  0.00  0.00    +0.000 C 
ATOM     17  O   UNL     1      -1.058  13.179  23.565  0.00  0.00    +0.000 OA
BRANCH  16  18
ATOM     18  C   UNL     1      -3.283  12.578  23.085  0.00  0.00    +0.000 A 
ATOM     19  C   UNL     1      -4.116  12.805  21.982  0.00  0.00    +0.000 A 
ATOM     20  C   UNL     1      -5.494  12.942  22.160  0.00  0.00    +0.000 A 
ATOM     21  C   UNL     1      -6.039  12.838  23.440  0.00  0.00    +0.000 A 
ATOM     22 CL   UNL     1      -7.732  13.035  23.666  0.00  0.00    +0.000 Cl
ATOM     23  C   UNL     1      -5.220  12.583  24.537  0.00  0.00    +0.000 A 
ATOM     24  C   UNL     1      -3.841  12.453  24.363  0.00  0.00    +0.000 A 
ENDBRANCH  16  18
ENDBRANCH  15  16
ENDBRANCH   4  15
TORSDOF 5
ENDMDL
MODEL 7
REMARK VINA RESULT:      -6.5      4.600     10.222
REMARK  Name = 
REMARK  6 active torsions:
REMARK  status: ('A' for Active; 'I' for Inactive)
REMARK    1  A    between atoms: C_1  and  O_2
REMARK    2  A    between atoms: O_2  and  C_3
REMARK    3  A    between atoms: C_6  and  N_7
REMARK    4  A    between atoms: N_10  and  C_11
REMARK    5  A    between atoms: C_11  and  C_12
REMARK    6  A    between atoms: C_12  and  C_14
REMARK                            x       y       z     vdW  Elec       q    Type
REMARK                         _______ _______ _______ _____ _____    ______ ____
ROOT
ATOM      1  N   UNL     1       1.096   8.748  20.003  0.00  0.00    +0.000 N 
ATOM      2  C   UNL     1       0.671   8.448  21.377  0.00  0.00    +0.000 C 
ATOM      3  C   UNL     1       1.023   9.608  22.337  0.00  0.00    +0.000 C 
ATOM      4  N   UNL     1       0.565  10.949  21.895  0.00  0.00    +0.000 NA
ATOM      5  C   UNL     1       1.098  11.171  20.522  0.00  0.00    +0.000 C 
ATOM      6  C   UNL     1       0.743  10.079  19.485  0.00  0.00    +0.000 C 
ENDROOT
BRANCH   1  10
ATOM      7  C   UNL     1       3.798   6.281  17.893  0.00  0.00    +0.000 A 
ATOM      8  C   UNL     1       3.267   5.873  19.114  0.00  0.00    +0.000 A 
ATOM      9  C   UNL     1       2.363   6.691  19.804  0.00  0.00    +0.000 A 
ATOM     10  C   UNL     1       1.980   7.946  19.309  0.00  0.00    +0.000 A 
ATOM     11  C   UNL     1       2.545   8.343  18.092  0.00  0.00    +0.000 A 
ATOM     12  C   UNL     1       3.442   7.529  17.389  0.00  0.00    +0.000 A 
BRANCH   7  14
ATOM     13  C   UNL     1       4.197   4.087  17.140  0.00  0.00    +0.000 C 
ATOM     14  O   UNL     1       4.676   5.418  17.305  0.00  0.00    +0.000 OA
ENDBRANCH   7  14
ENDBRANCH   1  10
BRANCH   4  15
ATOM     15  C   UNL     1      -0.913  11.032  21.938  0.00  0.00    +0.000 C 
BRANCH  15  16
ATOM     16  C   UNL     1      -1.375  12.240  22.744  0.00  0.00    +0.000 C 
ATOM     17  O   UNL     1      -0.569  12.969  23.325  0.00  0.00    +0.000 OA
BRANCH  16  18
ATOM     18  C   UNL     1      -2.834  12.511  22.879  0.00  0.00    +0.000 A 
ATOM     19  C   UNL     1      -3.394  12.501  24.163  0.00  0.00    +0.000 A 
ATOM     20  C   UNL     1      -4.769  12.683  24.329  0.00  0.00    +0.000 A 
ATOM     21  C   UNL     1      -5.579  12.891  23.213  0.00  0.00    +0.000 A 
ATOM     22 CL   UNL     1      -7.275  13.087  23.413  0.00  0.00    +0.000 Cl
ATOM     23  C   UNL     1      -5.024  12.931  21.936  0.00  0.00    +0.000 A 
ATOM     24  C   UNL     1      -3.651  12.740  21.765  0.00  0.00    +0.000 A 
ENDBRANCH  16  18
ENDBRANCH  15  16
ENDBRANCH   4  15
TORSDOF 5
ENDMDL
MODEL 8
REMARK VINA RESULT:      -6.5      4.749     10.427
REMARK  Name = 
REMARK  6 active torsions:
REMARK  status: ('A' for Active; 'I' for Inactive)
REMARK    1  A    between atoms: C_1  and  O_2
REMARK    2  A    between atoms: O_2  and  C_3
REMARK    3  A    between atoms: C_6  and  N_7
REMARK    4  A    between atoms: N_10  and  C_11
REMARK    5  A    between atoms: C_11  and  C_12
REMARK    6  A    between atoms: C_12  and  C_14
REMARK                            x       y       z     vdW  Elec       q    Type
REMARK                         _______ _______ _______ _____ _____    ______ ____
ROOT
ATOM      1  N   UNL     1       0.838   9.091  20.058  0.00  0.00    +0.000 N 
ATOM      2  C   UNL     1       0.184   8.783  21.336  0.00  0.00    +0.000 C 
ATOM      3  C   UNL     1       0.485   9.869  22.394  0.00  0.00    +0.000 C 
ATOM      4  N   UNL     1       0.220  11.262  21.956  0.00  0.00    +0.000 NA
ATOM      5  C   UNL     1       0.974  11.482  20.691  0.00  0.00    +0.000 C 
ATOM      6  C   UNL     1       0.687  10.466  19.559  0.00  0.00    +0.000 C 
ENDROOT
BRANCH   1  10
ATOM      7  C   UNL     1       3.607   6.481  18.224  0.00  0.00    +0.000 A 
ATOM      8  C   UNL     1       3.230   7.668  17.603  0.00  0.00    +0.000 A 
ATOM      9  C   UNL     1       2.319   8.535  18.221  0.00  0.00    +0.000 A 
ATOM     10  C   UNL     1       1.743   8.234  19.463  0.00  0.00    +0.000 A 
ATOM     11  C   UNL     1       2.121   7.024  20.056  0.00  0.00    +0.000 A 
ATOM     12  C   UNL     1       3.038   6.155  19.452  0.00  0.00    +0.000 A 
BRANCH   7  14
ATOM     13  C   UNL     1       4.957   4.553  18.239  0.00  0.00    +0.000 C 
ATOM     14  O   UNL     1       4.492   5.701  17.538  0.00  0.00    +0.000 OA
ENDBRANCH   7  14
ENDBRANCH   1  10
BRANCH   4  15
ATOM     15  C   UNL     1      -1.233  11.483  21.783  0.00  0.00    +0.000 C 
BRANCH  15  16
ATOM     16  C   UNL     1      -1.771  12.462  22.820  0.00  0.00    +0.000 C 
ATOM     17  O   UNL     1      -1.011  13.138  23.517  0.00  0.00    +0.000 OA
BRANCH  16  18
ATOM     18  C   UNL     1      -3.242  12.562  23.034  0.00  0.00    +0.000 A 
ATOM     19  C   UNL     1      -4.062  12.767  21.916  0.00  0.00    +0.000 A 
ATOM     20  C   UNL     1      -5.439  12.933  22.078  0.00  0.00    +0.000 A 
ATOM     21  C   UNL     1      -5.996  12.879  23.355  0.00  0.00    +0.000 A 
ATOM     22 CL   UNL     1      -7.688  13.111  23.560  0.00  0.00    +0.000 Cl
ATOM     23  C   UNL     1      -5.191  12.646  24.468  0.00  0.00    +0.000 A 
ATOM     24  C   UNL     1      -3.812  12.488  24.310  0.00  0.00    +0.000 A 
ENDBRANCH  16  18
ENDBRANCH  15  16
ENDBRANCH   4  15
TORSDOF 5
ENDMDL
MODEL 9
REMARK VINA RESULT:      -6.5      4.218      9.720
REMARK  Name = 
REMARK  6 active torsions:
REMARK  status: ('A' for Active; 'I' for Inactive)
REMARK    1  A    between atoms: C_1  and  O_2
REMARK    2  A    between atoms: O_2  and  C_3
REMARK    3  A    between atoms: C_6  and  N_7
REMARK    4  A    between atoms: N_10  and  C_11
REMARK    5  A    between atoms: C_11  and  C_12
REMARK    6  A    between atoms: C_12  and  C_14
REMARK                            x       y       z     vdW  Elec       q    Type
REMARK                         _______ _______ _______ _____ _____    ______ ____
ROOT
ATOM      1  N   UNL     1       1.823   8.371  19.478  0.00  0.00    +0.000 N 
ATOM      2  C   UNL     1       1.674   9.270  18.326  0.00  0.00    +0.000 C 
ATOM      3  C   UNL     1       0.223   9.788  18.204  0.00  0.00    +0.000 C 
ATOM      4  N   UNL     1      -0.339  10.378  19.445  0.00  0.00    +0.000 NA
ATOM      5  C   UNL     1      -0.189   9.366  20.526  0.00  0.00    +0.000 C 
ATOM      6  C   UNL     1       1.248   8.836  20.749  0.00  0.00    +0.000 C 
ENDROOT
BRANCH   1  10
ATOM      7  C   UNL     1       3.151   4.383  19.064  0.00  0.00    +0.000 A 
ATOM      8  C   UNL     1       3.391   5.320  18.063  0.00  0.00    +0.000 A 
ATOM      9  C   UNL     1       2.958   6.644  18.210  0.00  0.00    +0.000 A 
ATOM     10  C   UNL     1       2.255   7.066  19.348  0.00  0.00    +0.000 A 
ATOM     11  C   UNL     1       2.005   6.100  20.329  0.00  0.00    +0.000 A 
ATOM     12  C   UNL     1       2.443   4.776  20.197  0.00  0.00    +0.000 A 
BRANCH   7  14
ATOM     13  C   UNL     1       4.340   2.526  19.887  0.00  0.00    +0.000 C 
ATOM     14  O   UNL     1       3.605   3.119  18.822  0.00  0.00    +0.000 OA
ENDBRANCH   7  14
ENDBRANCH   1  10
BRANCH   4  15
ATOM     15  C   UNL     1       0.349  11.647  19.772  0.00  0.00    +0.000 C 
BRANCH  15  16
ATOM     16  C   UNL     1      -0.649  12.783  19.964  0.00  0.00    +0.000 C 
ATOM     17  O   UNL     1      -0.655  13.763  19.217  0.00  0.00    +0.000 OA
BRANCH  16  18
ATOM     18  C   UNL     1      -1.598  12.733  21.112  0.00  0.00    +0.000 A 
ATOM     19  C   UNL     1      -1.081  12.474  22.389  0.00  0.00    +0.000 A 
ATOM     20  C   UNL     1      -1.942  12.351  23.482  0.00  0.00    +0.000 A 
ATOM     21  C   UNL     1      -3.316  12.503  23.300  0.00  0.00    +0.000 A 
ATOM     22 CL   UNL     1      -4.380  12.324  24.639  0.00  0.00    +0.000 Cl
ATOM     23  C   UNL     1      -3.833  12.790  22.039  0.00  0.00    +0.000 A 
ATOM     24  C   UNL     1      -2.977  12.904  20.942  0.00  0.00    +0.000 A 
ENDBRANCH  16  18
ENDBRANCH  15  16
ENDBRANCH   4  15
TORSDOF 5
ENDMDL
