MODEL 1
REMARK VINA RESULT:      -7.4      0.000      0.000
REMARK  Name = 
REMARK  8 active torsions:
REMARK  status: ('A' for Active; 'I' for Inactive)
REMARK    1  A    between atoms: C_1  and  C_2
REMARK    2  A    between atoms: C_2  and  O_3
REMARK    3  A    between atoms: O_3  and  C_4
REMARK    4  A    between atoms: C_6  and  C_7
REMARK    5  A    between atoms: N_8  and  N_9
REMARK    6  A    between atoms: C_10  and  C_12
REMARK    7  A    between atoms: C_18  and  N_19
REMARK    8  A    between atoms: C_22  and  O_23
REMARK                            x       y       z     vdW  Elec       q    Type
REMARK                         _______ _______ _______ _____ _____    ______ ____
ROOT
ATOM      1  C   UNL     1       4.567   4.492  18.614  0.00  0.00    +0.000 A 
ATOM      2  C   UNL     1       3.453   5.344  18.573  0.00  0.00    +0.000 A 
ATOM      3  C   UNL     1       3.516   6.591  17.942  0.00  0.00    +0.000 A 
ATOM      4  C   UNL     1       4.700   7.004  17.336  0.00  0.00    +0.000 A 
ATOM      5  C   UNL     1       5.829   6.165  17.396  0.00  0.00    +0.000 A 
ATOM      6  C   UNL     1       5.780   4.914  18.050  0.00  0.00    +0.000 A 
ENDROOT
BRANCH   5   7
ATOM      7  N   UNL     1       7.063   6.639  16.757  0.00  0.00    +0.000 N 
ATOM      8  O   UNL     1       7.526   7.729  17.121  0.00  0.00    +0.000 OA
ATOM      9  O   UNL     1       7.570   5.921  15.881  0.00  0.00    +0.000 OA
ENDBRANCH   5   7
BRANCH   3  10
ATOM     10  C   UNL     1       2.333   7.481  17.925  0.00  0.00    +0.000 C 
ATOM     11  N   UNL     1       2.476   8.764  17.856  0.00  0.00    +0.000 NA
BRANCH  11  12
ATOM     12  N   UNL     1       1.335   9.505  17.828  0.00  0.00    +0.000 N 
ATOM     13  C   UNL     1       0.645   9.777  19.012  0.00  0.00    +0.000 C 
ATOM     14  O   UNL     1       1.014   9.376  20.112  0.00  0.00    +0.000 OA
ATOM     15  H   UNL     1       0.982   9.875  16.954  0.00  0.00    +0.000 HD
BRANCH  13  16
ATOM     16  C   UNL     1      -0.566  10.582  18.849  0.00  0.00    +0.000 A 
ATOM     17  C   UNL     1      -1.530  10.433  17.867  0.00  0.00    +0.000 A 
ATOM     18  C   UNL     1      -2.585  11.384  17.982  0.00  0.00    +0.000 A 
ATOM     19  C   UNL     1      -2.398  12.231  19.049  0.00  0.00    +0.000 A 
ATOM     20  S   UNL     1      -0.961  11.877  19.903  0.00  0.00    +0.000 S 
ENDBRANCH  13  16
ENDBRANCH  11  12
ENDBRANCH   3  10
BRANCH   6  21
ATOM     21  O   UNL     1       6.875   4.101  18.196  0.00  0.00    +0.000 OA
ATOM     22  H   UNL     1       7.454   4.421  18.921  0.00  0.00    +0.000 HD
ENDBRANCH   6  21
BRANCH   1  23
ATOM     23  O   UNL     1       4.313   3.322  19.280  0.00  0.00    +0.000 OA
BRANCH  23  25
ATOM     24  C   UNL     1       2.308   2.035  19.190  0.00  0.00    +0.000 C 
ATOM     25  C   UNL     1       3.681   2.257  18.570  0.00  0.00    +0.000 C 
ENDBRANCH  23  25
ENDBRANCH   1  23
TORSDOF 7
ENDMDL
MODEL 2
REMARK VINA RESULT:      -7.1      0.932      1.343
REMARK  Name = 
REMARK  8 active torsions:
REMARK  status: ('A' for Active; 'I' for Inactive)
REMARK    1  A    between atoms: C_1  and  C_2
REMARK    2  A    between atoms: C_2  and  O_3
REMARK    3  A    between atoms: O_3  and  C_4
REMARK    4  A    between atoms: C_6  and  C_7
REMARK    5  A    between atoms: N_8  and  N_9
REMARK    6  A    between atoms: C_10  and  C_12
REMARK    7  A    between atoms: C_18  and  N_19
REMARK    8  A    between atoms: C_22  and  O_23
REMARK                            x       y       z     vdW  Elec       q    Type
REMARK                         _______ _______ _______ _____ _____    ______ ____
ROOT
ATOM      1  C   UNL     1       4.512   4.618  18.778  0.00  0.00    +0.000 A 
ATOM      2  C   UNL     1       3.483   5.570  18.734  0.00  0.00    +0.000 A 
ATOM      3  C   UNL     1       3.617   6.751  17.996  0.00  0.00    +0.000 A 
ATOM      4  C   UNL     1       4.789   6.996  17.285  0.00  0.00    +0.000 A 
ATOM      5  C   UNL     1       5.836   6.056  17.345  0.00  0.00    +0.000 A 
ATOM      6  C   UNL     1       5.717   4.871  18.105  0.00  0.00    +0.000 A 
ENDROOT
BRANCH   5   7
ATOM      7  N   UNL     1       7.061   6.353  16.592  0.00  0.00    +0.000 N 
ATOM      8  O   UNL     1       7.407   5.559  15.707  0.00  0.00    +0.000 OA
ATOM      9  O   UNL     1       7.685   7.383  16.892  0.00  0.00    +0.000 OA
ENDBRANCH   5   7
BRANCH   3  10
ATOM     10  C   UNL     1       2.525   7.749  17.977  0.00  0.00    +0.000 C 
ATOM     11  N   UNL     1       2.046   8.223  19.080  0.00  0.00    +0.000 NA
BRANCH  11  12
ATOM     12  N   UNL     1       1.055   9.148  18.968  0.00  0.00    +0.000 N 
ATOM     13  C   UNL     1       0.468   9.693  20.113  0.00  0.00    +0.000 C 
ATOM     14  O   UNL     1       0.801   9.378  21.252  0.00  0.00    +0.000 OA
ATOM     15  H   UNL     1       0.741   9.459  18.057  0.00  0.00    +0.000 HD
BRANCH  13  16
ATOM     16  C   UNL     1      -0.585  10.676  19.859  0.00  0.00    +0.000 A 
ATOM     17  C   UNL     1      -0.928  11.746  20.668  0.00  0.00    +0.000 A 
ATOM     18  C   UNL     1      -2.006  12.512  20.140  0.00  0.00    +0.000 A 
ATOM     19  C   UNL     1      -2.455  12.008  18.941  0.00  0.00    +0.000 A 
ATOM     20  S   UNL     1      -1.579  10.622  18.461  0.00  0.00    +0.000 S 
ENDBRANCH  13  16
ENDBRANCH  11  12
ENDBRANCH   3  10
BRANCH   6  21
ATOM     21  O   UNL     1       6.738   3.968  18.252  0.00  0.00    +0.000 OA
ATOM     22  H   UNL     1       7.543   4.272  17.782  0.00  0.00    +0.000 HD
ENDBRANCH   6  21
BRANCH   1  23
ATOM     23  O   UNL     1       4.197   3.535  19.556  0.00  0.00    +0.000 OA
BRANCH  23  25
ATOM     24  C   UNL     1       3.402   1.836  18.084  0.00  0.00    +0.000 C 
ATOM     25  C   UNL     1       3.035   2.774  19.226  0.00  0.00    +0.000 C 
ENDBRANCH  23  25
ENDBRANCH   1  23
TORSDOF 7
ENDMDL
MODEL 3
REMARK VINA RESULT:      -7.1      1.981      2.479
REMARK  Name = 
REMARK  8 active torsions:
REMARK  status: ('A' for Active; 'I' for Inactive)
REMARK    1  A    between atoms: C_1  and  C_2
REMARK    2  A    between atoms: C_2  and  O_3
REMARK    3  A    between atoms: O_3  and  C_4
REMARK    4  A    between atoms: C_6  and  C_7
REMARK    5  A    between atoms: N_8  and  N_9
REMARK    6  A    between atoms: C_10  and  C_12
REMARK    7  A    between atoms: C_18  and  N_19
REMARK    8  A    between atoms: C_22  and  O_23
REMARK                            x       y       z     vdW  Elec       q    Type
REMARK                         _______ _______ _______ _____ _____    ______ ____
ROOT
ATOM      1  C   UNL     1       2.604   4.321  18.275  0.00  0.00    +0.000 A 
ATOM      2  C   UNL     1       2.336   5.698  18.306  0.00  0.00    +0.000 A 
ATOM      3  C   UNL     1       3.246   6.626  17.789  0.00  0.00    +0.000 A 
ATOM      4  C   UNL     1       4.443   6.186  17.227  0.00  0.00    +0.000 A 
ATOM      5  C   UNL     1       4.729   4.807  17.217  0.00  0.00    +0.000 A 
ATOM      6  C   UNL     1       3.825   3.866  17.757  0.00  0.00    +0.000 A 
ENDROOT
BRANCH   5   7
ATOM      7  N   UNL     1       6.005   4.382  16.628  0.00  0.00    +0.000 N 
ATOM      8  O   UNL     1       5.977   3.517  15.741  0.00  0.00    +0.000 OA
ATOM      9  O   UNL     1       7.042   4.911  17.058  0.00  0.00    +0.000 OA
ENDBRANCH   5   7
BRANCH   3  10
ATOM     10  C   UNL     1       2.951   8.075  17.845  0.00  0.00    +0.000 C 
ATOM     11  N   UNL     1       1.743   8.507  17.685  0.00  0.00    +0.000 NA
BRANCH  11  12
ATOM     12  N   UNL     1       1.559   9.853  17.768  0.00  0.00    +0.000 N 
ATOM     13  C   UNL     1       0.940  10.410  18.888  0.00  0.00    +0.000 C 
ATOM     14  O   UNL     1       0.534   9.741  19.834  0.00  0.00    +0.000 OA
ATOM     15  H   UNL     1       1.880  10.462  17.026  0.00  0.00    +0.000 HD
BRANCH  13  16
ATOM     16  C   UNL     1       0.802  11.866  18.857  0.00  0.00    +0.000 A 
ATOM     17  C   UNL     1       1.824  12.794  18.964  0.00  0.00    +0.000 A 
ATOM     18  C   UNL     1       1.355  14.138  18.904  0.00  0.00    +0.000 A 
ATOM     19  C   UNL     1      -0.010  14.200  18.751  0.00  0.00    +0.000 A 
ATOM     20  S   UNL     1      -0.717  12.645  18.680  0.00  0.00    +0.000 S 
ENDBRANCH  13  16
ENDBRANCH  11  12
ENDBRANCH   3  10
BRANCH   6  21
ATOM     21  O   UNL     1       4.098   2.524  17.835  0.00  0.00    +0.000 OA
ATOM     22  H   UNL     1       3.337   1.994  17.516  0.00  0.00    +0.000 HD
ENDBRANCH   6  21
BRANCH   1  23
ATOM     23  O   UNL     1       1.599   3.575  18.834  0.00  0.00    +0.000 OA
BRANCH  23  25
ATOM     24  C   UNL     1       1.614   3.182  21.186  0.00  0.00    +0.000 C 
ATOM     25  C   UNL     1       1.022   4.021  20.061  0.00  0.00    +0.000 C 
ENDBRANCH  23  25
ENDBRANCH   1  23
TORSDOF 7
ENDMDL
MODEL 4
REMARK VINA RESULT:      -7.0      2.348      2.616
REMARK  Name = 
REMARK  8 active torsions:
REMARK  status: ('A' for Active; 'I' for Inactive)
REMARK    1  A    between atoms: C_1  and  C_2
REMARK    2  A    between atoms: C_2  and  O_3
REMARK    3  A    between atoms: O_3  and  C_4
REMARK    4  A    between atoms: C_6  and  C_7
REMARK    5  A    between atoms: N_8  and  N_9
REMARK    6  A    between atoms: C_10  and  C_12
REMARK    7  A    between atoms: C_18  and  N_19
REMARK    8  A    between atoms: C_22  and  O_23
REMARK                            x       y       z     vdW  Elec       q    Type
REMARK                         _______ _______ _______ _____ _____    ______ ____
ROOT
ATOM      1  C   UNL     1       2.957   4.246  18.466  0.00  0.00    +0.000 A 
ATOM      2  C   UNL     1       2.395   5.432  18.960  0.00  0.00    +0.000 A 
ATOM      3  C   UNL     1       2.839   6.684  18.520  0.00  0.00    +0.000 A 
ATOM      4  C   UNL     1       3.855   6.766  17.571  0.00  0.00    +0.000 A 
ATOM      5  C   UNL     1       4.441   5.579  17.090  0.00  0.00    +0.000 A 
ATOM      6  C   UNL     1       4.014   4.312  17.546  0.00  0.00    +0.000 A 
ENDROOT
BRANCH   5   7
ATOM      7  N   UNL     1       5.517   5.705  16.100  0.00  0.00    +0.000 N 
ATOM      8  O   UNL     1       6.538   5.021  16.259  0.00  0.00    +0.000 OA
ATOM      9  O   UNL     1       5.345   6.498  15.161  0.00  0.00    +0.000 OA
ENDBRANCH   5   7
BRANCH   3  10
ATOM     10  C   UNL     1       2.242   7.923  19.066  0.00  0.00    +0.000 C 
ATOM     11  N   UNL     1       1.582   7.901  20.177  0.00  0.00    +0.000 NA
BRANCH  11  12
ATOM     12  N   UNL     1       1.081   9.090  20.613  0.00  0.00    +0.000 N 
ATOM     13  C   UNL     1      -0.030   9.117  21.459  0.00  0.00    +0.000 C 
ATOM     14  O   UNL     1      -0.604   8.103  21.846  0.00  0.00    +0.000 OA
ATOM     15  H   UNL     1       1.515   9.962  20.340  0.00  0.00    +0.000 HD
BRANCH  13  16
ATOM     16  C   UNL     1      -0.471  10.454  21.856  0.00  0.00    +0.000 A 
ATOM     17  C   UNL     1      -1.135  10.791  23.024  0.00  0.00    +0.000 A 
ATOM     18  C   UNL     1      -1.431  12.182  23.106  0.00  0.00    +0.000 A 
ATOM     19  C   UNL     1      -0.984  12.869  22.002  0.00  0.00    +0.000 A 
ATOM     20  S   UNL     1      -0.212  11.839  20.877  0.00  0.00    +0.000 S 
ENDBRANCH  13  16
ENDBRANCH  11  12
ENDBRANCH   3  10
BRANCH   6  21
ATOM     21  O   UNL     1       4.608   3.138  17.161  0.00  0.00    +0.000 OA
ATOM     22  H   UNL     1       5.153   2.768  17.887  0.00  0.00    +0.000 HD
ENDBRANCH   6  21
BRANCH   1  23
ATOM     23  O   UNL     1       2.397   3.125  19.021  0.00  0.00    +0.000 OA
BRANCH  23  25
ATOM     24  C   UNL     1       1.658   2.669  21.242  0.00  0.00    +0.000 C 
ATOM     25  C   UNL     1       2.857   2.698  20.304  0.00  0.00    +0.000 C 
ENDBRANCH  23  25
ENDBRANCH   1  23
TORSDOF 7
ENDMDL
MODEL 5
REMARK VINA RESULT:      -7.0      2.064      2.439
REMARK  Name = 
REMARK  8 active torsions:
REMARK  status: ('A' for Active; 'I' for Inactive)
REMARK    1  A    between atoms: C_1  and  C_2
REMARK    2  A    between atoms: C_2  and  O_3
REMARK    3  A    between atoms: O_3  and  C_4
REMARK    4  A    between atoms: C_6  and  C_7
REMARK    5  A    between atoms: N_8  and  N_9
REMARK    6  A    between atoms: C_10  and  C_12
REMARK    7  A    between atoms: C_18  and  N_19
REMARK    8  A    between atoms: C_22  and  O_23
REMARK                            x       y       z     vdW  Elec       q    Type
REMARK                         _______ _______ _______ _____ _____    ______ ____
ROOT
ATOM      1  C   UNL     1       2.609   4.295  18.097  0.00  0.00    +0.000 A 
ATOM      2  C   UNL     1       2.393   5.677  18.190  0.00  0.00    +0.000 A 
ATOM      3  C   UNL     1       3.356   6.593  17.754  0.00  0.00    +0.000 A 
ATOM      4  C   UNL     1       4.554   6.136  17.211  0.00  0.00    +0.000 A 
ATOM      5  C   UNL     1       4.788   4.749  17.138  0.00  0.00    +0.000 A 
ATOM      6  C   UNL     1       3.830   3.818  17.597  0.00  0.00    +0.000 A 
ENDROOT
BRANCH   5   7
ATOM      7  N   UNL     1       6.067   4.304  16.572  0.00  0.00    +0.000 N 
ATOM      8  O   UNL     1       7.111   4.690  17.116  0.00  0.00    +0.000 OA
ATOM      9  O   UNL     1       6.029   3.569  15.572  0.00  0.00    +0.000 OA
ENDBRANCH   5   7
BRANCH   3  10
ATOM     10  C   UNL     1       3.114   8.048  17.877  0.00  0.00    +0.000 C 
ATOM     11  N   UNL     1       1.974   8.556  17.540  0.00  0.00    +0.000 NA
BRANCH  11  12
ATOM     12  N   UNL     1       1.834   9.901  17.700  0.00  0.00    +0.000 N 
ATOM     13  C   UNL     1       1.031  10.407  18.725  0.00  0.00    +0.000 C 
ATOM     14  O   UNL     1       0.422   9.692  19.516  0.00  0.00    +0.000 OA
ATOM     15  H   UNL     1       2.318  10.545  17.088  0.00  0.00    +0.000 HD
BRANCH  13  16
ATOM     16  C   UNL     1       0.962  11.866  18.791  0.00  0.00    +0.000 A 
ATOM     17  C   UNL     1      -0.146  12.626  19.128  0.00  0.00    +0.000 A 
ATOM     18  C   UNL     1       0.114  14.026  19.092  0.00  0.00    +0.000 A 
ATOM     19  C   UNL     1       1.413  14.297  18.730  0.00  0.00    +0.000 A 
ATOM     20  S   UNL     1       2.308  12.871  18.439  0.00  0.00    +0.000 S 
ENDBRANCH  13  16
ENDBRANCH  11  12
ENDBRANCH   3  10
BRANCH   6  21
ATOM     21  O   UNL     1       4.048   2.464  17.614  0.00  0.00    +0.000 OA
ATOM     22  H   UNL     1       3.490   2.028  18.292  0.00  0.00    +0.000 HD
ENDBRANCH   6  21
BRANCH   1  23
ATOM     23  O   UNL     1       1.557   3.562  18.581  0.00  0.00    +0.000 OA
BRANCH  23  25
ATOM     24  C   UNL     1       1.535   2.832  20.851  0.00  0.00    +0.000 C 
ATOM     25  C   UNL     1       1.038   3.886  19.870  0.00  0.00    +0.000 C 
ENDBRANCH  23  25
ENDBRANCH   1  23
TORSDOF 7
ENDMDL
MODEL 6
REMARK VINA RESULT:      -7.0      1.697      1.995
REMARK  Name = 
REMARK  8 active torsions:
REMARK  status: ('A' for Active; 'I' for Inactive)
REMARK    1  A    between atoms: C_1  and  C_2
REMARK    2  A    between atoms: C_2  and  O_3
REMARK    3  A    between atoms: O_3  and  C_4
REMARK    4  A    between atoms: C_6  and  C_7
REMARK    5  A    between atoms: N_8  and  N_9
REMARK    6  A    between atoms: C_10  and  C_12
REMARK    7  A    between atoms: C_18  and  N_19
REMARK    8  A    between atoms: C_22  and  O_23
REMARK                            x       y       z     vdW  Elec       q    Type
REMARK                         _______ _______ _______ _____ _____    ______ ____
ROOT
ATOM      1  C   UNL     1       3.430   4.512  17.929  0.00  0.00    +0.000 A 
ATOM      2  C   UNL     1       2.979   5.828  18.105  0.00  0.00    +0.000 A 
ATOM      3  C   UNL     1       3.632   6.906  17.499  0.00  0.00    +0.000 A 
ATOM      4  C   UNL     1       4.751   6.681  16.701  0.00  0.00    +0.000 A 
ATOM      5  C   UNL     1       5.224   5.364  16.541  0.00  0.00    +0.000 A 
ATOM      6  C   UNL     1       4.583   4.272  17.167  0.00  0.00    +0.000 A 
ENDROOT
BRANCH   5   7
ATOM      7  N   UNL     1       6.413   5.166  15.702  0.00  0.00    +0.000 N 
ATOM      8  O   UNL     1       6.383   4.263  14.854  0.00  0.00    +0.000 OA
ATOM      9  O   UNL     1       7.385   5.912  15.897  0.00  0.00    +0.000 OA
ENDBRANCH   5   7
BRANCH   3  10
ATOM     10  C   UNL     1       3.148   8.289  17.710  0.00  0.00    +0.000 C 
ATOM     11  N   UNL     1       1.886   8.560  17.650  0.00  0.00    +0.000 NA
BRANCH  11  12
ATOM     12  N   UNL     1       1.528   9.855  17.872  0.00  0.00    +0.000 N 
ATOM     13  C   UNL     1       0.912  10.218  19.072  0.00  0.00    +0.000 C 
ATOM     14  O   UNL     1       0.663   9.416  19.968  0.00  0.00    +0.000 OA
ATOM     15  H   UNL     1       1.716  10.567  17.178  0.00  0.00    +0.000 HD
BRANCH  13  16
ATOM     16  C   UNL     1       0.578  11.637  19.189  0.00  0.00    +0.000 A 
ATOM     17  C   UNL     1      -0.444  12.301  18.532  0.00  0.00    +0.000 A 
ATOM     18  C   UNL     1      -0.500  13.687  18.859  0.00  0.00    +0.000 A 
ATOM     19  C   UNL     1       0.479  14.042  19.759  0.00  0.00    +0.000 A 
ATOM     20  S   UNL     1       1.454  12.710  20.202  0.00  0.00    +0.000 S 
ENDBRANCH  13  16
ENDBRANCH  11  12
ENDBRANCH   3  10
BRANCH   6  21
ATOM     21  O   UNL     1       5.055   2.986  17.100  0.00  0.00    +0.000 OA
ATOM     22  H   UNL     1       5.973   2.968  16.755  0.00  0.00    +0.000 HD
ENDBRANCH   6  21
BRANCH   1  23
ATOM     23  O   UNL     1       2.667   3.597  18.606  0.00  0.00    +0.000 OA
BRANCH  23  25
ATOM     24  C   UNL     1       1.109   3.481  20.408  0.00  0.00    +0.000 C 
ATOM     25  C   UNL     1       1.339   3.962  18.982  0.00  0.00    +0.000 C 
ENDBRANCH  23  25
ENDBRANCH   1  23
TORSDOF 7
ENDMDL
MODEL 7
REMARK VINA RESULT:      -7.0      2.054      2.266
REMARK  Name = 
REMARK  8 active torsions:
REMARK  status: ('A' for Active; 'I' for Inactive)
REMARK    1  A    between atoms: C_1  and  C_2
REMARK    2  A    between atoms: C_2  and  O_3
REMARK    3  A    between atoms: O_3  and  C_4
REMARK    4  A    between atoms: C_6  and  C_7
REMARK    5  A    between atoms: N_8  and  N_9
REMARK    6  A    between atoms: C_10  and  C_12
REMARK    7  A    between atoms: C_18  and  N_19
REMARK    8  A    between atoms: C_22  and  O_23
REMARK                            x       y       z     vdW  Elec       q    Type
REMARK                         _______ _______ _______ _____ _____    ______ ____
ROOT
ATOM      1  C   UNL     1       3.542   4.212  17.509  0.00  0.00    +0.000 A 
ATOM      2  C   UNL     1       2.855   5.348  17.961  0.00  0.00    +0.000 A 
ATOM      3  C   UNL     1       3.364   6.635  17.753  0.00  0.00    +0.000 A 
ATOM      4  C   UNL     1       4.573   6.803  17.082  0.00  0.00    +0.000 A 
ATOM      5  C   UNL     1       5.280   5.665  16.649  0.00  0.00    +0.000 A 
ATOM      6  C   UNL     1       4.784   4.362  16.875  0.00  0.00    +0.000 A 
ENDROOT
BRANCH   5   7
ATOM      7  N   UNL     1       6.557   5.881  15.956  0.00  0.00    +0.000 N 
ATOM      8  O   UNL     1       6.675   5.442  14.803  0.00  0.00    +0.000 OA
ATOM      9  O   UNL     1       7.449   6.486  16.570  0.00  0.00    +0.000 OA
ENDBRANCH   5   7
BRANCH   3  10
ATOM     10  C   UNL     1       2.631   7.819  18.251  0.00  0.00    +0.000 C 
ATOM     11  N   UNL     1       2.055   7.798  19.409  0.00  0.00    +0.000 NA
BRANCH  11  12
ATOM     12  N   UNL     1       1.416   8.936  19.794  0.00  0.00    +0.000 N 
ATOM     13  C   UNL     1       1.097   9.143  21.138  0.00  0.00    +0.000 C 
ATOM     14  O   UNL     1       1.364   8.335  22.023  0.00  0.00    +0.000 OA
ATOM     15  H   UNL     1       1.178   9.648  19.115  0.00  0.00    +0.000 HD
BRANCH  13  16
ATOM     16  C   UNL     1       0.413  10.404  21.423  0.00  0.00    +0.000 A 
ATOM     17  C   UNL     1      -0.552  10.618  22.393  0.00  0.00    +0.000 A 
ATOM     18  C   UNL     1      -1.028  11.960  22.410  0.00  0.00    +0.000 A 
ATOM     19  C   UNL     1      -0.412  12.735  21.454  0.00  0.00    +0.000 A 
ATOM     20  S   UNL     1       0.731  11.845  20.548  0.00  0.00    +0.000 S 
ENDBRANCH  13  16
ENDBRANCH  11  12
ENDBRANCH   3  10
BRANCH   6  21
ATOM     21  O   UNL     1       5.476   3.227  16.537  0.00  0.00    +0.000 OA
ATOM     22  H   UNL     1       6.379   3.448  16.225  0.00  0.00    +0.000 HD
ENDBRANCH   6  21
BRANCH   1  23
ATOM     23  O   UNL     1       2.891   3.045  17.814  0.00  0.00    +0.000 OA
BRANCH  23  25
ATOM     24  C   UNL     1       4.008   2.368  19.808  0.00  0.00    +0.000 C 
ATOM     25  C   UNL     1       2.665   2.730  19.187  0.00  0.00    +0.000 C 
ENDBRANCH  23  25
ENDBRANCH   1  23
TORSDOF 7
ENDMDL
MODEL 8
REMARK VINA RESULT:      -6.9      2.353      4.073
REMARK  Name = 
REMARK  8 active torsions:
REMARK  status: ('A' for Active; 'I' for Inactive)
REMARK    1  A    between atoms: C_1  and  C_2
REMARK    2  A    between atoms: C_2  and  O_3
REMARK    3  A    between atoms: O_3  and  C_4
REMARK    4  A    between atoms: C_6  and  C_7
REMARK    5  A    between atoms: N_8  and  N_9
REMARK    6  A    between atoms: C_10  and  C_12
REMARK    7  A    between atoms: C_18  and  N_19
REMARK    8  A    between atoms: C_22  and  O_23
REMARK                            x       y       z     vdW  Elec       q    Type
REMARK                         _______ _______ _______ _____ _____    ______ ____
ROOT
ATOM      1  C   UNL     1       4.832   4.526  18.850  0.00  0.00    +0.000 A 
ATOM      2  C   UNL     1       4.163   5.754  18.752  0.00  0.00    +0.000 A 
ATOM      3  C   UNL     1       2.969   5.988  19.444  0.00  0.00    +0.000 A 
ATOM      4  C   UNL     1       2.427   4.990  20.251  0.00  0.00    +0.000 A 
ATOM      5  C   UNL     1       3.081   3.746  20.333  0.00  0.00    +0.000 A 
ATOM      6  C   UNL     1       4.274   3.494  19.620  0.00  0.00    +0.000 A 
ENDROOT
BRANCH   5   7
ATOM      7  N   UNL     1       2.474   2.714  21.183  0.00  0.00    +0.000 N 
ATOM      8  O   UNL     1       1.254   2.521  21.084  0.00  0.00    +0.000 OA
ATOM      9  O   UNL     1       3.220   2.097  21.960  0.00  0.00    +0.000 OA
ENDBRANCH   5   7
BRANCH   3  10
ATOM     10  C   UNL     1       2.271   7.286  19.314  0.00  0.00    +0.000 C 
ATOM     11  N   UNL     1       1.785   7.879  20.356  0.00  0.00    +0.000 NA
BRANCH  11  12
ATOM     12  N   UNL     1       1.174   9.077  20.147  0.00  0.00    +0.000 N 
ATOM     13  C   UNL     1      -0.015   9.385  20.812  0.00  0.00    +0.000 C 
ATOM     14  O   UNL     1      -0.563   8.617  21.598  0.00  0.00    +0.000 OA
ATOM     15  H   UNL     1       1.580   9.759  19.519  0.00  0.00    +0.000 HD
BRANCH  13  16
ATOM     16  C   UNL     1      -0.573  10.701  20.502  0.00  0.00    +0.000 A 
ATOM     17  C   UNL     1      -1.163  11.088  19.311  0.00  0.00    +0.000 A 
ATOM     18  C   UNL     1      -1.598  12.444  19.327  0.00  0.00    +0.000 A 
ATOM     19  C   UNL     1      -1.331  13.055  20.530  0.00  0.00    +0.000 A 
ATOM     20  S   UNL     1      -0.562  11.996  21.628  0.00  0.00    +0.000 S 
ENDBRANCH  13  16
ENDBRANCH  11  12
ENDBRANCH   3  10
BRANCH   6  21
ATOM     21  O   UNL     1       4.900   2.274  19.613  0.00  0.00    +0.000 OA
ATOM     22  H   UNL     1       4.249   1.548  19.518  0.00  0.00    +0.000 HD
ENDBRANCH   6  21
BRANCH   1  23
ATOM     23  O   UNL     1       5.975   4.486  18.096  0.00  0.00    +0.000 OA
BRANCH  23  25
ATOM     24  C   UNL     1       7.713   6.094  18.379  0.00  0.00    +0.000 C 
ATOM     25  C   UNL     1       6.484   5.709  17.565  0.00  0.00    +0.000 C 
ENDBRANCH  23  25
ENDBRANCH   1  23
TORSDOF 7
ENDMDL
MODEL 9
REMARK VINA RESULT:      -6.9      2.223      2.460
REMARK  Name = 
REMARK  8 active torsions:
REMARK  status: ('A' for Active; 'I' for Inactive)
REMARK    1  A    between atoms: C_1  and  C_2
REMARK    2  A    between atoms: C_2  and  O_3
REMARK    3  A    between atoms: O_3  and  C_4
REMARK    4  A    between atoms: C_6  and  C_7
REMARK    5  A    between atoms: N_8  and  N_9
REMARK    6  A    between atoms: C_10  and  C_12
REMARK    7  A    between atoms: C_18  and  N_19
REMARK    8  A    between atoms: C_22  and  O_23
REMARK                            x       y       z     vdW  Elec       q    Type
REMARK                         _______ _______ _______ _____ _____    ______ ____
ROOT
ATOM      1  C   UNL     1       3.666   4.584  18.817  0.00  0.00    +0.000 A 
ATOM      2  C   UNL     1       2.799   5.606  19.230  0.00  0.00    +0.000 A 
ATOM      3  C   UNL     1       2.863   6.884  18.665  0.00  0.00    +0.000 A 
ATOM      4  C   UNL     1       3.798   7.157  17.670  0.00  0.00    +0.000 A 
ATOM      5  C   UNL     1       4.688   6.142  17.269  0.00  0.00    +0.000 A 
ATOM      6  C   UNL     1       4.645   4.856  17.850  0.00  0.00    +0.000 A 
ENDROOT
BRANCH   5   7
ATOM      7  N   UNL     1       5.668   6.470  16.226  0.00  0.00    +0.000 N 
ATOM      8  O   UNL     1       5.245   6.741  15.094  0.00  0.00    +0.000 OA
ATOM      9  O   UNL     1       6.869   6.451  16.539  0.00  0.00    +0.000 OA
ENDBRANCH   5   7
BRANCH   3  10
ATOM     10  C   UNL     1       1.949   7.953  19.127  0.00  0.00    +0.000 C 
ATOM     11  N   UNL     1       1.536   7.982  20.352  0.00  0.00    +0.000 NA
BRANCH  11  12
ATOM     12  N   UNL     1       0.711   9.009  20.694  0.00  0.00    +0.000 N 
ATOM     13  C   UNL     1       0.886   9.677  21.907  0.00  0.00    +0.000 C 
ATOM     14  O   UNL     1       1.765   9.386  22.714  0.00  0.00    +0.000 OA
ATOM     15  H   UNL     1      -0.027   9.306  20.068  0.00  0.00    +0.000 HD
BRANCH  13  16
ATOM     16  C   UNL     1      -0.065  10.761  22.158  0.00  0.00    +0.000 A 
ATOM     17  C   UNL     1      -1.129  10.737  23.043  0.00  0.00    +0.000 A 
ATOM     18  C   UNL     1      -1.870  11.954  23.046  0.00  0.00    +0.000 A 
ATOM     19  C   UNL     1      -1.350  12.873  22.165  0.00  0.00    +0.000 A 
ATOM     20  S   UNL     1       0.021  12.269  21.344  0.00  0.00    +0.000 S 
ENDBRANCH  13  16
ENDBRANCH  11  12
ENDBRANCH   3  10
BRANCH   6  21
ATOM     21  O   UNL     1       5.540   3.864  17.544  0.00  0.00    +0.000 OA
ATOM     22  H   UNL     1       6.272   4.212  16.991  0.00  0.00    +0.000 HD
ENDBRANCH   6  21
BRANCH   1  23
ATOM     23  O   UNL     1       3.455   3.408  19.491  0.00  0.00    +0.000 OA
BRANCH  23  25
ATOM     24  C   UNL     1       1.257   2.486  19.508  0.00  0.00    +0.000 C 
ATOM     25  C   UNL     1       2.641   2.409  18.879  0.00  0.00    +0.000 C 
ENDBRANCH  23  25
ENDBRANCH   1  23
TORSDOF 7
ENDMDL
