MODEL 1
REMARK VINA RESULT:      -8.1      0.000      0.000
REMARK  Name = 
REMARK  6 active torsions:
REMARK  status: ('A' for Active; 'I' for Inactive)
REMARK    1  A    between atoms: C_1  and  C_2
REMARK    2  A    between atoms: N_7  and  S_8
REMARK    3  A    between atoms: S_8  and  C_11
REMARK    4  A    between atoms: C_14  and  S_15
REMARK    5  A    between atoms: S_15  and  N_16
REMARK    6  A    between atoms: C_23  and  C_24
REMARK                            x       y       z     vdW  Elec       q    Type
REMARK                         _______ _______ _______ _____ _____    ______ ____
ROOT
ATOM      1  S   UNL     1       4.330   3.688  18.588  0.00  0.00    +0.000 S 
ATOM      2  O   UNL     1       3.617   2.944  17.565  0.00  0.00    +0.000 OA
ATOM      3  O   UNL     1       4.908   3.031  19.743  0.00  0.00    +0.000 OA
ENDROOT
BRANCH   1  10
ATOM      4  C   UNL     1       7.655   4.965  12.562  0.00  0.00    +0.000 C 
ATOM      5  C   UNL     1       6.998   4.783  13.905  0.00  0.00    +0.000 A 
ATOM      6  C   UNL     1       7.663   5.245  15.058  0.00  0.00    +0.000 A 
ATOM      7  C   UNL     1       7.076   5.067  16.319  0.00  0.00    +0.000 A 
ATOM      8  N   UNL     1       7.569   5.403  17.560  0.00  0.00    +0.000 NA
ATOM      9  C   UNL     1       6.649   5.010  18.413  0.00  0.00    +0.000 A 
ATOM     10  N   UNL     1       5.582   4.461  17.767  0.00  0.00    +0.000 N 
ATOM     11  C   UNL     1       5.825   4.458  16.414  0.00  0.00    +0.000 A 
ATOM     12  C   UNL     1       5.127   4.012  15.285  0.00  0.00    +0.000 A 
ATOM     13  C   UNL     1       5.742   4.151  14.025  0.00  0.00    +0.000 A 
ATOM     14  C   UNL     1       5.029   3.605  12.815  0.00  0.00    +0.000 C 
ENDBRANCH   1  10
BRANCH   1  15
ATOM     15  C   UNL     1       3.278   4.996  19.167  0.00  0.00    +0.000 A 
ATOM     16  C   UNL     1       3.252   6.214  18.477  0.00  0.00    +0.000 A 
ATOM     17  C   UNL     1       2.496   7.277  18.976  0.00  0.00    +0.000 A 
ATOM     18  C   UNL     1       1.759   7.109  20.153  0.00  0.00    +0.000 A 
ATOM     19  C   UNL     1       1.740   5.875  20.812  0.00  0.00    +0.000 A 
ATOM     20  C   UNL     1       2.494   4.810  20.312  0.00  0.00    +0.000 A 
BRANCH  18  21
ATOM     21  S   UNL     1       0.985   8.519  20.902  0.00  0.00    +0.000 S 
ATOM     22  O   UNL     1       1.151   9.661  20.033  0.00  0.00    +0.000 OA
ATOM     23  O   UNL     1      -0.304   8.123  21.419  0.00  0.00    +0.000 OA
BRANCH  21  24
ATOM     24  N   UNL     1       1.951   8.811  22.240  0.00  0.00    +0.000 NA
ATOM     25  H   UNL     1       2.931   8.821  21.954  0.00  0.00    +0.000 HD
ATOM     26  H   UNL     1       1.658   9.681  22.687  0.00  0.00    +0.000 HD
ENDBRANCH  21  24
ENDBRANCH  18  21
ENDBRANCH   1  15
TORSDOF 4
ENDMDL
MODEL 2
REMARK VINA RESULT:      -7.8      2.718      3.757
REMARK  Name = 
REMARK  6 active torsions:
REMARK  status: ('A' for Active; 'I' for Inactive)
REMARK    1  A    between atoms: C_1  and  C_2
REMARK    2  A    between atoms: N_7  and  S_8
REMARK    3  A    between atoms: S_8  and  C_11
REMARK    4  A    between atoms: C_14  and  S_15
REMARK    5  A    between atoms: S_15  and  N_16
REMARK    6  A    between atoms: C_23  and  C_24
REMARK                            x       y       z     vdW  Elec       q    Type
REMARK                         _______ _______ _______ _____ _____    ______ ____
ROOT
ATOM      1  S   UNL     1       1.918   4.846  20.310  0.00  0.00    +0.000 S 
ATOM      2  O   UNL     1       0.581   4.288  20.376  0.00  0.00    +0.000 OA
ATOM      3  O   UNL     1       2.880   4.645  21.376  0.00  0.00    +0.000 OA
ENDROOT
BRANCH   1  10
ATOM      4  C   UNL     1       7.296   4.511  15.842  0.00  0.00    +0.000 C 
ATOM      5  C   UNL     1       6.097   4.485  16.753  0.00  0.00    +0.000 A 
ATOM      6  C   UNL     1       4.919   3.851  16.310  0.00  0.00    +0.000 A 
ATOM      7  C   UNL     1       3.785   3.833  17.135  0.00  0.00    +0.000 A 
ATOM      8  N   UNL     1       2.536   3.311  16.882  0.00  0.00    +0.000 NA
ATOM      9  C   UNL     1       1.831   3.568  17.962  0.00  0.00    +0.000 A 
ATOM     10  N   UNL     1       2.584   4.208  18.900  0.00  0.00    +0.000 N 
ATOM     11  C   UNL     1       3.846   4.419  18.399  0.00  0.00    +0.000 A 
ATOM     12  C   UNL     1       5.011   5.033  18.879  0.00  0.00    +0.000 A 
ATOM     13  C   UNL     1       6.132   5.089  18.027  0.00  0.00    +0.000 A 
ATOM     14  C   UNL     1       7.362   5.815  18.508  0.00  0.00    +0.000 C 
ENDBRANCH   1  10
BRANCH   1  15
ATOM     15  C   UNL     1       1.785   6.591  20.011  0.00  0.00    +0.000 A 
ATOM     16  C   UNL     1       1.276   7.424  21.016  0.00  0.00    +0.000 A 
ATOM     17  C   UNL     1       1.084   8.783  20.758  0.00  0.00    +0.000 A 
ATOM     18  C   UNL     1       1.418   9.303  19.503  0.00  0.00    +0.000 A 
ATOM     19  C   UNL     1       1.980   8.483  18.519  0.00  0.00    +0.000 A 
ATOM     20  C   UNL     1       2.174   7.123  18.776  0.00  0.00    +0.000 A 
BRANCH  18  21
ATOM     21  S   UNL     1       0.967  10.973  19.106  0.00  0.00    +0.000 S 
ATOM     22  O   UNL     1      -0.331  10.967  18.472  0.00  0.00    +0.000 OA
ATOM     23  O   UNL     1       1.272  11.819  20.234  0.00  0.00    +0.000 OA
BRANCH  21  24
ATOM     24  N   UNL     1       2.064  11.383  17.907  0.00  0.00    +0.000 NA
ATOM     25  H   UNL     1       2.458  10.532  17.503  0.00  0.00    +0.000 HD
ATOM     26  H   UNL     1       1.606  11.977  17.216  0.00  0.00    +0.000 HD
ENDBRANCH  21  24
ENDBRANCH  18  21
ENDBRANCH   1  15
TORSDOF 4
ENDMDL
MODEL 3
REMARK VINA RESULT:      -7.6      0.876      1.021
REMARK  Name = 
REMARK  6 active torsions:
REMARK  status: ('A' for Active; 'I' for Inactive)
REMARK    1  A    between atoms: C_1  and  C_2
REMARK    2  A    between atoms: N_7  and  S_8
REMARK    3  A    between atoms: S_8  and  C_11
REMARK    4  A    between atoms: C_14  and  S_15
REMARK    5  A    between atoms: S_15  and  N_16
REMARK    6  A    between atoms: C_23  and  C_24
REMARK                            x       y       z     vdW  Elec       q    Type
REMARK                         _______ _______ _______ _____ _____    ______ ____
ROOT
ATOM      1  S   UNL     1       3.781   3.928  18.616  0.00  0.00    +0.000 S 
ATOM      2  O   UNL     1       3.039   3.386  17.493  0.00  0.00    +0.000 OA
ATOM      3  O   UNL     1       4.236   3.087  19.705  0.00  0.00    +0.000 OA
ENDROOT
BRANCH   1  10
ATOM      4  C   UNL     1       7.800   4.993  12.986  0.00  0.00    +0.000 C 
ATOM      5  C   UNL     1       6.990   4.856  14.248  0.00  0.00    +0.000 A 
ATOM      6  C   UNL     1       7.537   5.319  15.462  0.00  0.00    +0.000 A 
ATOM      7  C   UNL     1       6.806   5.182  16.651  0.00  0.00    +0.000 A 
ATOM      8  N   UNL     1       7.168   5.526  17.935  0.00  0.00    +0.000 NA
ATOM      9  C   UNL     1       6.146   5.176  18.685  0.00  0.00    +0.000 A 
ATOM     10  N   UNL     1       5.141   4.648  17.930  0.00  0.00    +0.000 N 
ATOM     11  C   UNL     1       5.534   4.613  16.614  0.00  0.00    +0.000 A 
ATOM     12  C   UNL     1       4.953   4.167  15.420  0.00  0.00    +0.000 A 
ATOM     13  C   UNL     1       5.709   4.265  14.235  0.00  0.00    +0.000 A 
ATOM     14  C   UNL     1       5.119   3.718  12.961  0.00  0.00    +0.000 C 
ENDBRANCH   1  10
BRANCH   1  15
ATOM     15  C   UNL     1       2.847   5.269  19.311  0.00  0.00    +0.000 A 
ATOM     16  C   UNL     1       2.937   6.542  18.732  0.00  0.00    +0.000 A 
ATOM     17  C   UNL     1       2.277   7.620  19.325  0.00  0.00    +0.000 A 
ATOM     18  C   UNL     1       1.518   7.416  20.482  0.00  0.00    +0.000 A 
ATOM     19  C   UNL     1       1.381   6.135  21.028  0.00  0.00    +0.000 A 
ATOM     20  C   UNL     1       2.040   5.054  20.435  0.00  0.00    +0.000 A 
BRANCH  18  21
ATOM     21  S   UNL     1       0.869   8.818  21.355  0.00  0.00    +0.000 S 
ATOM     22  O   UNL     1      -0.530   8.588  21.634  0.00  0.00    +0.000 OA
ATOM     23  O   UNL     1       1.807   9.203  22.382  0.00  0.00    +0.000 OA
BRANCH  21  24
ATOM     24  N   UNL     1       0.917  10.034  20.203  0.00  0.00    +0.000 NA
ATOM     25  H   UNL     1      -0.013  10.444  20.104  0.00  0.00    +0.000 HD
ATOM     26  H   UNL     1       1.629  10.718  20.461  0.00  0.00    +0.000 HD
ENDBRANCH  21  24
ENDBRANCH  18  21
ENDBRANCH   1  15
TORSDOF 4
ENDMDL
MODEL 4
REMARK VINA RESULT:      -7.6      0.519      1.118
REMARK  Name = 
REMARK  6 active torsions:
REMARK  status: ('A' for Active; 'I' for Inactive)
REMARK    1  A    between atoms: C_1  and  C_2
REMARK    2  A    between atoms: N_7  and  S_8
REMARK    3  A    between atoms: S_8  and  C_11
REMARK    4  A    between atoms: C_14  and  S_15
REMARK    5  A    between atoms: S_15  and  N_16
REMARK    6  A    between atoms: C_23  and  C_24
REMARK                            x       y       z     vdW  Elec       q    Type
REMARK                         _______ _______ _______ _____ _____    ______ ____
ROOT
ATOM      1  S   UNL     1       3.796   3.920  18.086  0.00  0.00    +0.000 S 
ATOM      2  O   UNL     1       2.913   3.552  16.995  0.00  0.00    +0.000 OA
ATOM      3  O   UNL     1       4.226   2.954  19.077  0.00  0.00    +0.000 OA
ENDROOT
BRANCH   1  10
ATOM      4  C   UNL     1       7.642   4.644  12.282  0.00  0.00    +0.000 C 
ATOM      5  C   UNL     1       6.878   4.576  13.579  0.00  0.00    +0.000 A 
ATOM      6  C   UNL     1       7.512   4.998  14.765  0.00  0.00    +0.000 A 
ATOM      7  C   UNL     1       6.825   4.923  15.986  0.00  0.00    +0.000 A 
ATOM      8  N   UNL     1       7.267   5.241  17.250  0.00  0.00    +0.000 NA
ATOM      9  C   UNL     1       6.253   4.976  18.045  0.00  0.00    +0.000 A 
ATOM     10  N   UNL     1       5.178   4.528  17.337  0.00  0.00    +0.000 N 
ATOM     11  C   UNL     1       5.510   4.457  16.006  0.00  0.00    +0.000 A 
ATOM     12  C   UNL     1       4.845   4.055  14.840  0.00  0.00    +0.000 A 
ATOM     13  C   UNL     1       5.555   4.089  13.625  0.00  0.00    +0.000 A 
ATOM     14  C   UNL     1       4.869   3.587  12.380  0.00  0.00    +0.000 C 
ENDBRANCH   1  10
BRANCH   1  15
ATOM     15  C   UNL     1       3.085   5.306  18.939  0.00  0.00    +0.000 A 
ATOM     16  C   UNL     1       2.536   5.120  20.215  0.00  0.00    +0.000 A 
ATOM     17  C   UNL     1       1.896   6.183  20.855  0.00  0.00    +0.000 A 
ATOM     18  C   UNL     1       1.824   7.429  20.224  0.00  0.00    +0.000 A 
ATOM     19  C   UNL     1       2.422   7.630  18.975  0.00  0.00    +0.000 A 
ATOM     20  C   UNL     1       3.065   6.568  18.334  0.00  0.00    +0.000 A 
BRANCH  18  21
ATOM     21  S   UNL     1       0.822   8.708  20.936  0.00  0.00    +0.000 S 
ATOM     22  O   UNL     1       0.829   9.852  20.054  0.00  0.00    +0.000 OA
ATOM     23  O   UNL     1      -0.402   8.121  21.430  0.00  0.00    +0.000 OA
BRANCH  21  24
ATOM     24  N   UNL     1       1.698   9.162  22.290  0.00  0.00    +0.000 NA
ATOM     25  H   UNL     1       1.747   8.378  22.941  0.00  0.00    +0.000 HD
ATOM     26  H   UNL     1       2.618   9.498  22.002  0.00  0.00    +0.000 HD
ENDBRANCH  21  24
ENDBRANCH  18  21
ENDBRANCH   1  15
TORSDOF 4
ENDMDL
MODEL 5
REMARK VINA RESULT:      -7.4      1.486      1.932
REMARK  Name = 
REMARK  6 active torsions:
REMARK  status: ('A' for Active; 'I' for Inactive)
REMARK    1  A    between atoms: C_1  and  C_2
REMARK    2  A    between atoms: N_7  and  S_8
REMARK    3  A    between atoms: S_8  and  C_11
REMARK    4  A    between atoms: C_14  and  S_15
REMARK    5  A    between atoms: S_15  and  N_16
REMARK    6  A    between atoms: C_23  and  C_24
REMARK                            x       y       z     vdW  Elec       q    Type
REMARK                         _______ _______ _______ _____ _____    ______ ____
ROOT
ATOM      1  S   UNL     1       4.152   4.545  18.071  0.00  0.00    +0.000 S 
ATOM      2  O   UNL     1       3.288   3.765  17.204  0.00  0.00    +0.000 OA
ATOM      3  O   UNL     1       4.632   4.025  19.335  0.00  0.00    +0.000 OA
ENDROOT
BRANCH   1  10
ATOM      4  C   UNL     1       7.418   4.160  11.892  0.00  0.00    +0.000 C 
ATOM      5  C   UNL     1       6.792   4.328  13.252  0.00  0.00    +0.000 A 
ATOM      6  C   UNL     1       7.584   4.816  14.311  0.00  0.00    +0.000 A 
ATOM      7  C   UNL     1       7.025   4.960  15.589  0.00  0.00    +0.000 A 
ATOM      8  N   UNL     1       7.626   5.375  16.756  0.00  0.00    +0.000 NA
ATOM      9  C   UNL     1       6.681   5.317  17.669  0.00  0.00    +0.000 A 
ATOM     10  N   UNL     1       5.499   4.907  17.127  0.00  0.00    +0.000 N 
ATOM     11  C   UNL     1       5.682   4.645  15.790  0.00  0.00    +0.000 A 
ATOM     12  C   UNL     1       4.862   4.183  14.752  0.00  0.00    +0.000 A 
ATOM     13  C   UNL     1       5.441   3.996  13.481  0.00  0.00    +0.000 A 
ATOM     14  C   UNL     1       4.583   3.428  12.380  0.00  0.00    +0.000 C 
ENDBRANCH   1  10
BRANCH   1  15
ATOM     15  C   UNL     1       3.370   6.109  18.381  0.00  0.00    +0.000 A 
ATOM     16  C   UNL     1       2.626   6.286  19.554  0.00  0.00    +0.000 A 
ATOM     17  C   UNL     1       1.935   7.481  19.763  0.00  0.00    +0.000 A 
ATOM     18  C   UNL     1       2.006   8.498  18.806  0.00  0.00    +0.000 A 
ATOM     19  C   UNL     1       2.797   8.345  17.661  0.00  0.00    +0.000 A 
ATOM     20  C   UNL     1       3.490   7.150  17.451  0.00  0.00    +0.000 A 
BRANCH  18  21
ATOM     21  S   UNL     1       0.955   9.919  18.965  0.00  0.00    +0.000 S 
ATOM     22  O   UNL     1      -0.211   9.733  18.133  0.00  0.00    +0.000 OA
ATOM     23  O   UNL     1       0.858  10.273  20.362  0.00  0.00    +0.000 OA
BRANCH  21  24
ATOM     24  N   UNL     1       1.853  11.134  18.240  0.00  0.00    +0.000 NA
ATOM     25  H   UNL     1       2.815  10.817  18.117  0.00  0.00    +0.000 HD
ATOM     26  H   UNL     1       1.408  11.406  17.362  0.00  0.00    +0.000 HD
ENDBRANCH  21  24
ENDBRANCH  18  21
ENDBRANCH   1  15
TORSDOF 4
ENDMDL
MODEL 6
REMARK VINA RESULT:      -7.4      0.919      1.481
REMARK  Name = 
REMARK  6 active torsions:
REMARK  status: ('A' for Active; 'I' for Inactive)
REMARK    1  A    between atoms: C_1  and  C_2
REMARK    2  A    between atoms: N_7  and  S_8
REMARK    3  A    between atoms: S_8  and  C_11
REMARK    4  A    between atoms: C_14  and  S_15
REMARK    5  A    between atoms: S_15  and  N_16
REMARK    6  A    between atoms: C_23  and  C_24
REMARK                            x       y       z     vdW  Elec       q    Type
REMARK                         _______ _______ _______ _____ _____    ______ ____
ROOT
ATOM      1  S   UNL     1       3.611   3.989  18.296  0.00  0.00    +0.000 S 
ATOM      2  O   UNL     1       2.769   3.697  17.151  0.00  0.00    +0.000 OA
ATOM      3  O   UNL     1       3.982   2.962  19.250  0.00  0.00    +0.000 OA
ENDROOT
BRANCH   1  10
ATOM      4  C   UNL     1       7.796   4.799  12.744  0.00  0.00    +0.000 C 
ATOM      5  C   UNL     1       6.956   4.711  13.991  0.00  0.00    +0.000 A 
ATOM      6  C   UNL     1       7.516   5.119  15.219  0.00  0.00    +0.000 A 
ATOM      7  C   UNL     1       6.757   5.027  16.395  0.00  0.00    +0.000 A 
ATOM      8  N   UNL     1       7.122   5.328  17.688  0.00  0.00    +0.000 NA
ATOM      9  C   UNL     1       6.063   5.051  18.417  0.00  0.00    +0.000 A 
ATOM     10  N   UNL     1       5.034   4.609  17.640  0.00  0.00    +0.000 N 
ATOM     11  C   UNL     1       5.445   4.557  16.331  0.00  0.00    +0.000 A 
ATOM     12  C   UNL     1       4.852   4.169  15.122  0.00  0.00    +0.000 A 
ATOM     13  C   UNL     1       5.634   4.221  13.951  0.00  0.00    +0.000 A 
ATOM     14  C   UNL     1       5.026   3.734  12.661  0.00  0.00    +0.000 C 
ENDBRANCH   1  10
BRANCH   1  15
ATOM     15  C   UNL     1       2.888   5.339  19.195  0.00  0.00    +0.000 A 
ATOM     16  C   UNL     1       2.300   5.098  20.443  0.00  0.00    +0.000 A 
ATOM     17  C   UNL     1       1.651   6.136  21.115  0.00  0.00    +0.000 A 
ATOM     18  C   UNL     1       1.609   7.411  20.543  0.00  0.00    +0.000 A 
ATOM     19  C   UNL     1       2.246   7.666  19.323  0.00  0.00    +0.000 A 
ATOM     20  C   UNL     1       2.898   6.629  18.650  0.00  0.00    +0.000 A 
BRANCH  18  21
ATOM     21  S   UNL     1       0.598   8.666  21.286  0.00  0.00    +0.000 S 
ATOM     22  O   UNL     1      -0.657   8.076  21.690  0.00  0.00    +0.000 OA
ATOM     23  O   UNL     1       1.411   9.445  22.189  0.00  0.00    +0.000 OA
BRANCH  21  24
ATOM     24  N   UNL     1       0.241   9.674  19.996  0.00  0.00    +0.000 NA
ATOM     25  H   UNL     1      -0.014  10.597  20.347  0.00  0.00    +0.000 HD
ATOM     26  H   UNL     1       1.035   9.698  19.354  0.00  0.00    +0.000 HD
ENDBRANCH  21  24
ENDBRANCH  18  21
ENDBRANCH   1  15
TORSDOF 4
ENDMDL
MODEL 7
REMARK VINA RESULT:      -7.3      2.721      3.724
REMARK  Name = 
REMARK  6 active torsions:
REMARK  status: ('A' for Active; 'I' for Inactive)
REMARK    1  A    between atoms: C_1  and  C_2
REMARK    2  A    between atoms: N_7  and  S_8
REMARK    3  A    between atoms: S_8  and  C_11
REMARK    4  A    between atoms: C_14  and  S_15
REMARK    5  A    between atoms: S_15  and  N_16
REMARK    6  A    between atoms: C_23  and  C_24
REMARK                            x       y       z     vdW  Elec       q    Type
REMARK                         _______ _______ _______ _____ _____    ______ ____
ROOT
ATOM      1  S   UNL     1       1.979   5.012  20.262  0.00  0.00    +0.000 S 
ATOM      2  O   UNL     1       0.694   4.360  20.434  0.00  0.00    +0.000 OA
ATOM      3  O   UNL     1       3.005   4.953  21.285  0.00  0.00    +0.000 OA
ENDROOT
BRANCH   1  10
ATOM      4  C   UNL     1       7.220   4.672  15.636  0.00  0.00    +0.000 C 
ATOM      5  C   UNL     1       6.053   4.643  16.587  0.00  0.00    +0.000 A 
ATOM      6  C   UNL     1       4.886   3.949  16.211  0.00  0.00    +0.000 A 
ATOM      7  C   UNL     1       3.780   3.926  17.074  0.00  0.00    +0.000 A 
ATOM      8  N   UNL     1       2.545   3.349  16.885  0.00  0.00    +0.000 NA
ATOM      9  C   UNL     1       1.865   3.628  17.976  0.00  0.00    +0.000 A 
ATOM     10  N   UNL     1       2.623   4.337  18.860  0.00  0.00    +0.000 N 
ATOM     11  C   UNL     1       3.860   4.570  18.308  0.00  0.00    +0.000 A 
ATOM     12  C   UNL     1       5.016   5.246  18.721  0.00  0.00    +0.000 A 
ATOM     13  C   UNL     1       6.106   5.304  17.831  0.00  0.00    +0.000 A 
ATOM     14  C   UNL     1       7.323   6.094  18.240  0.00  0.00    +0.000 C 
ENDBRANCH   1  10
BRANCH   1  15
ATOM     15  C   UNL     1       1.694   6.719  19.866  0.00  0.00    +0.000 A 
ATOM     16  C   UNL     1       2.011   7.190  18.585  0.00  0.00    +0.000 A 
ATOM     17  C   UNL     1       1.874   8.549  18.294  0.00  0.00    +0.000 A 
ATOM     18  C   UNL     1       1.405   9.424  19.278  0.00  0.00    +0.000 A 
ATOM     19  C   UNL     1       1.034   8.945  20.540  0.00  0.00    +0.000 A 
ATOM     20  C   UNL     1       1.168   7.585  20.832  0.00  0.00    +0.000 A 
BRANCH  18  21
ATOM     21  S   UNL     1       1.444  11.173  18.978  0.00  0.00    +0.000 S 
ATOM     22  O   UNL     1       1.366  11.866  20.243  0.00  0.00    +0.000 OA
ATOM     23  O   UNL     1       2.472  11.456  18.005  0.00  0.00    +0.000 OA
BRANCH  21  24
ATOM     24  N   UNL     1      -0.016  11.454  18.206  0.00  0.00    +0.000 NA
ATOM     25  H   UNL     1       0.077  11.233  17.214  0.00  0.00    +0.000 HD
ATOM     26  H   UNL     1      -0.753  10.917  18.666  0.00  0.00    +0.000 HD
ENDBRANCH  21  24
ENDBRANCH  18  21
ENDBRANCH   1  15
TORSDOF 4
ENDMDL
MODEL 8
REMARK VINA RESULT:      -7.3      5.032      9.354
REMARK  Name = 
REMARK  6 active torsions:
REMARK  status: ('A' for Active; 'I' for Inactive)
REMARK    1  A    between atoms: C_1  and  C_2
REMARK    2  A    between atoms: N_7  and  S_8
REMARK    3  A    between atoms: S_8  and  C_11
REMARK    4  A    between atoms: C_14  and  S_15
REMARK    5  A    between atoms: S_15  and  N_16
REMARK    6  A    between atoms: C_23  and  C_24
REMARK                            x       y       z     vdW  Elec       q    Type
REMARK                         _______ _______ _______ _____ _____    ______ ____
ROOT
ATOM      1  S   UNL     1       0.949  11.853  19.893  0.00  0.00    +0.000 S 
ATOM      2  O   UNL     1       1.226  12.502  18.625  0.00  0.00    +0.000 OA
ATOM      3  O   UNL     1       1.545  12.315  21.131  0.00  0.00    +0.000 OA
ENDROOT
BRANCH   1  10
ATOM      4  C   UNL     1      -5.414  11.514  16.996  0.00  0.00    +0.000 C 
ATOM      5  C   UNL     1      -4.097  11.577  17.725  0.00  0.00    +0.000 A 
ATOM      6  C   UNL     1      -4.076  12.053  19.051  0.00  0.00    +0.000 A 
ATOM      7  C   UNL     1      -2.857  12.138  19.740  0.00  0.00    +0.000 A 
ATOM      8  N   UNL     1      -2.611  12.608  21.011  0.00  0.00    +0.000 NA
ATOM      9  C   UNL     1      -1.311  12.493  21.174  0.00  0.00    +0.000 A 
ATOM     10  N   UNL     1      -0.724  11.948  20.071  0.00  0.00    +0.000 N 
ATOM     11  C   UNL     1      -1.683  11.724  19.113  0.00  0.00    +0.000 A 
ATOM     12  C   UNL     1      -1.676  11.221  17.805  0.00  0.00    +0.000 A 
ATOM     13  C   UNL     1      -2.896  11.181  17.101  0.00  0.00    +0.000 A 
ATOM     14  C   UNL     1      -2.882  10.713  15.669  0.00  0.00    +0.000 C 
ENDBRANCH   1  10
BRANCH   1  15
ATOM     15  C   UNL     1       1.300  10.121  19.726  0.00  0.00    +0.000 A 
ATOM     16  C   UNL     1       1.111   9.271  20.823  0.00  0.00    +0.000 A 
ATOM     17  C   UNL     1       1.469   7.925  20.727  0.00  0.00    +0.000 A 
ATOM     18  C   UNL     1       1.997   7.433  19.529  0.00  0.00    +0.000 A 
ATOM     19  C   UNL     1       2.132   8.268  18.414  0.00  0.00    +0.000 A 
ATOM     20  C   UNL     1       1.772   9.615  18.508  0.00  0.00    +0.000 A 
BRANCH  18  21
ATOM     21  S   UNL     1       2.656   5.786  19.480  0.00  0.00    +0.000 S 
ATOM     22  O   UNL     1       1.879   5.000  18.550  0.00  0.00    +0.000 OA
ATOM     23  O   UNL     1       4.096   5.862  19.412  0.00  0.00    +0.000 OA
BRANCH  21  24
ATOM     24  N   UNL     1       2.294   5.191  21.004  0.00  0.00    +0.000 NA
ATOM     25  H   UNL     1       3.120   4.735  21.395  0.00  0.00    +0.000 HD
ATOM     26  H   UNL     1       1.944   5.950  21.591  0.00  0.00    +0.000 HD
ENDBRANCH  21  24
ENDBRANCH  18  21
ENDBRANCH   1  15
TORSDOF 4
ENDMDL
MODEL 9
REMARK VINA RESULT:      -7.2      1.426      1.829
REMARK  Name = 
REMARK  6 active torsions:
REMARK  status: ('A' for Active; 'I' for Inactive)
REMARK    1  A    between atoms: C_1  and  C_2
REMARK    2  A    between atoms: N_7  and  S_8
REMARK    3  A    between atoms: S_8  and  C_11
REMARK    4  A    between atoms: C_14  and  S_15
REMARK    5  A    between atoms: S_15  and  N_16
REMARK    6  A    between atoms: C_23  and  C_24
REMARK                            x       y       z     vdW  Elec       q    Type
REMARK                         _______ _______ _______ _____ _____    ______ ____
ROOT
ATOM      1  S   UNL     1       4.111   4.706  18.135  0.00  0.00    +0.000 S 
ATOM      2  O   UNL     1       3.267   3.902  17.270  0.00  0.00    +0.000 OA
ATOM      3  O   UNL     1       4.610   4.198  19.397  0.00  0.00    +0.000 OA
ENDROOT
BRANCH   1  10
ATOM      4  C   UNL     1       7.457   4.264  12.004  0.00  0.00    +0.000 C 
ATOM      5  C   UNL     1       6.808   4.450  13.350  0.00  0.00    +0.000 A 
ATOM      6  C   UNL     1       7.560   5.025  14.394  0.00  0.00    +0.000 A 
ATOM      7  C   UNL     1       6.980   5.188  15.661  0.00  0.00    +0.000 A 
ATOM      8  N   UNL     1       7.544   5.684  16.815  0.00  0.00    +0.000 NA
ATOM      9  C   UNL     1       6.595   5.607  17.722  0.00  0.00    +0.000 A 
ATOM     10  N   UNL     1       5.445   5.108  17.188  0.00  0.00    +0.000 N 
ATOM     11  C   UNL     1       5.655   4.803  15.865  0.00  0.00    +0.000 A 
ATOM     12  C   UNL     1       4.875   4.252  14.840  0.00  0.00    +0.000 A 
ATOM     13  C   UNL     1       5.476   4.049  13.583  0.00  0.00    +0.000 A 
ATOM     14  C   UNL     1       4.664   3.387  12.498  0.00  0.00    +0.000 C 
ENDBRANCH   1  10
BRANCH   1  15
ATOM     15  C   UNL     1       3.285   6.246  18.451  0.00  0.00    +0.000 A 
ATOM     16  C   UNL     1       2.613   6.430  19.665  0.00  0.00    +0.000 A 
ATOM     17  C   UNL     1       1.887   7.603  19.884  0.00  0.00    +0.000 A 
ATOM     18  C   UNL     1       1.853   8.591  18.895  0.00  0.00    +0.000 A 
ATOM     19  C   UNL     1       2.572   8.433  17.705  0.00  0.00    +0.000 A 
ATOM     20  C   UNL     1       3.300   7.260  17.485  0.00  0.00    +0.000 A 
BRANCH  18  21
ATOM     21  S   UNL     1       0.755   9.972  19.082  0.00  0.00    +0.000 S 
ATOM     22  O   UNL     1       1.540  11.172  19.262  0.00  0.00    +0.000 OA
ATOM     23  O   UNL     1      -0.290   9.874  18.091  0.00  0.00    +0.000 OA
BRANCH  21  24
ATOM     24  N   UNL     1       0.023   9.673  20.560  0.00  0.00    +0.000 NA
ATOM     25  H   UNL     1      -0.498  10.500  20.854  0.00  0.00    +0.000 HD
ATOM     26  H   UNL     1      -0.563   8.839  20.485  0.00  0.00    +0.000 HD
ENDBRANCH  21  24
ENDBRANCH  18  21
ENDBRANCH   1  15
TORSDOF 4
ENDMDL
