MODEL 1
REMARK VINA RESULT:      -6.8      0.000      0.000
REMARK  Name = 
REMARK  4 active torsions:
REMARK  status: ('A' for Active; 'I' for Inactive)
REMARK    1  A    between atoms: C_1  and  C_2
REMARK    2  A    between atoms: C_4  and  C_5
REMARK    3  A    between atoms: C_5  and  C_6
REMARK    4  A    between atoms: C_6  and  N_7
REMARK                            x       y       z     vdW  Elec       q    Type
REMARK                         _______ _______ _______ _____ _____    ______ ____
ROOT
ATOM      1  C   UNL     1       5.641   4.814  18.185  0.00  0.00    +0.000 C 
ENDROOT
BRANCH   1   2
ATOM      2  N   UNL     1       5.356   3.616  18.971  0.00  0.00    +0.000 N 
ATOM      3  C   UNL     1       3.989   3.386  19.123  0.00  0.00    +0.000 A 
ATOM      4  N   UNL     1       3.135   3.779  18.166  0.00  0.00    +0.000 NA
ATOM      5  C   UNL     1       1.825   3.570  18.381  0.00  0.00    +0.000 A 
ATOM      6  C   UNL     1       1.333   2.972  19.511  0.00  0.00    +0.000 A 
ATOM      7  C   UNL     1       2.284   2.594  20.428  0.00  0.00    +0.000 A 
ATOM      8  N   UNL     1       3.605   2.798  20.263  0.00  0.00    +0.000 NA
ATOM      9  H   UNL     1       5.735   3.600  19.913  0.00  0.00    +0.000 HD
ENDBRANCH   1   2
BRANCH   1  10
ATOM     10  C   UNL     1       7.023   4.743  17.536  0.00  0.00    +0.000 C 
BRANCH  10  14
ATOM     11  C   UNL     1       8.008   5.488  12.726  0.00  0.00    +0.000 C 
ATOM     12  C   UNL     1       7.269   4.905  13.875  0.00  0.00    +0.000 A 
ATOM     13  N   UNL     1       7.657   5.236  15.170  0.00  0.00    +0.000 NA
ATOM     14  C   UNL     1       6.893   4.611  16.045  0.00  0.00    +0.000 A 
ATOM     15  S   UNL     1       5.668   3.606  15.367  0.00  0.00    +0.000 S 
ATOM     16  C   UNL     1       6.204   4.035  13.819  0.00  0.00    +0.000 A 
ATOM     17 CL   UNL     1       5.431   3.388  12.430  0.00  0.00    +0.000 Cl
ENDBRANCH  10  14
ENDBRANCH   1  10
TORSDOF 3
ENDMDL
MODEL 2
REMARK VINA RESULT:      -6.7      2.925      3.560
REMARK  Name = 
REMARK  4 active torsions:
REMARK  status: ('A' for Active; 'I' for Inactive)
REMARK    1  A    between atoms: C_1  and  C_2
REMARK    2  A    between atoms: C_4  and  C_5
REMARK    3  A    between atoms: C_5  and  C_6
REMARK    4  A    between atoms: C_6  and  N_7
REMARK                            x       y       z     vdW  Elec       q    Type
REMARK                         _______ _______ _______ _____ _____    ______ ____
ROOT
ATOM      1  C   UNL     1       3.886   3.503  17.189  0.00  0.00    +0.000 C 
ENDROOT
BRANCH   1   2
ATOM      2  N   UNL     1       4.163   2.663  18.351  0.00  0.00    +0.000 N 
ATOM      3  C   UNL     1       3.155   2.725  19.312  0.00  0.00    +0.000 A 
ATOM      4  N   UNL     1       1.887   2.953  18.937  0.00  0.00    +0.000 NA
ATOM      5  C   UNL     1       0.960   3.044  19.905  0.00  0.00    +0.000 A 
ATOM      6  C   UNL     1       1.247   2.905  21.238  0.00  0.00    +0.000 A 
ATOM      7  C   UNL     1       2.569   2.663  21.524  0.00  0.00    +0.000 A 
ATOM      8  N   UNL     1       3.535   2.580  20.588  0.00  0.00    +0.000 NA
ATOM      9  H   UNL     1       5.022   2.866  18.854  0.00  0.00    +0.000 HD
ENDBRANCH   1   2
BRANCH   1  10
ATOM     10  C   UNL     1       5.149   3.759  16.368  0.00  0.00    +0.000 C 
BRANCH  10  14
ATOM     11  C   UNL     1       8.183   5.646  19.816  0.00  0.00    +0.000 C 
ATOM     12  C   UNL     1       7.378   5.676  18.568  0.00  0.00    +0.000 A 
ATOM     13  N   UNL     1       6.662   4.543  18.195  0.00  0.00    +0.000 NA
ATOM     14  C   UNL     1       6.027   4.762  17.059  0.00  0.00    +0.000 A 
ATOM     15  S   UNL     1       6.245   6.334  16.386  0.00  0.00    +0.000 S 
ATOM     16  C   UNL     1       7.250   6.729  17.692  0.00  0.00    +0.000 A 
ATOM     17 CL   UNL     1       7.964   8.286  17.788  0.00  0.00    +0.000 Cl
ENDBRANCH  10  14
ENDBRANCH   1  10
TORSDOF 3
ENDMDL
MODEL 3
REMARK VINA RESULT:      -6.6      2.795      6.068
REMARK  Name = 
REMARK  4 active torsions:
REMARK  status: ('A' for Active; 'I' for Inactive)
REMARK    1  A    between atoms: C_1  and  C_2
REMARK    2  A    between atoms: C_4  and  C_5
REMARK    3  A    between atoms: C_5  and  C_6
REMARK    4  A    between atoms: C_6  and  N_7
REMARK                            x       y       z     vdW  Elec       q    Type
REMARK                         _______ _______ _______ _____ _____    ______ ____
ROOT
ATOM      1  C   UNL     1       7.325   4.545  16.941  0.00  0.00    +0.000 C 
ENDROOT
BRANCH   1   2
ATOM      2  N   UNL     1       7.457   5.541  15.881  0.00  0.00    +0.000 N 
ATOM      3  C   UNL     1       7.198   5.017  14.616  0.00  0.00    +0.000 A 
ATOM      4  N   UNL     1       6.332   4.001  14.477  0.00  0.00    +0.000 NA
ATOM      5  C   UNL     1       6.149   3.506  13.241  0.00  0.00    +0.000 A 
ATOM      6  C   UNL     1       6.789   3.994  12.133  0.00  0.00    +0.000 A 
ATOM      7  C   UNL     1       7.648   5.040  12.372  0.00  0.00    +0.000 A 
ATOM      8  N   UNL     1       7.875   5.557  13.595  0.00  0.00    +0.000 NA
ATOM      9  H   UNL     1       8.364   5.991  15.802  0.00  0.00    +0.000 HD
ENDBRANCH   1   2
BRANCH   1  10
ATOM     10  C   UNL     1       6.758   5.158  18.221  0.00  0.00    +0.000 C 
BRANCH  10  14
ATOM     11  C   UNL     1       2.356   7.455  18.156  0.00  0.00    +0.000 C 
ATOM     12  C   UNL     1       3.266   6.284  18.073  0.00  0.00    +0.000 A 
ATOM     13  N   UNL     1       4.636   6.477  18.224  0.00  0.00    +0.000 NA
ATOM     14  C   UNL     1       5.270   5.326  18.105  0.00  0.00    +0.000 A 
ATOM     15  S   UNL     1       4.263   3.956  17.819  0.00  0.00    +0.000 S 
ATOM     16  C   UNL     1       2.909   4.974  17.853  0.00  0.00    +0.000 A 
ATOM     17 CL   UNL     1       1.338   4.324  17.619  0.00  0.00    +0.000 Cl
ENDBRANCH  10  14
ENDBRANCH   1  10
TORSDOF 3
ENDMDL
MODEL 4
REMARK VINA RESULT:      -6.4      3.705      6.332
REMARK  Name = 
REMARK  4 active torsions:
REMARK  status: ('A' for Active; 'I' for Inactive)
REMARK    1  A    between atoms: C_1  and  C_2
REMARK    2  A    between atoms: C_4  and  C_5
REMARK    3  A    between atoms: C_5  and  C_6
REMARK    4  A    between atoms: C_6  and  N_7
REMARK                            x       y       z     vdW  Elec       q    Type
REMARK                         _______ _______ _______ _____ _____    ______ ____
ROOT
ATOM      1  C   UNL     1       4.548   3.764  16.631  0.00  0.00    +0.000 C 
ENDROOT
BRANCH   1   2
ATOM      2  N   UNL     1       5.190   3.852  17.939  0.00  0.00    +0.000 N 
ATOM      3  C   UNL     1       6.068   4.931  18.036  0.00  0.00    +0.000 A 
ATOM      4  N   UNL     1       5.836   6.047  17.327  0.00  0.00    +0.000 NA
ATOM      5  C   UNL     1       6.734   7.041  17.425  0.00  0.00    +0.000 A 
ATOM      6  C   UNL     1       7.851   6.972  18.215  0.00  0.00    +0.000 A 
ATOM      7  C   UNL     1       7.997   5.797  18.911  0.00  0.00    +0.000 A 
ATOM      8  N   UNL     1       7.132   4.767  18.831  0.00  0.00    +0.000 NA
ATOM      9  H   UNL     1       5.733   3.042  18.226  0.00  0.00    +0.000 HD
ENDBRANCH   1   2
BRANCH   1  10
ATOM     10  C   UNL     1       3.103   3.281  16.745  0.00  0.00    +0.000 C 
BRANCH  10  14
ATOM     11  C   UNL     1       1.622   5.762  20.784  0.00  0.00    +0.000 C 
ATOM     12  C   UNL     1       1.922   4.546  19.984  0.00  0.00    +0.000 A 
ATOM     13  N   UNL     1       2.395   4.690  18.683  0.00  0.00    +0.000 NA
ATOM     14  C   UNL     1       2.587   3.504  18.138  0.00  0.00    +0.000 A 
ATOM     15  S   UNL     1       2.222   2.160  19.153  0.00  0.00    +0.000 S 
ATOM     16  C   UNL     1       1.779   3.237  20.383  0.00  0.00    +0.000 A 
ATOM     17 CL   UNL     1       1.230   2.640  21.894  0.00  0.00    +0.000 Cl
ENDBRANCH  10  14
ENDBRANCH   1  10
TORSDOF 3
ENDMDL
MODEL 5
REMARK VINA RESULT:      -6.4      2.774      6.332
REMARK  Name = 
REMARK  4 active torsions:
REMARK  status: ('A' for Active; 'I' for Inactive)
REMARK    1  A    between atoms: C_1  and  C_2
REMARK    2  A    between atoms: C_4  and  C_5
REMARK    3  A    between atoms: C_5  and  C_6
REMARK    4  A    between atoms: C_6  and  N_7
REMARK                            x       y       z     vdW  Elec       q    Type
REMARK                         _______ _______ _______ _____ _____    ______ ____
ROOT
ATOM      1  C   UNL     1       7.044   4.685  17.170  0.00  0.00    +0.000 C 
ENDROOT
BRANCH   1   2
ATOM      2  N   UNL     1       7.377   5.581  16.066  0.00  0.00    +0.000 N 
ATOM      3  C   UNL     1       7.083   5.031  14.820  0.00  0.00    +0.000 A 
ATOM      4  N   UNL     1       6.067   4.163  14.696  0.00  0.00    +0.000 NA
ATOM      5  C   UNL     1       5.851   3.630  13.481  0.00  0.00    +0.000 A 
ATOM      6  C   UNL     1       6.603   3.940  12.379  0.00  0.00    +0.000 A 
ATOM      7  C   UNL     1       7.612   4.845  12.601  0.00  0.00    +0.000 A 
ATOM      8  N   UNL     1       7.876   5.392  13.804  0.00  0.00    +0.000 NA
ATOM      9  H   UNL     1       8.349   5.873  16.005  0.00  0.00    +0.000 HD
ENDBRANCH   1   2
BRANCH   1  10
ATOM     10  C   UNL     1       6.312   5.423  18.291  0.00  0.00    +0.000 C 
BRANCH  10  14
ATOM     11  C   UNL     1       2.991   1.744  18.594  0.00  0.00    +0.000 C 
ATOM     12  C   UNL     1       3.481   3.135  18.775  0.00  0.00    +0.000 A 
ATOM     13  N   UNL     1       4.769   3.459  18.359  0.00  0.00    +0.000 NA
ATOM     14  C   UNL     1       5.021   4.729  18.616  0.00  0.00    +0.000 A 
ATOM     15  S   UNL     1       3.731   5.600  19.356  0.00  0.00    +0.000 S 
ATOM     16  C   UNL     1       2.793   4.189  19.330  0.00  0.00    +0.000 A 
ATOM     17 CL   UNL     1       1.197   4.204  19.959  0.00  0.00    +0.000 Cl
ENDBRANCH  10  14
ENDBRANCH   1  10
TORSDOF 3
ENDMDL
MODEL 6
REMARK VINA RESULT:      -6.3      0.881      1.331
REMARK  Name = 
REMARK  4 active torsions:
REMARK  status: ('A' for Active; 'I' for Inactive)
REMARK    1  A    between atoms: C_1  and  C_2
REMARK    2  A    between atoms: C_4  and  C_5
REMARK    3  A    between atoms: C_5  and  C_6
REMARK    4  A    between atoms: C_6  and  N_7
REMARK                            x       y       z     vdW  Elec       q    Type
REMARK                         _______ _______ _______ _____ _____    ______ ____
ROOT
ATOM      1  C   UNL     1       5.863   4.404  18.199  0.00  0.00    +0.000 C 
ENDROOT
BRANCH   1   2
ATOM      2  N   UNL     1       4.615   5.107  18.485  0.00  0.00    +0.000 N 
ATOM      3  C   UNL     1       3.519   4.248  18.561  0.00  0.00    +0.000 A 
ATOM      4  N   UNL     1       3.689   2.984  18.981  0.00  0.00    +0.000 NA
ATOM      5  C   UNL     1       2.609   2.186  18.997  0.00  0.00    +0.000 A 
ATOM      6  C   UNL     1       1.359   2.603  18.621  0.00  0.00    +0.000 A 
ATOM      7  C   UNL     1       1.282   3.914  18.217  0.00  0.00    +0.000 A 
ATOM      8  N   UNL     1       2.340   4.745  18.169  0.00  0.00    +0.000 NA
ATOM      9  H   UNL     1       4.344   5.824  17.819  0.00  0.00    +0.000 HD
ENDBRANCH   1   2
BRANCH   1  10
ATOM     10  C   UNL     1       6.859   5.304  17.469  0.00  0.00    +0.000 C 
BRANCH  10  14
ATOM     11  C   UNL     1       8.166   5.595  12.687  0.00  0.00    +0.000 C 
ATOM     12  C   UNL     1       7.390   5.076  13.843  0.00  0.00    +0.000 A 
ATOM     13  N   UNL     1       7.640   5.587  15.113  0.00  0.00    +0.000 NA
ATOM     14  C   UNL     1       6.864   4.993  16.000  0.00  0.00    +0.000 A 
ATOM     15  S   UNL     1       5.792   3.804  15.362  0.00  0.00    +0.000 S 
ATOM     16  C   UNL     1       6.414   4.106  13.815  0.00  0.00    +0.000 A 
ATOM     17 CL   UNL     1       5.817   3.235  12.462  0.00  0.00    +0.000 Cl
ENDBRANCH  10  14
ENDBRANCH   1  10
TORSDOF 3
ENDMDL
MODEL 7
REMARK VINA RESULT:      -6.3      2.836      6.431
REMARK  Name = 
REMARK  4 active torsions:
REMARK  status: ('A' for Active; 'I' for Inactive)
REMARK    1  A    between atoms: C_1  and  C_2
REMARK    2  A    between atoms: C_4  and  C_5
REMARK    3  A    between atoms: C_5  and  C_6
REMARK    4  A    between atoms: C_6  and  N_7
REMARK                            x       y       z     vdW  Elec       q    Type
REMARK                         _______ _______ _______ _____ _____    ______ ____
ROOT
ATOM      1  C   UNL     1       6.266   6.132  16.457  0.00  0.00    +0.000 C 
ENDROOT
BRANCH   1   2
ATOM      2  N   UNL     1       6.105   4.779  15.930  0.00  0.00    +0.000 N 
ATOM      3  C   UNL     1       6.559   4.655  14.618  0.00  0.00    +0.000 A 
ATOM      4  N   UNL     1       7.568   5.428  14.185  0.00  0.00    +0.000 NA
ATOM      5  C   UNL     1       7.940   5.297  12.900  0.00  0.00    +0.000 A 
ATOM      6  C   UNL     1       7.354   4.415  12.032  0.00  0.00    +0.000 A 
ATOM      7  C   UNL     1       6.339   3.660  12.569  0.00  0.00    +0.000 A 
ATOM      8  N   UNL     1       5.921   3.769  13.845  0.00  0.00    +0.000 NA
ATOM      9  H   UNL     1       5.157   4.415  15.918  0.00  0.00    +0.000 HD
ENDBRANCH   1   2
BRANCH   1  10
ATOM     10  C   UNL     1       6.408   6.129  17.978  0.00  0.00    +0.000 C 
BRANCH  10  14
ATOM     11  C   UNL     1       4.329   2.157  20.112  0.00  0.00    +0.000 C 
ATOM     12  C   UNL     1       4.342   3.530  19.547  0.00  0.00    +0.000 A 
ATOM     13  N   UNL     1       5.532   4.045  19.040  0.00  0.00    +0.000 NA
ATOM     14  C   UNL     1       5.341   5.274  18.600  0.00  0.00    +0.000 A 
ATOM     15  S   UNL     1       3.733   5.872  18.759  0.00  0.00    +0.000 S 
ATOM     16  C   UNL     1       3.278   4.399  19.461  0.00  0.00    +0.000 A 
ATOM     17 CL   UNL     1       1.658   4.151  19.968  0.00  0.00    +0.000 Cl
ENDBRANCH  10  14
ENDBRANCH   1  10
TORSDOF 3
ENDMDL
MODEL 8
REMARK VINA RESULT:      -6.3      3.904      6.202
REMARK  Name = 
REMARK  4 active torsions:
REMARK  status: ('A' for Active; 'I' for Inactive)
REMARK    1  A    between atoms: C_1  and  C_2
REMARK    2  A    between atoms: C_4  and  C_5
REMARK    3  A    between atoms: C_5  and  C_6
REMARK    4  A    between atoms: C_6  and  N_7
REMARK                            x       y       z     vdW  Elec       q    Type
REMARK                         _______ _______ _______ _____ _____    ______ ____
ROOT
ATOM      1  C   UNL     1       4.497   3.221  19.280  0.00  0.00    +0.000 C 
ENDROOT
BRANCH   1   2
ATOM      2  N   UNL     1       5.200   3.510  18.033  0.00  0.00    +0.000 N 
ATOM      3  C   UNL     1       6.110   4.558  18.160  0.00  0.00    +0.000 A 
ATOM      4  N   UNL     1       6.715   4.779  19.337  0.00  0.00    +0.000 NA
ATOM      5  C   UNL     1       7.553   5.827  19.417  0.00  0.00    +0.000 A 
ATOM      6  C   UNL     1       7.821   6.658  18.362  0.00  0.00    +0.000 A 
ATOM      7  C   UNL     1       7.164   6.346  17.196  0.00  0.00    +0.000 A 
ATOM      8  N   UNL     1       6.304   5.317  17.074  0.00  0.00    +0.000 NA
ATOM      9  H   UNL     1       4.617   3.759  17.240  0.00  0.00    +0.000 HD
ENDBRANCH   1   2
BRANCH   1  10
ATOM     10  C   UNL     1       2.991   3.440  19.140  0.00  0.00    +0.000 C 
BRANCH  10  14
ATOM     11  C   UNL     1       2.593   8.201  17.785  0.00  0.00    +0.000 C 
ATOM     12  C   UNL     1       2.467   7.050  18.716  0.00  0.00    +0.000 A 
ATOM     13  N   UNL     1       2.867   5.786  18.291  0.00  0.00    +0.000 NA
ATOM     14  C   UNL     1       2.665   4.902  19.249  0.00  0.00    +0.000 A 
ATOM     15  S   UNL     1       1.998   5.535  20.707  0.00  0.00    +0.000 S 
ATOM     16  C   UNL     1       1.979   7.076  20.002  0.00  0.00    +0.000 A 
ATOM     17 CL   UNL     1       1.389   8.421  20.890  0.00  0.00    +0.000 Cl
ENDBRANCH  10  14
ENDBRANCH   1  10
TORSDOF 3
ENDMDL
MODEL 9
REMARK VINA RESULT:      -6.3      1.105      1.204
REMARK  Name = 
REMARK  4 active torsions:
REMARK  status: ('A' for Active; 'I' for Inactive)
REMARK    1  A    between atoms: C_1  and  C_2
REMARK    2  A    between atoms: C_4  and  C_5
REMARK    3  A    between atoms: C_5  and  C_6
REMARK    4  A    between atoms: C_6  and  N_7
REMARK                            x       y       z     vdW  Elec       q    Type
REMARK                         _______ _______ _______ _____ _____    ______ ____
ROOT
ATOM      1  C   UNL     1       5.480   4.349  18.248  0.00  0.00    +0.000 C 
ENDROOT
BRANCH   1   2
ATOM      2  N   UNL     1       4.877   4.962  19.428  0.00  0.00    +0.000 N 
ATOM      3  C   UNL     1       3.597   4.477  19.691  0.00  0.00    +0.000 A 
ATOM      4  N   UNL     1       3.276   3.219  19.351  0.00  0.00    +0.000 NA
ATOM      5  C   UNL     1       2.017   2.813  19.589  0.00  0.00    +0.000 A 
ATOM      6  C   UNL     1       1.066   3.612  20.166  0.00  0.00    +0.000 A 
ATOM      7  C   UNL     1       1.490   4.879  20.489  0.00  0.00    +0.000 A 
ATOM      8  N   UNL     1       2.736   5.333  20.254  0.00  0.00    +0.000 NA
ATOM      9  H   UNL     1       4.778   5.973  19.405  0.00  0.00    +0.000 HD
ENDBRANCH   1   2
BRANCH   1  10
ATOM     10  C   UNL     1       6.478   5.290  17.574  0.00  0.00    +0.000 C 
BRANCH  10  14
ATOM     11  C   UNL     1       8.154   5.528  12.906  0.00  0.00    +0.000 C 
ATOM     12  C   UNL     1       7.274   5.039  13.998  0.00  0.00    +0.000 A 
ATOM     13  N   UNL     1       7.445   5.542  15.285  0.00  0.00    +0.000 NA
ATOM     14  C   UNL     1       6.583   4.978  16.109  0.00  0.00    +0.000 A 
ATOM     15  S   UNL     1       5.520   3.828  15.389  0.00  0.00    +0.000 S 
ATOM     16  C   UNL     1       6.268   4.106  13.894  0.00  0.00    +0.000 A 
ATOM     17 CL   UNL     1       5.744   3.256  12.499  0.00  0.00    +0.000 Cl
ENDBRANCH  10  14
ENDBRANCH   1  10
TORSDOF 3
ENDMDL
