MODEL 1
REMARK VINA RESULT:      -6.8      0.000      0.000
REMARK  Name = 
REMARK  7 active torsions:
REMARK  status: ('A' for Active; 'I' for Inactive)
REMARK    1  A    between atoms: C_1  and  C_2
REMARK    2  A    between atoms: C_2  and  O_3
REMARK    3  A    between atoms: O_3  and  C_4
REMARK    4  A    between atoms: C_9  and  N_10
REMARK    5  A    between atoms: C_11  and  C_13
REMARK    6  A    between atoms: C_14  and  C_15
REMARK    7  A    between atoms: C_24  and  C_25
REMARK                            x       y       z     vdW  Elec       q    Type
REMARK                         _______ _______ _______ _____ _____    ______ ____
ROOT
ATOM      1  N   UNL     1      -1.349  11.714  20.973  0.00  0.00    +0.000 N 
ATOM      2  C   UNL     1      -2.100  12.772  20.490  0.00  0.00    +0.000 C 
ATOM      3  O   UNL     1      -1.591  13.817  20.097  0.00  0.00    +0.000 OA
ATOM      4  H   UNL     1      -1.814  10.832  21.139  0.00  0.00    +0.000 HD
ENDROOT
BRANCH   1  10
ATOM      5  C   UNL     1       1.901   8.805  18.490  0.00  0.00    +0.000 C 
ATOM      6  O   UNL     1       2.123   9.009  17.303  0.00  0.00    +0.000 OA
ATOM      7  N   UNL     1       1.250   9.706  19.318  0.00  0.00    +0.000 N 
ATOM      8  C   UNL     1       0.657  10.875  18.706  0.00  0.00    +0.000 C 
ATOM      9  C   UNL     1       0.726  12.072  19.640  0.00  0.00    +0.000 C 
ATOM     10  C   UNL     1       0.111  11.767  21.012  0.00  0.00    +0.000 C 
ATOM     11  C   UNL     1       0.712  10.485  21.602  0.00  0.00    +0.000 C 
ATOM     12  C   UNL     1       0.710   9.315  20.619  0.00  0.00    +0.000 C 
BRANCH   5  13
ATOM     13  O   UNL     1       2.212   7.641  19.122  0.00  0.00    +0.000 OA
BRANCH  13  15
ATOM     14  C   UNL     1       2.560   5.314  18.790  0.00  0.00    +0.000 C 
ATOM     15  C   UNL     1       2.965   6.705  18.344  0.00  0.00    +0.000 C 
ENDBRANCH  13  15
ENDBRANCH   5  13
ENDBRANCH   1  10
BRANCH   2  16
ATOM     16  C   UNL     1      -3.525  12.537  20.420  0.00  0.00    +0.000 A 
ATOM     17  C   UNL     1      -4.290  11.979  19.340  0.00  0.00    +0.000 A 
ATOM     18  N   UNL     1      -5.587  11.921  19.685  0.00  0.00    +0.000 NA
ATOM     19  O   UNL     1      -5.696  12.477  20.932  0.00  0.00    +0.000 OA
ATOM     20  C   UNL     1      -4.470  12.838  21.382  0.00  0.00    +0.000 A 
ATOM     21  C   UNL     1      -4.446  13.465  22.718  0.00  0.00    +0.000 C 
BRANCH  17  22
ATOM     22  C   UNL     1      -3.839  11.399  18.066  0.00  0.00    +0.000 A 
ATOM     23  C   UNL     1      -2.740  10.515  18.074  0.00  0.00    +0.000 A 
ATOM     24  C   UNL     1      -2.324   9.863  16.911  0.00  0.00    +0.000 A 
ATOM     25  C   UNL     1      -3.011  10.061  15.718  0.00  0.00    +0.000 A 
ATOM     26  C   UNL     1      -4.092  10.939  15.684  0.00  0.00    +0.000 A 
ATOM     27  C   UNL     1      -4.496  11.619  16.841  0.00  0.00    +0.000 A 
ATOM     28 CL   UNL     1      -5.793  12.752  16.646  0.00  0.00    +0.000 Cl
ENDBRANCH  17  22
ENDBRANCH   2  16
TORSDOF 5
ENDMDL
MODEL 2
REMARK VINA RESULT:      -6.8      4.092      8.933
REMARK  Name = 
REMARK  7 active torsions:
REMARK  status: ('A' for Active; 'I' for Inactive)
REMARK    1  A    between atoms: C_1  and  C_2
REMARK    2  A    between atoms: C_2  and  O_3
REMARK    3  A    between atoms: O_3  and  C_4
REMARK    4  A    between atoms: C_9  and  N_10
REMARK    5  A    between atoms: C_11  and  C_13
REMARK    6  A    between atoms: C_14  and  C_15
REMARK    7  A    between atoms: C_24  and  C_25
REMARK                            x       y       z     vdW  Elec       q    Type
REMARK                         _______ _______ _______ _____ _____    ______ ____
ROOT
ATOM      1  N   UNL     1       2.081   7.596  19.298  0.00  0.00    +0.000 N 
ATOM      2  C   UNL     1       2.965   6.833  18.554  0.00  0.00    +0.000 C 
ATOM      3  O   UNL     1       3.778   7.332  17.781  0.00  0.00    +0.000 OA
ATOM      4  H   UNL     1       1.545   7.139  20.022  0.00  0.00    +0.000 HD
ENDROOT
BRANCH   1  10
ATOM      5  C   UNL     1      -1.776  10.641  18.281  0.00  0.00    +0.000 C 
ATOM      6  O   UNL     1      -2.611  10.882  19.144  0.00  0.00    +0.000 OA
ATOM      7  N   UNL     1      -0.549  10.052  18.539  0.00  0.00    +0.000 N 
ATOM      8  C   UNL     1      -0.313   9.546  19.874  0.00  0.00    +0.000 C 
ATOM      9  C   UNL     1       1.150   9.697  20.262  0.00  0.00    +0.000 C 
ATOM     10  C   UNL     1       2.087   9.056  19.230  0.00  0.00    +0.000 C 
ATOM     11  C   UNL     1       1.766   9.562  17.818  0.00  0.00    +0.000 C 
ATOM     12  C   UNL     1       0.278   9.480  17.477  0.00  0.00    +0.000 C 
BRANCH   5  13
ATOM     13  O   UNL     1      -1.982  10.866  16.954  0.00  0.00    +0.000 OA
BRANCH  13  15
ATOM     14  C   UNL     1      -2.965  10.158  14.910  0.00  0.00    +0.000 C 
ATOM     15  C   UNL     1      -3.164  10.271  16.409  0.00  0.00    +0.000 C 
ENDBRANCH  13  15
ENDBRANCH   5  13
ENDBRANCH   1  10
BRANCH   2  16
ATOM     16  C   UNL     1       2.909   5.410  18.798  0.00  0.00    +0.000 A 
ATOM     17  C   UNL     1       3.720   4.370  18.229  0.00  0.00    +0.000 A 
ATOM     18  N   UNL     1       3.351   3.179  18.731  0.00  0.00    +0.000 NA
ATOM     19  O   UNL     1       2.288   3.408  19.565  0.00  0.00    +0.000 OA
ATOM     20  C   UNL     1       2.025   4.736  19.618  0.00  0.00    +0.000 A 
ATOM     21  C   UNL     1       0.887   5.121  20.476  0.00  0.00    +0.000 C 
BRANCH  17  22
ATOM     22  C   UNL     1       4.886   4.464  17.338  0.00  0.00    +0.000 A 
ATOM     23  C   UNL     1       4.736   4.106  15.982  0.00  0.00    +0.000 A 
ATOM     24  C   UNL     1       5.782   4.261  15.070  0.00  0.00    +0.000 A 
ATOM     25  C   UNL     1       6.995   4.799  15.485  0.00  0.00    +0.000 A 
ATOM     26  C   UNL     1       7.171   5.149  16.823  0.00  0.00    +0.000 A 
ATOM     27  C   UNL     1       6.135   4.968  17.749  0.00  0.00    +0.000 A 
ATOM     28 CL   UNL     1       6.509   5.354  19.397  0.00  0.00    +0.000 Cl
ENDBRANCH  17  22
ENDBRANCH   2  16
TORSDOF 5
ENDMDL
MODEL 3
REMARK VINA RESULT:      -6.7      3.062      7.270
REMARK  Name = 
REMARK  7 active torsions:
REMARK  status: ('A' for Active; 'I' for Inactive)
REMARK    1  A    between atoms: C_1  and  C_2
REMARK    2  A    between atoms: C_2  and  O_3
REMARK    3  A    between atoms: O_3  and  C_4
REMARK    4  A    between atoms: C_9  and  N_10
REMARK    5  A    between atoms: C_11  and  C_13
REMARK    6  A    between atoms: C_14  and  C_15
REMARK    7  A    between atoms: C_24  and  C_25
REMARK                            x       y       z     vdW  Elec       q    Type
REMARK                         _______ _______ _______ _____ _____    ______ ____
ROOT
ATOM      1  N   UNL     1      -0.860   9.778  18.654  0.00  0.00    +0.000 N 
ATOM      2  C   UNL     1       0.446  10.046  19.028  0.00  0.00    +0.000 C 
ATOM      3  O   UNL     1       1.167  10.818  18.400  0.00  0.00    +0.000 OA
ATOM      4  H   UNL     1      -1.443   9.255  19.293  0.00  0.00    +0.000 HD
ENDROOT
BRANCH   1  10
ATOM      5  C   UNL     1      -5.395  11.910  18.381  0.00  0.00    +0.000 C 
ATOM      6  O   UNL     1      -5.578  13.023  18.857  0.00  0.00    +0.000 OA
ATOM      7  N   UNL     1      -4.140  11.364  18.159  0.00  0.00    +0.000 N 
ATOM      8  C   UNL     1      -2.994  12.083  18.670  0.00  0.00    +0.000 C 
ATOM      9  C   UNL     1      -1.790  11.908  17.757  0.00  0.00    +0.000 C 
ATOM     10  C   UNL     1      -1.474  10.430  17.499  0.00  0.00    +0.000 C 
ATOM     11  C   UNL     1      -2.726   9.683  17.024  0.00  0.00    +0.000 C 
ATOM     12  C   UNL     1      -3.947   9.937  17.907  0.00  0.00    +0.000 C 
BRANCH   5  13
ATOM     13  O   UNL     1      -6.404  11.051  18.071  0.00  0.00    +0.000 OA
BRANCH  13  15
ATOM     14  C   UNL     1      -7.050   9.256  19.488  0.00  0.00    +0.000 C 
ATOM     15  C   UNL     1      -7.277  10.717  19.155  0.00  0.00    +0.000 C 
ENDBRANCH  13  15
ENDBRANCH   5  13
ENDBRANCH   1  10
BRANCH   2  16
ATOM     16  C   UNL     1       0.885   9.404  20.246  0.00  0.00    +0.000 A 
ATOM     17  C   UNL     1       1.646   8.195  20.398  0.00  0.00    +0.000 A 
ATOM     18  N   UNL     1       1.852   7.949  21.703  0.00  0.00    +0.000 NA
ATOM     19  O   UNL     1       1.199   8.929  22.404  0.00  0.00    +0.000 OA
ATOM     20  C   UNL     1       0.628   9.806  21.542  0.00  0.00    +0.000 A 
ATOM     21  C   UNL     1      -0.122  10.911  22.170  0.00  0.00    +0.000 C 
BRANCH  17  22
ATOM     22  C   UNL     1       2.277   7.344  19.379  0.00  0.00    +0.000 A 
ATOM     23  C   UNL     1       2.961   7.958  18.310  0.00  0.00    +0.000 A 
ATOM     24  C   UNL     1       3.657   7.202  17.363  0.00  0.00    +0.000 A 
ATOM     25  C   UNL     1       3.705   5.817  17.476  0.00  0.00    +0.000 A 
ATOM     26  C   UNL     1       3.027   5.188  18.518  0.00  0.00    +0.000 A 
ATOM     27  C   UNL     1       2.302   5.938  19.454  0.00  0.00    +0.000 A 
ATOM     28 CL   UNL     1       1.427   5.032  20.645  0.00  0.00    +0.000 Cl
ENDBRANCH  17  22
ENDBRANCH   2  16
TORSDOF 5
ENDMDL
MODEL 4
REMARK VINA RESULT:      -6.7      3.921      8.868
REMARK  Name = 
REMARK  7 active torsions:
REMARK  status: ('A' for Active; 'I' for Inactive)
REMARK    1  A    between atoms: C_1  and  C_2
REMARK    2  A    between atoms: C_2  and  O_3
REMARK    3  A    between atoms: O_3  and  C_4
REMARK    4  A    between atoms: C_9  and  N_10
REMARK    5  A    between atoms: C_11  and  C_13
REMARK    6  A    between atoms: C_14  and  C_15
REMARK    7  A    between atoms: C_24  and  C_25
REMARK                            x       y       z     vdW  Elec       q    Type
REMARK                         _______ _______ _______ _____ _____    ______ ____
ROOT
ATOM      1  N   UNL     1       1.720   8.128  18.464  0.00  0.00    +0.000 N 
ATOM      2  C   UNL     1       2.839   7.370  18.161  0.00  0.00    +0.000 C 
ATOM      3  O   UNL     1       3.645   7.701  17.297  0.00  0.00    +0.000 OA
ATOM      4  H   UNL     1       1.181   7.881  19.282  0.00  0.00    +0.000 HD
ENDROOT
BRANCH   1  10
ATOM      5  C   UNL     1      -0.735  12.114  20.274  0.00  0.00    +0.000 C 
ATOM      6  O   UNL     1      -0.176  12.876  21.052  0.00  0.00    +0.000 OA
ATOM      7  N   UNL     1      -0.070  11.164  19.514  0.00  0.00    +0.000 N 
ATOM      8  C   UNL     1       1.337  10.954  19.780  0.00  0.00    +0.000 C 
ATOM      9  C   UNL     1       2.083  10.593  18.506  0.00  0.00    +0.000 C 
ATOM     10  C   UNL     1       1.449   9.395  17.788  0.00  0.00    +0.000 C 
ATOM     11  C   UNL     1      -0.054   9.620  17.582  0.00  0.00    +0.000 C 
ATOM     12  C   UNL     1      -0.773  10.064  18.856  0.00  0.00    +0.000 C 
BRANCH   5  13
ATOM     13  O   UNL     1      -2.085  12.067  20.109  0.00  0.00    +0.000 OA
BRANCH  13  15
ATOM     14  C   UNL     1      -3.570  12.705  21.850  0.00  0.00    +0.000 C 
ATOM     15  C   UNL     1      -2.804  13.187  20.634  0.00  0.00    +0.000 C 
ENDBRANCH  13  15
ENDBRANCH   5  13
ENDBRANCH   1  10
BRANCH   2  16
ATOM     16  C   UNL     1       3.027   6.193  18.979  0.00  0.00    +0.000 A 
ATOM     17  C   UNL     1       3.900   5.075  18.754  0.00  0.00    +0.000 A 
ATOM     18  N   UNL     1       3.782   4.195  19.763  0.00  0.00    +0.000 NA
ATOM     19  O   UNL     1       2.816   4.680  20.605  0.00  0.00    +0.000 OA
ATOM     20  C   UNL     1       2.368   5.875  20.150  0.00  0.00    +0.000 A 
ATOM     21  C   UNL     1       1.310   6.504  20.964  0.00  0.00    +0.000 C 
BRANCH  17  22
ATOM     22  C   UNL     1       4.911   4.864  17.708  0.00  0.00    +0.000 A 
ATOM     23  C   UNL     1       4.492   4.416  16.438  0.00  0.00    +0.000 A 
ATOM     24  C   UNL     1       5.394   4.285  15.379  0.00  0.00    +0.000 A 
ATOM     25  C   UNL     1       6.731   4.621  15.558  0.00  0.00    +0.000 A 
ATOM     26  C   UNL     1       7.171   5.055  16.807  0.00  0.00    +0.000 A 
ATOM     27  C   UNL     1       6.277   5.159  17.881  0.00  0.00    +0.000 A 
ATOM     28 CL   UNL     1       6.965   5.620  19.404  0.00  0.00    +0.000 Cl
ENDBRANCH  17  22
ENDBRANCH   2  16
TORSDOF 5
ENDMDL
MODEL 5
REMARK VINA RESULT:      -6.6      4.363      8.763
REMARK  Name = 
REMARK  7 active torsions:
REMARK  status: ('A' for Active; 'I' for Inactive)
REMARK    1  A    between atoms: C_1  and  C_2
REMARK    2  A    between atoms: C_2  and  O_3
REMARK    3  A    between atoms: O_3  and  C_4
REMARK    4  A    between atoms: C_9  and  N_10
REMARK    5  A    between atoms: C_11  and  C_13
REMARK    6  A    between atoms: C_14  and  C_15
REMARK    7  A    between atoms: C_24  and  C_25
REMARK                            x       y       z     vdW  Elec       q    Type
REMARK                         _______ _______ _______ _____ _____    ______ ____
ROOT
ATOM      1  N   UNL     1       2.909   7.912  18.195  0.00  0.00    +0.000 N 
ATOM      2  C   UNL     1       3.828   7.298  17.360  0.00  0.00    +0.000 C 
ATOM      3  O   UNL     1       3.866   7.511  16.151  0.00  0.00    +0.000 OA
ATOM      4  H   UNL     1       3.026   7.810  19.193  0.00  0.00    +0.000 HD
ENDROOT
BRANCH   1  10
ATOM      5  C   UNL     1       0.353  11.357  20.798  0.00  0.00    +0.000 C 
ATOM      6  O   UNL     1       0.905  12.390  21.154  0.00  0.00    +0.000 OA
ATOM      7  N   UNL     1       0.877  10.489  19.854  0.00  0.00    +0.000 N 
ATOM      8  C   UNL     1       2.225  10.735  19.390  0.00  0.00    +0.000 C 
ATOM      9  C   UNL     1       2.380  10.332  17.931  0.00  0.00    +0.000 C 
ATOM     10  C   UNL     1       1.943   8.883  17.686  0.00  0.00    +0.000 C 
ATOM     11  C   UNL     1       0.538   8.637  18.250  0.00  0.00    +0.000 C 
ATOM     12  C   UNL     1       0.378   9.125  19.690  0.00  0.00    +0.000 C 
BRANCH   5  13
ATOM     13  O   UNL     1      -0.814  10.907  21.335  0.00  0.00    +0.000 OA
BRANCH  13  15
ATOM     14  C   UNL     1      -0.214   9.661  23.267  0.00  0.00    +0.000 C 
ATOM     15  C   UNL     1      -0.878  10.927  22.764  0.00  0.00    +0.000 C 
ENDBRANCH  13  15
ENDBRANCH   5  13
ENDBRANCH   1  10
BRANCH   2  16
ATOM     16  C   UNL     1       4.783   6.437  18.020  0.00  0.00    +0.000 A 
ATOM     17  C   UNL     1       4.534   5.308  18.871  0.00  0.00    +0.000 A 
ATOM     18  N   UNL     1       5.700   4.773  19.271  0.00  0.00    +0.000 NA
ATOM     19  O   UNL     1       6.698   5.557  18.753  0.00  0.00    +0.000 OA
ATOM     20  C   UNL     1       6.160   6.545  17.998  0.00  0.00    +0.000 A 
ATOM     21  C   UNL     1       7.132   7.474  17.388  0.00  0.00    +0.000 C 
BRANCH  17  22
ATOM     22  C   UNL     1       3.265   4.651  19.218  0.00  0.00    +0.000 A 
ATOM     23  C   UNL     1       2.684   4.917  20.475  0.00  0.00    +0.000 A 
ATOM     24  C   UNL     1       1.437   4.394  20.824  0.00  0.00    +0.000 A 
ATOM     25  C   UNL     1       0.730   3.612  19.917  0.00  0.00    +0.000 A 
ATOM     26  C   UNL     1       1.290   3.326  18.673  0.00  0.00    +0.000 A 
ATOM     27  C   UNL     1       2.554   3.823  18.329  0.00  0.00    +0.000 A 
ATOM     28 CL   UNL     1       3.179   3.319  16.792  0.00  0.00    +0.000 Cl
ENDBRANCH  17  22
ENDBRANCH   2  16
TORSDOF 5
ENDMDL
MODEL 6
REMARK VINA RESULT:      -6.5      3.435      8.242
REMARK  Name = 
REMARK  7 active torsions:
REMARK  status: ('A' for Active; 'I' for Inactive)
REMARK    1  A    between atoms: C_1  and  C_2
REMARK    2  A    between atoms: C_2  and  O_3
REMARK    3  A    between atoms: O_3  and  C_4
REMARK    4  A    between atoms: C_9  and  N_10
REMARK    5  A    between atoms: C_11  and  C_13
REMARK    6  A    between atoms: C_14  and  C_15
REMARK    7  A    between atoms: C_24  and  C_25
REMARK                            x       y       z     vdW  Elec       q    Type
REMARK                         _______ _______ _______ _____ _____    ______ ____
ROOT
ATOM      1  N   UNL     1       1.270   8.988  18.874  0.00  0.00    +0.000 N 
ATOM      2  C   UNL     1       2.159   8.075  18.333  0.00  0.00    +0.000 C 
ATOM      3  O   UNL     1       2.681   8.235  17.233  0.00  0.00    +0.000 OA
ATOM      4  H   UNL     1       0.994   8.874  19.839  0.00  0.00    +0.000 HD
ENDROOT
BRANCH   1  10
ATOM      5  C   UNL     1      -0.813  13.129  20.799  0.00  0.00    +0.000 C 
ATOM      6  O   UNL     1      -0.129  13.917  21.440  0.00  0.00    +0.000 OA
ATOM      7  N   UNL     1      -0.287  12.122  20.005  0.00  0.00    +0.000 N 
ATOM      8  C   UNL     1       1.139  11.890  20.069  0.00  0.00    +0.000 C 
ATOM      9  C   UNL     1       1.679  11.441  18.720  0.00  0.00    +0.000 C 
ATOM     10  C   UNL     1       0.922  10.224  18.175  0.00  0.00    +0.000 C 
ATOM     11  C   UNL     1      -0.591  10.477  18.184  0.00  0.00    +0.000 C 
ATOM     12  C   UNL     1      -1.101  11.007  19.523  0.00  0.00    +0.000 C 
BRANCH   5  13
ATOM     13  O   UNL     1      -2.173  13.108  20.842  0.00  0.00    +0.000 OA
BRANCH  13  15
ATOM     14  C   UNL     1      -2.913  12.288  22.946  0.00  0.00    +0.000 C 
ATOM     15  C   UNL     1      -2.752  13.523  22.083  0.00  0.00    +0.000 C 
ENDBRANCH  13  15
ENDBRANCH   5  13
ENDBRANCH   1  10
BRANCH   2  16
ATOM     16  C   UNL     1       2.482   6.950  19.182  0.00  0.00    +0.000 A 
ATOM     17  C   UNL     1       3.362   5.848  18.912  0.00  0.00    +0.000 A 
ATOM     18  N   UNL     1       3.391   5.021  19.971  0.00  0.00    +0.000 NA
ATOM     19  O   UNL     1       2.514   5.522  20.896  0.00  0.00    +0.000 OA
ATOM     20  C   UNL     1       1.974   6.678  20.437  0.00  0.00    +0.000 A 
ATOM     21  C   UNL     1       0.996   7.319  21.337  0.00  0.00    +0.000 C 
BRANCH  17  22
ATOM     22  C   UNL     1       4.252   5.609  17.767  0.00  0.00    +0.000 A 
ATOM     23  C   UNL     1       5.350   6.471  17.569  0.00  0.00    +0.000 A 
ATOM     24  C   UNL     1       6.281   6.240  16.553  0.00  0.00    +0.000 A 
ATOM     25  C   UNL     1       6.148   5.131  15.725  0.00  0.00    +0.000 A 
ATOM     26  C   UNL     1       5.063   4.273  15.893  0.00  0.00    +0.000 A 
ATOM     27  C   UNL     1       4.110   4.515  16.892  0.00  0.00    +0.000 A 
ATOM     28 CL   UNL     1       2.761   3.428  16.938  0.00  0.00    +0.000 Cl
ENDBRANCH  17  22
ENDBRANCH   2  16
TORSDOF 5
ENDMDL
MODEL 7
REMARK VINA RESULT:      -6.5      1.962      4.194
REMARK  Name = 
REMARK  7 active torsions:
REMARK  status: ('A' for Active; 'I' for Inactive)
REMARK    1  A    between atoms: C_1  and  C_2
REMARK    2  A    between atoms: C_2  and  O_3
REMARK    3  A    between atoms: O_3  and  C_4
REMARK    4  A    between atoms: C_9  and  N_10
REMARK    5  A    between atoms: C_11  and  C_13
REMARK    6  A    between atoms: C_14  and  C_15
REMARK    7  A    between atoms: C_24  and  C_25
REMARK                            x       y       z     vdW  Elec       q    Type
REMARK                         _______ _______ _______ _____ _____    ______ ____
ROOT
ATOM      1  N   UNL     1      -0.787  11.217  20.218  0.00  0.00    +0.000 N 
ATOM      2  C   UNL     1      -1.409  12.390  19.826  0.00  0.00    +0.000 C 
ATOM      3  O   UNL     1      -0.791  13.433  19.637  0.00  0.00    +0.000 OA
ATOM      4  H   UNL     1      -1.327  10.362  20.211  0.00  0.00    +0.000 HD
ENDROOT
BRANCH   1  10
ATOM      5  C   UNL     1       2.263   7.401  19.067  0.00  0.00    +0.000 C 
ATOM      6  O   UNL     1       2.597   7.213  17.904  0.00  0.00    +0.000 OA
ATOM      7  N   UNL     1       1.665   8.567  19.518  0.00  0.00    +0.000 N 
ATOM      8  C   UNL     1       1.267   9.545  18.529  0.00  0.00    +0.000 C 
ATOM      9  C   UNL     1       1.411  10.958  19.073  0.00  0.00    +0.000 C 
ATOM     10  C   UNL     1       0.662  11.143  20.398  0.00  0.00    +0.000 C 
ATOM     11  C   UNL     1       1.055  10.050  21.400  0.00  0.00    +0.000 C 
ATOM     12  C   UNL     1       0.985   8.643  20.810  0.00  0.00    +0.000 C 
BRANCH   5  13
ATOM     13  O   UNL     1       2.381   6.459  20.043  0.00  0.00    +0.000 OA
BRANCH  13  15
ATOM     14  C   UNL     1       1.242   4.420  20.480  0.00  0.00    +0.000 C 
ATOM     15  C   UNL     1       2.271   5.103  19.601  0.00  0.00    +0.000 C 
ENDBRANCH  13  15
ENDBRANCH   5  13
ENDBRANCH   1  10
BRANCH   2  16
ATOM     16  C   UNL     1      -2.832  12.286  19.593  0.00  0.00    +0.000 A 
ATOM     17  C   UNL     1      -3.909  12.869  20.344  0.00  0.00    +0.000 A 
ATOM     18  N   UNL     1      -5.085  12.537  19.785  0.00  0.00    +0.000 NA
ATOM     19  O   UNL     1      -4.807  11.709  18.729  0.00  0.00    +0.000 OA
ATOM     20  C   UNL     1      -3.466  11.562  18.602  0.00  0.00    +0.000 A 
ATOM     21  C   UNL     1      -3.029  10.680  17.503  0.00  0.00    +0.000 C 
BRANCH  17  22
ATOM     22  C   UNL     1      -3.870  13.807  21.475  0.00  0.00    +0.000 A 
ATOM     23  C   UNL     1      -4.333  15.125  21.281  0.00  0.00    +0.000 A 
ATOM     24  C   UNL     1      -4.406  16.033  22.340  0.00  0.00    +0.000 A 
ATOM     25  C   UNL     1      -4.038  15.639  23.622  0.00  0.00    +0.000 A 
ATOM     26  C   UNL     1      -3.565  14.346  23.836  0.00  0.00    +0.000 A 
ATOM     27  C   UNL     1      -3.462  13.439  22.771  0.00  0.00    +0.000 A 
ATOM     28 CL   UNL     1      -2.773  11.894  23.150  0.00  0.00    +0.000 Cl
ENDBRANCH  17  22
ENDBRANCH   2  16
TORSDOF 5
ENDMDL
MODEL 8
REMARK VINA RESULT:      -6.5      4.019      5.824
REMARK  Name = 
REMARK  7 active torsions:
REMARK  status: ('A' for Active; 'I' for Inactive)
REMARK    1  A    between atoms: C_1  and  C_2
REMARK    2  A    between atoms: C_2  and  O_3
REMARK    3  A    between atoms: O_3  and  C_4
REMARK    4  A    between atoms: C_9  and  N_10
REMARK    5  A    between atoms: C_11  and  C_13
REMARK    6  A    between atoms: C_14  and  C_15
REMARK    7  A    between atoms: C_24  and  C_25
REMARK                            x       y       z     vdW  Elec       q    Type
REMARK                         _______ _______ _______ _____ _____    ______ ____
ROOT
ATOM      1  N   UNL     1       1.852   8.310  19.184  0.00  0.00    +0.000 N 
ATOM      2  C   UNL     1       1.028   9.417  19.068  0.00  0.00    +0.000 C 
ATOM      3  O   UNL     1       0.549   9.772  17.995  0.00  0.00    +0.000 OA
ATOM      4  H   UNL     1       2.090   7.985  20.111  0.00  0.00    +0.000 HD
ENDROOT
BRANCH   1  10
ATOM      5  C   UNL     1       5.520   4.908  18.787  0.00  0.00    +0.000 C 
ATOM      6  O   UNL     1       5.391   3.804  19.302  0.00  0.00    +0.000 OA
ATOM      7  N   UNL     1       4.475   5.799  18.602  0.00  0.00    +0.000 N 
ATOM      8  C   UNL     1       3.198   5.472  19.198  0.00  0.00    +0.000 C 
ATOM      9  C   UNL     1       2.051   5.975  18.337  0.00  0.00    +0.000 C 
ATOM     10  C   UNL     1       2.176   7.473  18.031  0.00  0.00    +0.000 C 
ATOM     11  C   UNL     1       3.564   7.796  17.464  0.00  0.00    +0.000 C 
ATOM     12  C   UNL     1       4.702   7.211  18.298  0.00  0.00    +0.000 C 
BRANCH   5  13
ATOM     13  O   UNL     1       6.720   5.415  18.393  0.00  0.00    +0.000 OA
BRANCH  13  15
ATOM     14  C   UNL     1       7.000   4.780  16.121  0.00  0.00    +0.000 C 
ATOM     15  C   UNL     1       7.493   4.567  17.539  0.00  0.00    +0.000 C 
ENDBRANCH  13  15
ENDBRANCH   5  13
ENDBRANCH   1  10
BRANCH   2  16
ATOM     16  C   UNL     1       0.719  10.089  20.309  0.00  0.00    +0.000 A 
ATOM     17  C   UNL     1       0.934  11.465  20.662  0.00  0.00    +0.000 A 
ATOM     18  N   UNL     1       0.493  11.689  21.911  0.00  0.00    +0.000 NA
ATOM     19  O   UNL     1       0.052  10.488  22.401  0.00  0.00    +0.000 OA
ATOM     20  C   UNL     1       0.174   9.531  21.449  0.00  0.00    +0.000 A 
ATOM     21  C   UNL     1      -0.257   8.178  21.854  0.00  0.00    +0.000 C 
BRANCH  17  22
ATOM     22  C   UNL     1       1.418  12.584  19.840  0.00  0.00    +0.000 A 
ATOM     23  C   UNL     1       2.712  13.091  20.079  0.00  0.00    +0.000 A 
ATOM     24  C   UNL     1       3.261  14.091  19.272  0.00  0.00    +0.000 A 
ATOM     25  C   UNL     1       2.539  14.592  18.195  0.00  0.00    +0.000 A 
ATOM     26  C   UNL     1       1.253  14.114  17.947  0.00  0.00    +0.000 A 
ATOM     27  C   UNL     1       0.686  13.132  18.771  0.00  0.00    +0.000 A 
ATOM     28 CL   UNL     1      -0.952  12.691  18.414  0.00  0.00    +0.000 Cl
ENDBRANCH  17  22
ENDBRANCH   2  16
TORSDOF 5
ENDMDL
MODEL 9
REMARK VINA RESULT:      -6.5      1.760      4.108
REMARK  Name = 
REMARK  7 active torsions:
REMARK  status: ('A' for Active; 'I' for Inactive)
REMARK    1  A    between atoms: C_1  and  C_2
REMARK    2  A    between atoms: C_2  and  O_3
REMARK    3  A    between atoms: O_3  and  C_4
REMARK    4  A    between atoms: C_9  and  N_10
REMARK    5  A    between atoms: C_11  and  C_13
REMARK    6  A    between atoms: C_14  and  C_15
REMARK    7  A    between atoms: C_24  and  C_25
REMARK                            x       y       z     vdW  Elec       q    Type
REMARK                         _______ _______ _______ _____ _____    ______ ____
ROOT
ATOM      1  N   UNL     1      -0.657  11.146  20.049  0.00  0.00    +0.000 N 
ATOM      2  C   UNL     1      -1.310  12.364  19.962  0.00  0.00    +0.000 C 
ATOM      3  O   UNL     1      -0.717  13.437  20.028  0.00  0.00    +0.000 OA
ATOM      4  H   UNL     1      -1.178  10.307  19.838  0.00  0.00    +0.000 HD
ENDROOT
BRANCH   1  10
ATOM      5  C   UNL     1       2.315   7.221  19.075  0.00  0.00    +0.000 C 
ATOM      6  O   UNL     1       2.611   6.949  17.919  0.00  0.00    +0.000 OA
ATOM      7  N   UNL     1       1.744   8.423  19.462  0.00  0.00    +0.000 N 
ATOM      8  C   UNL     1       1.327   9.335  18.420  0.00  0.00    +0.000 C 
ATOM      9  C   UNL     1       1.503  10.781  18.860  0.00  0.00    +0.000 C 
ATOM     10  C   UNL     1       0.796  11.066  20.190  0.00  0.00    +0.000 C 
ATOM     11  C   UNL     1       1.208  10.041  21.254  0.00  0.00    +0.000 C 
ATOM     12  C   UNL     1       1.104   8.597  20.765  0.00  0.00    +0.000 C 
BRANCH   5  13
ATOM     13  O   UNL     1       2.453   6.348  20.111  0.00  0.00    +0.000 OA
BRANCH  13  15
ATOM     14  C   UNL     1       2.152   4.225  21.134  0.00  0.00    +0.000 C 
ATOM     15  C   UNL     1       2.024   5.009  19.843  0.00  0.00    +0.000 C 
ENDBRANCH  13  15
ENDBRANCH   5  13
ENDBRANCH   1  10
BRANCH   2  16
ATOM     16  C   UNL     1      -2.734  12.285  19.725  0.00  0.00    +0.000 A 
ATOM     17  C   UNL     1      -3.810  12.656  20.601  0.00  0.00    +0.000 A 
ATOM     18  N   UNL     1      -4.988  12.436  19.992  0.00  0.00    +0.000 NA
ATOM     19  O   UNL     1      -4.710  11.879  18.772  0.00  0.00    +0.000 OA
ATOM     20  C   UNL     1      -3.368  11.795  18.601  0.00  0.00    +0.000 A 
ATOM     21  C   UNL     1      -2.930  11.197  17.324  0.00  0.00    +0.000 C 
BRANCH  17  22
ATOM     22  C   UNL     1      -3.773  13.311  21.917  0.00  0.00    +0.000 A 
ATOM     23  C   UNL     1      -3.926  12.520  23.074  0.00  0.00    +0.000 A 
ATOM     24  C   UNL     1      -3.809  13.071  24.352  0.00  0.00    +0.000 A 
ATOM     25  C   UNL     1      -3.512  14.421  24.504  0.00  0.00    +0.000 A 
ATOM     26  C   UNL     1      -3.367  15.225  23.375  0.00  0.00    +0.000 A 
ATOM     27  C   UNL     1      -3.514  14.684  22.090  0.00  0.00    +0.000 A 
ATOM     28 CL   UNL     1      -3.403  15.806  20.774  0.00  0.00    +0.000 Cl
ENDBRANCH  17  22
ENDBRANCH   2  16
TORSDOF 5
ENDMDL
