MODEL 1
REMARK VINA RESULT:      -9.2      0.000      0.000
REMARK  Name = 
REMARK  5 active torsions:
REMARK  status: ('A' for Active; 'I' for Inactive)
REMARK    1  A    between atoms: C_1  and  C_2
REMARK    2  A    between atoms: C_6  and  C_7
REMARK    3  A    between atoms: C_11  and  C_12
REMARK    4  A    between atoms: C_12  and  O_14
REMARK    5  A    between atoms: N_18  and  C_19
REMARK                            x       y       z     vdW  Elec       q    Type
REMARK                         _______ _______ _______ _____ _____    ______ ____
ROOT
ATOM      1  C   UNL     1       2.882   6.941  18.427  0.00  0.00    +0.000 A 
ATOM      2  N   UNL     1       3.795   7.369  17.561  0.00  0.00    +0.000 NA
ATOM      3  C   UNL     1       4.363   6.263  16.997  0.00  0.00    +0.000 A 
ATOM      4  C   UNL     1       5.342   6.194  15.982  0.00  0.00    +0.000 A 
ATOM      5  C   UNL     1       5.804   4.935  15.560  0.00  0.00    +0.000 A 
ATOM      6  C   UNL     1       5.306   3.780  16.149  0.00  0.00    +0.000 A 
ATOM      7  C   UNL     1       4.342   3.853  17.155  0.00  0.00    +0.000 A 
ATOM      8  C   UNL     1       3.846   5.099  17.562  0.00  0.00    +0.000 A 
ATOM      9  N   UNL     1       2.868   5.535  18.456  0.00  0.00    +0.000 N 
ENDROOT
BRANCH   1  15
ATOM     10  C   UNL     1       0.053  10.861  18.556  0.00  0.00    +0.000 C 
ATOM     11  C   UNL     1       0.694   9.747  19.328  0.00  0.00    +0.000 A 
ATOM     12  C   UNL     1       0.413   9.543  20.672  0.00  0.00    +0.000 A 
ATOM     13  C   UNL     1       1.018   8.471  21.320  0.00  0.00    +0.000 A 
ATOM     14  C   UNL     1       1.855   7.618  20.604  0.00  0.00    +0.000 A 
ATOM     15  C   UNL     1       2.064   7.859  19.248  0.00  0.00    +0.000 A 
ATOM     16  N   UNL     1       1.522   8.934  18.628  0.00  0.00    +0.000 NA
ENDBRANCH   1  15
BRANCH   9  17
ATOM     17  C   UNL     1       1.974   4.715  19.280  0.00  0.00    +0.000 C 
ATOM     18  C   UNL     1       1.085   3.726  18.516  0.00  0.00    +0.000 C 
ATOM     19  C   UNL     1       1.740   2.389  18.216  0.00  0.00    +0.000 C 
ATOM     20  C   UNL     1       2.534   1.798  19.387  0.00  0.00    +0.000 C 
ATOM     21  C   UNL     1       3.308   2.773  20.282  0.00  0.00    +0.000 C 
ATOM     22  C   UNL     1       2.590   4.084  20.531  0.00  0.00    +0.000 C 
ENDBRANCH   9  17
BRANCH   5  23
ATOM     23  C   UNL     1       6.792   4.751  14.465  0.00  0.00    +0.000 C 
ATOM     24  O   UNL     1       7.729   5.505  14.284  0.00  0.00    +0.000 OA
BRANCH  23  25
ATOM     25  O   UNL     1       6.517   3.707  13.658  0.00  0.00    +0.000 OA
ATOM     26  H   UNL     1       6.548   2.834  14.086  0.00  0.00    +0.000 HD
ENDBRANCH  23  25
ENDBRANCH   5  23
TORSDOF 4
ENDMDL
MODEL 2
REMARK VINA RESULT:      -9.1      0.631      1.355
REMARK  Name = 
REMARK  5 active torsions:
REMARK  status: ('A' for Active; 'I' for Inactive)
REMARK    1  A    between atoms: C_1  and  C_2
REMARK    2  A    between atoms: C_6  and  C_7
REMARK    3  A    between atoms: C_11  and  C_12
REMARK    4  A    between atoms: C_12  and  O_14
REMARK    5  A    between atoms: N_18  and  C_19
REMARK                            x       y       z     vdW  Elec       q    Type
REMARK                         _______ _______ _______ _____ _____    ______ ____
ROOT
ATOM      1  C   UNL     1       2.806   7.182  18.107  0.00  0.00    +0.000 A 
ATOM      2  N   UNL     1       3.752   7.539  17.245  0.00  0.00    +0.000 NA
ATOM      3  C   UNL     1       4.357   6.394  16.815  0.00  0.00    +0.000 A 
ATOM      4  C   UNL     1       5.381   6.243  15.855  0.00  0.00    +0.000 A 
ATOM      5  C   UNL     1       5.877   4.958  15.578  0.00  0.00    +0.000 A 
ATOM      6  C   UNL     1       5.368   3.856  16.254  0.00  0.00    +0.000 A 
ATOM      7  C   UNL     1       4.359   4.010  17.205  0.00  0.00    +0.000 A 
ATOM      8  C   UNL     1       3.829   5.282  17.468  0.00  0.00    +0.000 A 
ATOM      9  N   UNL     1       2.808   5.785  18.272  0.00  0.00    +0.000 N 
ENDROOT
BRANCH   1  15
ATOM     10  C   UNL     1       1.195   8.929  22.319  0.00  0.00    +0.000 C 
ATOM     11  C   UNL     1       1.156   9.018  20.823  0.00  0.00    +0.000 A 
ATOM     12  C   UNL     1       0.462  10.033  20.177  0.00  0.00    +0.000 A 
ATOM     13  C   UNL     1       0.493  10.076  18.787  0.00  0.00    +0.000 A 
ATOM     14  C   UNL     1       1.238   9.131  18.086  0.00  0.00    +0.000 A 
ATOM     15  C   UNL     1       1.941   8.161  18.799  0.00  0.00    +0.000 A 
ATOM     16  N   UNL     1       1.867   8.083  20.149  0.00  0.00    +0.000 NA
ENDBRANCH   1  15
BRANCH   9  17
ATOM     17  C   UNL     1       1.887   5.034  19.132  0.00  0.00    +0.000 C 
ATOM     18  C   UNL     1       1.044   3.962  18.429  0.00  0.00    +0.000 C 
ATOM     19  C   UNL     1       1.728   2.613  18.288  0.00  0.00    +0.000 C 
ATOM     20  C   UNL     1       2.477   2.149  19.544  0.00  0.00    +0.000 C 
ATOM     21  C   UNL     1       3.198   3.218  20.373  0.00  0.00    +0.000 C 
ATOM     22  C   UNL     1       2.454   4.535  20.463  0.00  0.00    +0.000 C 
ENDBRANCH   9  17
BRANCH   5  23
ATOM     23  C   UNL     1       6.915   4.685  14.549  0.00  0.00    +0.000 C 
ATOM     24  O   UNL     1       7.866   5.418  14.357  0.00  0.00    +0.000 OA
BRANCH  23  25
ATOM     25  O   UNL     1       6.672   3.582  13.813  0.00  0.00    +0.000 OA
ATOM     26  H   UNL     1       5.836   3.128  14.013  0.00  0.00    +0.000 HD
ENDBRANCH  23  25
ENDBRANCH   5  23
TORSDOF 4
ENDMDL
MODEL 3
REMARK VINA RESULT:      -7.8      1.189      1.778
REMARK  Name = 
REMARK  5 active torsions:
REMARK  status: ('A' for Active; 'I' for Inactive)
REMARK    1  A    between atoms: C_1  and  C_2
REMARK    2  A    between atoms: C_6  and  C_7
REMARK    3  A    between atoms: C_11  and  C_12
REMARK    4  A    between atoms: C_12  and  O_14
REMARK    5  A    between atoms: N_18  and  C_19
REMARK                            x       y       z     vdW  Elec       q    Type
REMARK                         _______ _______ _______ _____ _____    ______ ____
ROOT
ATOM      1  C   UNL     1       2.433   7.460  18.951  0.00  0.00    +0.000 A 
ATOM      2  N   UNL     1       3.332   7.829  18.044  0.00  0.00    +0.000 NA
ATOM      3  C   UNL     1       4.069   6.722  17.736  0.00  0.00    +0.000 A 
ATOM      4  C   UNL     1       5.106   6.588  16.787  0.00  0.00    +0.000 A 
ATOM      5  C   UNL     1       5.750   5.347  16.646  0.00  0.00    +0.000 A 
ATOM      6  C   UNL     1       5.373   4.275  17.444  0.00  0.00    +0.000 A 
ATOM      7  C   UNL     1       4.351   4.412  18.384  0.00  0.00    +0.000 A 
ATOM      8  C   UNL     1       3.675   5.634  18.512  0.00  0.00    +0.000 A 
ATOM      9  N   UNL     1       2.599   6.099  19.267  0.00  0.00    +0.000 N 
ENDROOT
BRANCH   1  15
ATOM     10  C   UNL     1       0.436   9.264  22.968  0.00  0.00    +0.000 C 
ATOM     11  C   UNL     1       0.485   9.285  21.470  0.00  0.00    +0.000 A 
ATOM     12  C   UNL     1      -0.237  10.215  20.735  0.00  0.00    +0.000 A 
ATOM     13  C   UNL     1      -0.122  10.199  19.349  0.00  0.00    +0.000 A 
ATOM     14  C   UNL     1       0.733   9.282  18.741  0.00  0.00    +0.000 A 
ATOM     15  C   UNL     1       1.457   8.401  19.541  0.00  0.00    +0.000 A 
ATOM     16  N   UNL     1       1.304   8.377  20.886  0.00  0.00    +0.000 NA
ENDBRANCH   1  15
BRANCH   9  17
ATOM     17  C   UNL     1       1.772   5.344  20.214  0.00  0.00    +0.000 C 
ATOM     18  C   UNL     1       0.662   4.487  19.592  0.00  0.00    +0.000 C 
ATOM     19  C   UNL     1       1.104   3.103  19.152  0.00  0.00    +0.000 C 
ATOM     20  C   UNL     1       2.015   2.382  20.154  0.00  0.00    +0.000 C 
ATOM     21  C   UNL     1       3.032   3.231  20.924  0.00  0.00    +0.000 C 
ATOM     22  C   UNL     1       2.517   4.599  21.324  0.00  0.00    +0.000 C 
ENDBRANCH   9  17
BRANCH   5  23
ATOM     23  C   UNL     1       6.815   5.087  15.642  0.00  0.00    +0.000 C 
ATOM     24  O   UNL     1       6.723   5.423  14.477  0.00  0.00    +0.000 OA
BRANCH  23  25
ATOM     25  O   UNL     1       7.863   4.394  16.131  0.00  0.00    +0.000 OA
ATOM     26  H   UNL     1       8.547   4.931  16.565  0.00  0.00    +0.000 HD
ENDBRANCH  23  25
ENDBRANCH   5  23
TORSDOF 4
ENDMDL
MODEL 4
REMARK VINA RESULT:      -7.8      3.293      6.406
REMARK  Name = 
REMARK  5 active torsions:
REMARK  status: ('A' for Active; 'I' for Inactive)
REMARK    1  A    between atoms: C_1  and  C_2
REMARK    2  A    between atoms: C_6  and  C_7
REMARK    3  A    between atoms: C_11  and  C_12
REMARK    4  A    between atoms: C_12  and  O_14
REMARK    5  A    between atoms: N_18  and  C_19
REMARK                            x       y       z     vdW  Elec       q    Type
REMARK                         _______ _______ _______ _____ _____    ______ ____
ROOT
ATOM      1  C   UNL     1       4.409   5.615  17.213  0.00  0.00    +0.000 A 
ATOM      2  N   UNL     1       4.038   6.881  17.364  0.00  0.00    +0.000 NA
ATOM      3  C   UNL     1       3.168   6.923  18.414  0.00  0.00    +0.000 A 
ATOM      4  C   UNL     1       2.541   8.045  18.998  0.00  0.00    +0.000 A 
ATOM      5  C   UNL     1       1.655   7.854  20.073  0.00  0.00    +0.000 A 
ATOM      6  C   UNL     1       1.396   6.572  20.539  0.00  0.00    +0.000 A 
ATOM      7  C   UNL     1       2.014   5.465  19.957  0.00  0.00    +0.000 A 
ATOM      8  C   UNL     1       2.927   5.642  18.907  0.00  0.00    +0.000 A 
ATOM      9  N   UNL     1       3.752   4.805  18.158  0.00  0.00    +0.000 N 
ENDROOT
BRANCH   1  15
ATOM     10  C   UNL     1       4.962   3.619  12.843  0.00  0.00    +0.000 C 
ATOM     11  C   UNL     1       5.628   4.215  14.047  0.00  0.00    +0.000 A 
ATOM     12  C   UNL     1       6.997   4.443  14.077  0.00  0.00    +0.000 A 
ATOM     13  C   UNL     1       7.546   5.029  15.212  0.00  0.00    +0.000 A 
ATOM     14  C   UNL     1       6.714   5.398  16.267  0.00  0.00    +0.000 A 
ATOM     15  C   UNL     1       5.343   5.173  16.156  0.00  0.00    +0.000 A 
ATOM     16  N   UNL     1       4.813   4.552  15.075  0.00  0.00    +0.000 NA
ENDBRANCH   1  15
BRANCH   9  17
ATOM     17  C   UNL     1       3.934   3.357  18.302  0.00  0.00    +0.000 C 
ATOM     18  C   UNL     1       4.316   2.869  19.705  0.00  0.00    +0.000 C 
ATOM     19  C   UNL     1       3.139   2.634  20.635  0.00  0.00    +0.000 C 
ATOM     20  C   UNL     1       1.954   1.910  19.983  0.00  0.00    +0.000 C 
ATOM     21  C   UNL     1       1.637   2.246  18.521  0.00  0.00    +0.000 C 
ATOM     22  C   UNL     1       2.863   2.471  17.660  0.00  0.00    +0.000 C 
ENDBRANCH   9  17
BRANCH   5  23
ATOM     23  C   UNL     1       0.987   8.971  20.791  0.00  0.00    +0.000 C 
ATOM     24  O   UNL     1       0.238   9.757  20.243  0.00  0.00    +0.000 OA
BRANCH  23  25
ATOM     25  O   UNL     1       1.334   9.065  22.090  0.00  0.00    +0.000 OA
ATOM     26  H   UNL     1       2.286   9.164  22.257  0.00  0.00    +0.000 HD
ENDBRANCH  23  25
ENDBRANCH   5  23
TORSDOF 4
ENDMDL
MODEL 5
REMARK VINA RESULT:      -7.8      3.360      6.317
REMARK  Name = 
REMARK  5 active torsions:
REMARK  status: ('A' for Active; 'I' for Inactive)
REMARK    1  A    between atoms: C_1  and  C_2
REMARK    2  A    between atoms: C_6  and  C_7
REMARK    3  A    between atoms: C_11  and  C_12
REMARK    4  A    between atoms: C_12  and  O_14
REMARK    5  A    between atoms: N_18  and  C_19
REMARK                            x       y       z     vdW  Elec       q    Type
REMARK                         _______ _______ _______ _____ _____    ______ ____
ROOT
ATOM      1  C   UNL     1       4.082   6.505  17.870  0.00  0.00    +0.000 A 
ATOM      2  N   UNL     1       3.735   7.695  17.394  0.00  0.00    +0.000 NA
ATOM      3  C   UNL     1       2.747   8.179  18.202  0.00  0.00    +0.000 A 
ATOM      4  C   UNL     1       2.091   9.428  18.143  0.00  0.00    +0.000 A 
ATOM      5  C   UNL     1       1.077   9.714  19.074  0.00  0.00    +0.000 A 
ATOM      6  C   UNL     1       0.725   8.768  20.028  0.00  0.00    +0.000 A 
ATOM      7  C   UNL     1       1.372   7.534  20.081  0.00  0.00    +0.000 A 
ATOM      8  C   UNL     1       2.409   7.247  19.181  0.00  0.00    +0.000 A 
ATOM      9  N   UNL     1       3.292   6.185  18.990  0.00  0.00    +0.000 N 
ENDROOT
BRANCH   1  15
ATOM     10  C   UNL     1       5.510   4.033  13.966  0.00  0.00    +0.000 C 
ATOM     11  C   UNL     1       5.828   4.467  15.366  0.00  0.00    +0.000 A 
ATOM     12  C   UNL     1       7.061   4.198  15.943  0.00  0.00    +0.000 A 
ATOM     13  C   UNL     1       7.303   4.657  17.234  0.00  0.00    +0.000 A 
ATOM     14  C   UNL     1       6.324   5.396  17.895  0.00  0.00    +0.000 A 
ATOM     15  C   UNL     1       5.122   5.662  17.242  0.00  0.00    +0.000 A 
ATOM     16  N   UNL     1       4.863   5.168  16.008  0.00  0.00    +0.000 NA
ENDBRANCH   1  15
BRANCH   9  17
ATOM     17  C   UNL     1       3.410   4.959  19.785  0.00  0.00    +0.000 C 
ATOM     18  C   UNL     1       2.384   4.796  20.914  0.00  0.00    +0.000 C 
ATOM     19  C   UNL     1       1.065   4.177  20.485  0.00  0.00    +0.000 C 
ATOM     20  C   UNL     1       1.208   2.976  19.541  0.00  0.00    +0.000 C 
ATOM     21  C   UNL     1       2.333   3.024  18.500  0.00  0.00    +0.000 C 
ATOM     22  C   UNL     1       3.613   3.658  19.004  0.00  0.00    +0.000 C 
ENDBRANCH   9  17
BRANCH   5  23
ATOM     23  C   UNL     1       0.363  11.016  19.131  0.00  0.00    +0.000 C 
ATOM     24  O   UNL     1      -0.496  11.265  19.956  0.00  0.00    +0.000 OA
BRANCH  23  25
ATOM     25  O   UNL     1       0.715  11.871  18.151  0.00  0.00    +0.000 OA
ATOM     26  H   UNL     1       1.123  11.459  17.370  0.00  0.00    +0.000 HD
ENDBRANCH  23  25
ENDBRANCH   5  23
TORSDOF 4
ENDMDL
MODEL 6
REMARK VINA RESULT:      -7.8      3.477      6.373
REMARK  Name = 
REMARK  5 active torsions:
REMARK  status: ('A' for Active; 'I' for Inactive)
REMARK    1  A    between atoms: C_1  and  C_2
REMARK    2  A    between atoms: C_6  and  C_7
REMARK    3  A    between atoms: C_11  and  C_12
REMARK    4  A    between atoms: C_12  and  O_14
REMARK    5  A    between atoms: N_18  and  C_19
REMARK                            x       y       z     vdW  Elec       q    Type
REMARK                         _______ _______ _______ _____ _____    ______ ____
ROOT
ATOM      1  C   UNL     1       4.083   6.031  18.204  0.00  0.00    +0.000 A 
ATOM      2  N   UNL     1       3.697   7.284  17.985  0.00  0.00    +0.000 NA
ATOM      3  C   UNL     1       2.723   7.569  18.897  0.00  0.00    +0.000 A 
ATOM      4  C   UNL     1       2.038   8.786  19.107  0.00  0.00    +0.000 A 
ATOM      5  C   UNL     1       1.046   8.852  20.100  0.00  0.00    +0.000 A 
ATOM      6  C   UNL     1       0.741   7.725  20.853  0.00  0.00    +0.000 A 
ATOM      7  C   UNL     1       1.416   6.523  20.640  0.00  0.00    +0.000 A 
ATOM      8  C   UNL     1       2.432   6.450  19.676  0.00  0.00    +0.000 A 
ATOM      9  N   UNL     1       3.332   5.472  19.254  0.00  0.00    +0.000 N 
ENDROOT
BRANCH   1  15
ATOM     10  C   UNL     1       5.323   4.138  13.930  0.00  0.00    +0.000 C 
ATOM     11  C   UNL     1       5.738   4.445  15.338  0.00  0.00    +0.000 A 
ATOM     12  C   UNL     1       7.039   4.228  15.771  0.00  0.00    +0.000 A 
ATOM     13  C   UNL     1       7.366   4.564  17.080  0.00  0.00    +0.000 A 
ATOM     14  C   UNL     1       6.399   5.136  17.905  0.00  0.00    +0.000 A 
ATOM     15  C   UNL     1       5.122   5.360  17.394  0.00  0.00    +0.000 A 
ATOM     16  N   UNL     1       4.786   4.981  16.138  0.00  0.00    +0.000 NA
ENDBRANCH   1  15
BRANCH   9  17
ATOM     17  C   UNL     1       3.498   4.115  19.783  0.00  0.00    +0.000 C 
ATOM     18  C   UNL     1       2.517   3.706  20.889  0.00  0.00    +0.000 C 
ATOM     19  C   UNL     1       1.193   3.155  20.387  0.00  0.00    +0.000 C 
ATOM     20  C   UNL     1       1.321   2.171  19.217  0.00  0.00    +0.000 C 
ATOM     21  C   UNL     1       2.406   2.451  18.171  0.00  0.00    +0.000 C 
ATOM     22  C   UNL     1       3.693   3.002  18.750  0.00  0.00    +0.000 C 
ENDBRANCH   9  17
BRANCH   5  23
ATOM     23  C   UNL     1       0.306  10.097  20.436  0.00  0.00    +0.000 C 
ATOM     24  O   UNL     1      -0.677  10.469  19.824  0.00  0.00    +0.000 OA
BRANCH  23  25
ATOM     25  O   UNL     1       0.860  10.801  21.443  0.00  0.00    +0.000 OA
ATOM     26  H   UNL     1       1.679  11.273  21.215  0.00  0.00    +0.000 HD
ENDBRANCH  23  25
ENDBRANCH   5  23
TORSDOF 4
ENDMDL
MODEL 7
REMARK VINA RESULT:      -7.4      3.460      6.431
REMARK  Name = 
REMARK  5 active torsions:
REMARK  status: ('A' for Active; 'I' for Inactive)
REMARK    1  A    between atoms: C_1  and  C_2
REMARK    2  A    between atoms: C_6  and  C_7
REMARK    3  A    between atoms: C_11  and  C_12
REMARK    4  A    between atoms: C_12  and  O_14
REMARK    5  A    between atoms: N_18  and  C_19
REMARK                            x       y       z     vdW  Elec       q    Type
REMARK                         _______ _______ _______ _____ _____    ______ ____
ROOT
ATOM      1  C   UNL     1       3.827   6.657  17.861  0.00  0.00    +0.000 A 
ATOM      2  N   UNL     1       3.455   7.839  17.381  0.00  0.00    +0.000 NA
ATOM      3  C   UNL     1       2.536   8.353  18.250  0.00  0.00    +0.000 A 
ATOM      4  C   UNL     1       1.887   9.606  18.209  0.00  0.00    +0.000 A 
ATOM      5  C   UNL     1       0.950   9.926  19.207  0.00  0.00    +0.000 A 
ATOM      6  C   UNL     1       0.663   9.008  20.209  0.00  0.00    +0.000 A 
ATOM      7  C   UNL     1       1.303   7.769  20.244  0.00  0.00    +0.000 A 
ATOM      8  C   UNL     1       2.265   7.449  19.275  0.00  0.00    +0.000 A 
ATOM      9  N   UNL     1       3.122   6.373  19.045  0.00  0.00    +0.000 N 
ENDROOT
BRANCH   1  15
ATOM     10  C   UNL     1       8.155   4.504  18.008  0.00  0.00    +0.000 C 
ATOM     11  C   UNL     1       6.893   4.739  17.233  0.00  0.00    +0.000 A 
ATOM     12  C   UNL     1       6.642   4.074  16.041  0.00  0.00    +0.000 A 
ATOM     13  C   UNL     1       5.438   4.315  15.389  0.00  0.00    +0.000 A 
ATOM     14  C   UNL     1       4.508   5.182  15.959  0.00  0.00    +0.000 A 
ATOM     15  C   UNL     1       4.809   5.788  17.177  0.00  0.00    +0.000 A 
ATOM     16  N   UNL     1       6.004   5.599  17.786  0.00  0.00    +0.000 NA
ENDBRANCH   1  15
BRANCH   9  17
ATOM     17  C   UNL     1       3.290   5.166  19.860  0.00  0.00    +0.000 C 
ATOM     18  C   UNL     1       2.236   4.948  20.953  0.00  0.00    +0.000 C 
ATOM     19  C   UNL     1       0.977   4.240  20.484  0.00  0.00    +0.000 C 
ATOM     20  C   UNL     1       1.233   3.041  19.562  0.00  0.00    +0.000 C 
ATOM     21  C   UNL     1       2.390   3.151  18.562  0.00  0.00    +0.000 C 
ATOM     22  C   UNL     1       3.606   3.874  19.104  0.00  0.00    +0.000 C 
ENDBRANCH   9  17
BRANCH   5  23
ATOM     23  C   UNL     1       0.253  11.236  19.285  0.00  0.00    +0.000 C 
ATOM     24  O   UNL     1       0.146  11.869  20.318  0.00  0.00    +0.000 OA
BRANCH  23  25
ATOM     25  O   UNL     1      -0.297  11.628  18.118  0.00  0.00    +0.000 OA
ATOM     26  H   UNL     1      -0.868  10.968  17.688  0.00  0.00    +0.000 HD
ENDBRANCH  23  25
ENDBRANCH   5  23
TORSDOF 4
ENDMDL
MODEL 8
REMARK VINA RESULT:      -6.9      2.296      4.527
REMARK  Name = 
REMARK  5 active torsions:
REMARK  status: ('A' for Active; 'I' for Inactive)
REMARK    1  A    between atoms: C_1  and  C_2
REMARK    2  A    between atoms: C_6  and  C_7
REMARK    3  A    between atoms: C_11  and  C_12
REMARK    4  A    between atoms: C_12  and  O_14
REMARK    5  A    between atoms: N_18  and  C_19
REMARK                            x       y       z     vdW  Elec       q    Type
REMARK                         _______ _______ _______ _____ _____    ______ ____
ROOT
ATOM      1  C   UNL     1       3.908   4.156  17.456  0.00  0.00    +0.000 A 
ATOM      2  N   UNL     1       3.820   3.460  16.327  0.00  0.00    +0.000 NA
ATOM      3  C   UNL     1       4.841   3.872  15.520  0.00  0.00    +0.000 A 
ATOM      4  C   UNL     1       5.205   3.394  14.243  0.00  0.00    +0.000 A 
ATOM      5  C   UNL     1       6.292   3.983  13.574  0.00  0.00    +0.000 A 
ATOM      6  C   UNL     1       6.986   5.030  14.167  0.00  0.00    +0.000 A 
ATOM      7  C   UNL     1       6.622   5.502  15.427  0.00  0.00    +0.000 A 
ATOM      8  C   UNL     1       5.561   4.902  16.122  0.00  0.00    +0.000 A 
ATOM      9  N   UNL     1       4.983   5.060  17.381  0.00  0.00    +0.000 N 
ENDROOT
BRANCH   1  15
ATOM     10  C   UNL     1       1.328   6.287  20.946  0.00  0.00    +0.000 C 
ATOM     11  C   UNL     1       1.700   5.006  20.261  0.00  0.00    +0.000 A 
ATOM     12  C   UNL     1       1.082   3.806  20.585  0.00  0.00    +0.000 A 
ATOM     13  C   UNL     1       1.452   2.661  19.889  0.00  0.00    +0.000 A 
ATOM     14  C   UNL     1       2.400   2.751  18.872  0.00  0.00    +0.000 A 
ATOM     15  C   UNL     1       2.955   3.993  18.574  0.00  0.00    +0.000 A 
ATOM     16  N   UNL     1       2.638   5.100  19.288  0.00  0.00    +0.000 NA
ENDBRANCH   1  15
BRANCH   9  17
ATOM     17  C   UNL     1       5.393   5.976  18.450  0.00  0.00    +0.000 C 
ATOM     18  C   UNL     1       6.478   5.450  19.398  0.00  0.00    +0.000 C 
ATOM     19  C   UNL     1       7.901   5.666  18.913  0.00  0.00    +0.000 C 
ATOM     20  C   UNL     1       8.161   7.055  18.315  0.00  0.00    +0.000 C 
ATOM     21  C   UNL     1       7.034   7.694  17.494  0.00  0.00    +0.000 C 
ATOM     22  C   UNL     1       5.646   7.429  18.041  0.00  0.00    +0.000 C 
ENDBRANCH   9  17
BRANCH   5  23
ATOM     23  C   UNL     1       6.788   3.519  12.252  0.00  0.00    +0.000 C 
ATOM     24  O   UNL     1       7.428   4.227  11.498  0.00  0.00    +0.000 OA
BRANCH  23  25
ATOM     25  O   UNL     1       6.412   2.262  11.943  0.00  0.00    +0.000 OA
ATOM     26  H   UNL     1       5.529   2.005  12.258  0.00  0.00    +0.000 HD
ENDBRANCH  23  25
ENDBRANCH   5  23
TORSDOF 4
ENDMDL
MODEL 9
REMARK VINA RESULT:      -6.8      2.904      4.889
REMARK  Name = 
REMARK  5 active torsions:
REMARK  status: ('A' for Active; 'I' for Inactive)
REMARK    1  A    between atoms: C_1  and  C_2
REMARK    2  A    between atoms: C_6  and  C_7
REMARK    3  A    between atoms: C_11  and  C_12
REMARK    4  A    between atoms: C_12  and  O_14
REMARK    5  A    between atoms: N_18  and  C_19
REMARK                            x       y       z     vdW  Elec       q    Type
REMARK                         _______ _______ _______ _____ _____    ______ ____
ROOT
ATOM      1  C   UNL     1       3.934   4.158  17.478  0.00  0.00    +0.000 A 
ATOM      2  N   UNL     1       3.850   3.454  16.354  0.00  0.00    +0.000 NA
ATOM      3  C   UNL     1       4.863   3.872  15.541  0.00  0.00    +0.000 A 
ATOM      4  C   UNL     1       5.227   3.390  14.265  0.00  0.00    +0.000 A 
ATOM      5  C   UNL     1       6.304   3.988  13.588  0.00  0.00    +0.000 A 
ATOM      6  C   UNL     1       6.988   5.047  14.171  0.00  0.00    +0.000 A 
ATOM      7  C   UNL     1       6.623   5.523  15.430  0.00  0.00    +0.000 A 
ATOM      8  C   UNL     1       5.573   4.915  16.133  0.00  0.00    +0.000 A 
ATOM      9  N   UNL     1       4.998   5.075  17.393  0.00  0.00    +0.000 N 
ENDROOT
BRANCH   1  15
ATOM     10  C   UNL     1       2.972   2.024  21.710  0.00  0.00    +0.000 C 
ATOM     11  C   UNL     1       2.508   2.973  20.646  0.00  0.00    +0.000 A 
ATOM     12  C   UNL     1       1.347   3.719  20.798  0.00  0.00    +0.000 A 
ATOM     13  C   UNL     1       0.991   4.605  19.787  0.00  0.00    +0.000 A 
ATOM     14  C   UNL     1       1.817   4.745  18.673  0.00  0.00    +0.000 A 
ATOM     15  C   UNL     1       2.987   3.992  18.601  0.00  0.00    +0.000 A 
ATOM     16  N   UNL     1       3.307   3.088  19.558  0.00  0.00    +0.000 NA
ENDBRANCH   1  15
BRANCH   9  17
ATOM     17  C   UNL     1       5.401   6.003  18.454  0.00  0.00    +0.000 C 
ATOM     18  C   UNL     1       6.469   5.482  19.425  0.00  0.00    +0.000 C 
ATOM     19  C   UNL     1       7.899   5.680  18.955  0.00  0.00    +0.000 C 
ATOM     20  C   UNL     1       8.178   7.058  18.341  0.00  0.00    +0.000 C 
ATOM     21  C   UNL     1       7.068   7.694  17.496  0.00  0.00    +0.000 C 
ATOM     22  C   UNL     1       5.671   7.448  18.028  0.00  0.00    +0.000 C 
ENDBRANCH   9  17
BRANCH   5  23
ATOM     23  C   UNL     1       6.801   3.521  12.267  0.00  0.00    +0.000 C 
ATOM     24  O   UNL     1       7.446   4.226  11.515  0.00  0.00    +0.000 OA
BRANCH  23  25
ATOM     25  O   UNL     1       6.420   2.265  11.958  0.00  0.00    +0.000 OA
ATOM     26  H   UNL     1       6.438   1.635  12.697  0.00  0.00    +0.000 HD
ENDBRANCH  23  25
ENDBRANCH   5  23
TORSDOF 4
ENDMDL
