MODEL 1
REMARK VINA RESULT:      -8.5      0.000      0.000
REMARK  Name = 
REMARK  10 active torsions:
REMARK  status: ('A' for Active; 'I' for Inactive)
REMARK    1  A    between atoms: C_1  and  O_2
REMARK    2  A    between atoms: O_2  and  C_3
REMARK    3  A    between atoms: C_3  and  C_5
REMARK    4  A    between atoms: C_9  and  N_10
REMARK    5  A    between atoms: C_11  and  C_13
REMARK    6  A    between atoms: C_15  and  N_16
REMARK    7  A    between atoms: C_18  and  C_19
REMARK    8  A    between atoms: C_19  and  N_20
REMARK    9  A    between atoms: C_25  and  C_26
REMARK   10  A    between atoms: C_32  and  O_33
REMARK                            x       y       z     vdW  Elec       q    Type
REMARK                         _______ _______ _______ _____ _____    ______ ____
ROOT
ATOM      1  C   UNL     1       4.396   4.885  18.003  0.00  0.00    +0.000 A 
ATOM      2  C   UNL     1       3.659   6.079  17.922  0.00  0.00    +0.000 A 
ATOM      3  C   UNL     1       2.836   6.485  18.976  0.00  0.00    +0.000 A 
ATOM      4  C   UNL     1       2.679   5.659  20.091  0.00  0.00    +0.000 A 
ATOM      5  C   UNL     1       3.342   4.427  20.141  0.00  0.00    +0.000 A 
ATOM      6  C   UNL     1       4.213   4.051  19.112  0.00  0.00    +0.000 A 
ENDROOT
BRANCH   3   7
ATOM      7  N   UNL     1       2.232   7.761  18.933  0.00  0.00    +0.000 N 
ATOM      8  C   UNL     1       1.608   8.434  19.954  0.00  0.00    +0.000 A 
ATOM      9  C   UNL     1       1.100   9.570  19.368  0.00  0.00    +0.000 A 
ATOM     10  N   UNL     1       1.424   9.567  18.038  0.00  0.00    +0.000 NA
ATOM     11  N   UNL     1       2.155   8.486  17.794  0.00  0.00    +0.000 NA
BRANCH   9  12
ATOM     12  C   UNL     1       0.353  10.691  20.008  0.00  0.00    +0.000 C 
BRANCH  12  13
ATOM     13  N   UNL     1      -0.948  10.995  19.408  0.00  0.00    +0.000 N 
ATOM     14  C   UNL     1      -1.719  11.874  20.186  0.00  0.00    +0.000 A 
ATOM     15  C   UNL     1      -2.958  12.278  19.703  0.00  0.00    +0.000 A 
ATOM     16  C   UNL     1      -3.740  13.137  20.470  0.00  0.00    +0.000 A 
ATOM     17  C   UNL     1      -3.267  13.571  21.701  0.00  0.00    +0.000 A 
ATOM     18  C   UNL     1      -2.016  13.136  22.117  0.00  0.00    +0.000 A 
ATOM     19  C   UNL     1      -1.440  13.551  23.436  0.00  0.00    +0.000 C 
ATOM     20  N   UNL     1      -1.250  12.307  21.372  0.00  0.00    +0.000 NA
ATOM     21  H   UNL     1      -1.485  10.152  19.236  0.00  0.00    +0.000 HD
ENDBRANCH  12  13
ENDBRANCH   9  12
ENDBRANCH   3   7
BRANCH   1  23
ATOM     22  N   UNL     1       5.060   4.990  15.631  0.00  0.00    +0.000 N 
ATOM     23  C   UNL     1       5.414   4.679  16.930  0.00  0.00    +0.000 C 
ATOM     24  O   UNL     1       6.510   4.235  17.273  0.00  0.00    +0.000 OA
ATOM     25  H   UNL     1       4.186   5.493  15.496  0.00  0.00    +0.000 HD
BRANCH  22  30
ATOM     26  C   UNL     1       6.070   3.411  12.436  0.00  0.00    +0.000 A 
ATOM     27  C   UNL     1       7.305   4.032  12.196  0.00  0.00    +0.000 A 
ATOM     28  C   UNL     1       7.802   4.960  13.099  0.00  0.00    +0.000 A 
ATOM     29  C   UNL     1       7.064   5.281  14.235  0.00  0.00    +0.000 A 
ATOM     30  C   UNL     1       5.822   4.690  14.485  0.00  0.00    +0.000 A 
ATOM     31  C   UNL     1       5.331   3.739  13.587  0.00  0.00    +0.000 A 
BRANCH  26  32
ATOM     32  C   UNL     1       5.528   2.403  11.485  0.00  0.00    +0.000 C 
ATOM     33  O   UNL     1       4.365   2.383  11.106  0.00  0.00    +0.000 OA
BRANCH  32  35
ATOM     34  C   UNL     1       6.140   0.154  11.218  0.00  0.00    +0.000 C 
ATOM     35  O   UNL     1       6.501   1.529  11.133  0.00  0.00    +0.000 OA
ENDBRANCH  32  35
ENDBRANCH  26  32
ENDBRANCH  22  30
ENDBRANCH   1  23
BRANCH   6  36
ATOM     36  O   UNL     1       4.901   2.871  19.218  0.00  0.00    +0.000 OA
ATOM     37  H   UNL     1       4.854   2.404  18.364  0.00  0.00    +0.000 HD
ENDBRANCH   6  36
TORSDOF 8
ENDMDL
MODEL 2
REMARK VINA RESULT:      -8.3      2.923      5.750
REMARK  Name = 
REMARK  10 active torsions:
REMARK  status: ('A' for Active; 'I' for Inactive)
REMARK    1  A    between atoms: C_1  and  O_2
REMARK    2  A    between atoms: O_2  and  C_3
REMARK    3  A    between atoms: C_3  and  C_5
REMARK    4  A    between atoms: C_9  and  N_10
REMARK    5  A    between atoms: C_11  and  C_13
REMARK    6  A    between atoms: C_15  and  N_16
REMARK    7  A    between atoms: C_18  and  C_19
REMARK    8  A    between atoms: C_19  and  N_20
REMARK    9  A    between atoms: C_25  and  C_26
REMARK   10  A    between atoms: C_32  and  O_33
REMARK                            x       y       z     vdW  Elec       q    Type
REMARK                         _______ _______ _______ _____ _____    ______ ____
ROOT
ATOM      1  C   UNL     1       1.529   9.226  19.326  0.00  0.00    +0.000 A 
ATOM      2  C   UNL     1       0.804   9.589  20.475  0.00  0.00    +0.000 A 
ATOM      3  C   UNL     1       0.110  10.800  20.530  0.00  0.00    +0.000 A 
ATOM      4  C   UNL     1       0.200  11.699  19.465  0.00  0.00    +0.000 A 
ATOM      5  C   UNL     1       0.989  11.384  18.354  0.00  0.00    +0.000 A 
ATOM      6  C   UNL     1       1.633  10.143  18.274  0.00  0.00    +0.000 A 
ENDROOT
BRANCH   3   7
ATOM      7  N   UNL     1      -0.734  11.067  21.631  0.00  0.00    +0.000 N 
ATOM      8  C   UNL     1      -1.638  12.090  21.772  0.00  0.00    +0.000 A 
ATOM      9  C   UNL     1      -2.112  11.965  23.057  0.00  0.00    +0.000 A 
ATOM     10  N   UNL     1      -1.507  10.892  23.652  0.00  0.00    +0.000 NA
ATOM     11  N   UNL     1      -0.706  10.322  22.759  0.00  0.00    +0.000 NA
BRANCH   9  12
ATOM     12  C   UNL     1      -3.147  12.786  23.749  0.00  0.00    +0.000 C 
BRANCH  12  13
ATOM     13  N   UNL     1      -4.455  12.144  23.899  0.00  0.00    +0.000 N 
ATOM     14  C   UNL     1      -5.521  13.056  23.868  0.00  0.00    +0.000 A 
ATOM     15  C   UNL     1      -6.820  12.567  23.953  0.00  0.00    +0.000 A 
ATOM     16  C   UNL     1      -7.887  13.460  23.939  0.00  0.00    +0.000 A 
ATOM     17  C   UNL     1      -7.632  14.822  23.842  0.00  0.00    +0.000 A 
ATOM     18  C   UNL     1      -6.312  15.241  23.750  0.00  0.00    +0.000 A 
ATOM     19  C   UNL     1      -5.955  16.692  23.652  0.00  0.00    +0.000 C 
ATOM     20  N   UNL     1      -5.272  14.376  23.756  0.00  0.00    +0.000 NA
ATOM     21  H   UNL     1      -4.509  11.604  24.756  0.00  0.00    +0.000 HD
ENDBRANCH  12  13
ENDBRANCH   9  12
ENDBRANCH   3   7
BRANCH   1  23
ATOM     22  N   UNL     1       2.595   7.358  18.120  0.00  0.00    +0.000 N 
ATOM     23  C   UNL     1       2.025   7.817  19.292  0.00  0.00    +0.000 C 
ATOM     24  O   UNL     1       1.886   7.148  20.316  0.00  0.00    +0.000 OA
ATOM     25  H   UNL     1       2.794   8.048  17.399  0.00  0.00    +0.000 HD
BRANCH  22  30
ATOM     26  C   UNL     1       4.622   4.420  17.131  0.00  0.00    +0.000 A 
ATOM     27  C   UNL     1       3.696   3.377  17.286  0.00  0.00    +0.000 A 
ATOM     28  C   UNL     1       2.403   3.655  17.704  0.00  0.00    +0.000 A 
ATOM     29  C   UNL     1       2.034   4.968  17.982  0.00  0.00    +0.000 A 
ATOM     30  C   UNL     1       2.945   6.020  17.854  0.00  0.00    +0.000 A 
ATOM     31  C   UNL     1       4.242   5.744  17.412  0.00  0.00    +0.000 A 
BRANCH  26  32
ATOM     32  C   UNL     1       6.009   4.143  16.671  0.00  0.00    +0.000 C 
ATOM     33  O   UNL     1       7.011   4.497  17.277  0.00  0.00    +0.000 OA
BRANCH  32  35
ATOM     34  C   UNL     1       5.943   4.284  14.329  0.00  0.00    +0.000 C 
ATOM     35  O   UNL     1       5.980   3.468  15.496  0.00  0.00    +0.000 OA
ENDBRANCH  32  35
ENDBRANCH  26  32
ENDBRANCH  22  30
ENDBRANCH   1  23
BRANCH   6  36
ATOM     36  O   UNL     1       2.345   9.833  17.146  0.00  0.00    +0.000 OA
ATOM     37  H   UNL     1       3.294   9.828  17.367  0.00  0.00    +0.000 HD
ENDBRANCH   6  36
TORSDOF 8
ENDMDL
MODEL 3
REMARK VINA RESULT:      -8.3      5.296     11.116
REMARK  Name = 
REMARK  10 active torsions:
REMARK  status: ('A' for Active; 'I' for Inactive)
REMARK    1  A    between atoms: C_1  and  O_2
REMARK    2  A    between atoms: O_2  and  C_3
REMARK    3  A    between atoms: C_3  and  C_5
REMARK    4  A    between atoms: C_9  and  N_10
REMARK    5  A    between atoms: C_11  and  C_13
REMARK    6  A    between atoms: C_15  and  N_16
REMARK    7  A    between atoms: C_18  and  C_19
REMARK    8  A    between atoms: C_19  and  N_20
REMARK    9  A    between atoms: C_25  and  C_26
REMARK   10  A    between atoms: C_32  and  O_33
REMARK                            x       y       z     vdW  Elec       q    Type
REMARK                         _______ _______ _______ _____ _____    ______ ____
ROOT
ATOM      1  C   UNL     1       0.102  11.704  21.780  0.00  0.00    +0.000 A 
ATOM      2  C   UNL     1       0.850  10.749  21.070  0.00  0.00    +0.000 A 
ATOM      3  C   UNL     1       0.660   9.383  21.289  0.00  0.00    +0.000 A 
ATOM      4  C   UNL     1      -0.227   8.957  22.281  0.00  0.00    +0.000 A 
ATOM      5  C   UNL     1      -0.912   9.902  23.052  0.00  0.00    +0.000 A 
ATOM      6  C   UNL     1      -0.766  11.269  22.789  0.00  0.00    +0.000 A 
ENDROOT
BRANCH   3   7
ATOM      7  N   UNL     1       1.311   8.448  20.454  0.00  0.00    +0.000 N 
ATOM      8  C   UNL     1       1.724   7.178  20.770  0.00  0.00    +0.000 A 
ATOM      9  C   UNL     1       2.394   6.738  19.652  0.00  0.00    +0.000 A 
ATOM     10  N   UNL     1       2.369   7.722  18.702  0.00  0.00    +0.000 NA
ATOM     11  N   UNL     1       1.665   8.741  19.182  0.00  0.00    +0.000 NA
BRANCH   9  12
ATOM     12  C   UNL     1       3.028   5.409  19.413  0.00  0.00    +0.000 C 
BRANCH  12  13
ATOM     13  N   UNL     1       3.210   5.050  18.005  0.00  0.00    +0.000 N 
ATOM     14  C   UNL     1       4.559   4.993  17.623  0.00  0.00    +0.000 A 
ATOM     15  C   UNL     1       4.868   4.617  16.321  0.00  0.00    +0.000 A 
ATOM     16  C   UNL     1       6.201   4.571  15.922  0.00  0.00    +0.000 A 
ATOM     17  C   UNL     1       7.195   4.904  16.834  0.00  0.00    +0.000 A 
ATOM     18  C   UNL     1       6.816   5.261  18.120  0.00  0.00    +0.000 A 
ATOM     19  C   UNL     1       7.827   5.642  19.158  0.00  0.00    +0.000 C 
ATOM     20  N   UNL     1       5.522   5.300  18.514  0.00  0.00    +0.000 NA
ATOM     21  H   UNL     1       2.721   5.692  17.390  0.00  0.00    +0.000 HD
ENDBRANCH  12  13
ENDBRANCH   9  12
ENDBRANCH   3   7
BRANCH   1  23
ATOM     22  N   UNL     1       0.336  13.320  19.932  0.00  0.00    +0.000 N 
ATOM     23  C   UNL     1       0.219  13.112  21.293  0.00  0.00    +0.000 C 
ATOM     24  O   UNL     1       0.210  14.002  22.143  0.00  0.00    +0.000 OA
ATOM     25  H   UNL     1       0.174  12.520  19.325  0.00  0.00    +0.000 HD
BRANCH  22  30
ATOM     26  C   UNL     1       2.311  16.096  18.479  0.00  0.00    +0.000 A 
ATOM     27  C   UNL     1       1.300  17.002  18.124  0.00  0.00    +0.000 A 
ATOM     28  C   UNL     1      -0.028  16.694  18.381  0.00  0.00    +0.000 A 
ATOM     29  C   UNL     1      -0.353  15.478  18.977  0.00  0.00    +0.000 A 
ATOM     30  C   UNL     1       0.636  14.552  19.320  0.00  0.00    +0.000 A 
ATOM     31  C   UNL     1       1.976  14.871  19.082  0.00  0.00    +0.000 A 
BRANCH  26  32
ATOM     32  C   UNL     1       3.741  16.415  18.224  0.00  0.00    +0.000 C 
ATOM     33  O   UNL     1       4.327  17.364  18.727  0.00  0.00    +0.000 OA
BRANCH  32  35
ATOM     34  C   UNL     1       5.331  14.725  17.873  0.00  0.00    +0.000 C 
ATOM     35  O   UNL     1       4.267  15.518  17.355  0.00  0.00    +0.000 OA
ENDBRANCH  32  35
ENDBRANCH  26  32
ENDBRANCH  22  30
ENDBRANCH   1  23
BRANCH   6  36
ATOM     36  O   UNL     1      -1.500  12.170  23.514  0.00  0.00    +0.000 OA
ATOM     37  H   UNL     1      -2.227  12.501  22.957  0.00  0.00    +0.000 HD
ENDBRANCH   6  36
TORSDOF 8
ENDMDL
MODEL 4
REMARK VINA RESULT:      -8.2      3.846      5.955
REMARK  Name = 
REMARK  10 active torsions:
REMARK  status: ('A' for Active; 'I' for Inactive)
REMARK    1  A    between atoms: C_1  and  O_2
REMARK    2  A    between atoms: O_2  and  C_3
REMARK    3  A    between atoms: C_3  and  C_5
REMARK    4  A    between atoms: C_9  and  N_10
REMARK    5  A    between atoms: C_11  and  C_13
REMARK    6  A    between atoms: C_15  and  N_16
REMARK    7  A    between atoms: C_18  and  C_19
REMARK    8  A    between atoms: C_19  and  N_20
REMARK    9  A    between atoms: C_25  and  C_26
REMARK   10  A    between atoms: C_32  and  O_33
REMARK                            x       y       z     vdW  Elec       q    Type
REMARK                         _______ _______ _______ _____ _____    ______ ____
ROOT
ATOM      1  C   UNL     1       1.395   8.622  19.771  0.00  0.00    +0.000 A 
ATOM      2  C   UNL     1       0.901   9.891  19.424  0.00  0.00    +0.000 A 
ATOM      3  C   UNL     1       0.399  10.755  20.401  0.00  0.00    +0.000 A 
ATOM      4  C   UNL     1       0.313  10.325  21.728  0.00  0.00    +0.000 A 
ATOM      5  C   UNL     1       0.723   9.031  22.067  0.00  0.00    +0.000 A 
ATOM      6  C   UNL     1       1.283   8.191  21.097  0.00  0.00    +0.000 A 
ENDROOT
BRANCH   3   7
ATOM      7  N   UNL     1       0.054  12.078  20.048  0.00  0.00    +0.000 N 
ATOM      8  C   UNL     1       0.077  13.197  20.843  0.00  0.00    +0.000 A 
ATOM      9  C   UNL     1      -0.451  14.196  20.059  0.00  0.00    +0.000 A 
ATOM     10  N   UNL     1      -0.770  13.678  18.833  0.00  0.00    +0.000 NA
ATOM     11  N   UNL     1      -0.413  12.399  18.820  0.00  0.00    +0.000 NA
BRANCH   9  12
ATOM     12  C   UNL     1      -0.636  15.638  20.391  0.00  0.00    +0.000 C 
BRANCH  12  13
ATOM     13  N   UNL     1      -1.190  16.460  19.314  0.00  0.00    +0.000 N 
ATOM     14  C   UNL     1      -0.209  16.950  18.437  0.00  0.00    +0.000 A 
ATOM     15  C   UNL     1      -0.610  17.707  17.343  0.00  0.00    +0.000 A 
ATOM     16  C   UNL     1       0.352  18.213  16.474  0.00  0.00    +0.000 A 
ATOM     17  C   UNL     1       1.694  17.952  16.720  0.00  0.00    +0.000 A 
ATOM     18  C   UNL     1       2.024  17.181  17.826  0.00  0.00    +0.000 A 
ATOM     19  C   UNL     1       3.448  16.864  18.164  0.00  0.00    +0.000 C 
ATOM     20  N   UNL     1       1.091  16.681  18.669  0.00  0.00    +0.000 NA
ATOM     21  H   UNL     1      -1.725  17.241  19.677  0.00  0.00    +0.000 HD
ENDBRANCH  12  13
ENDBRANCH   9  12
ENDBRANCH   3   7
BRANCH   1  23
ATOM     22  N   UNL     1       2.477   6.577  18.917  0.00  0.00    +0.000 N 
ATOM     23  C   UNL     1       2.120   7.892  18.687  0.00  0.00    +0.000 C 
ATOM     24  O   UNL     1       2.359   8.516  17.653  0.00  0.00    +0.000 OA
ATOM     25  H   UNL     1       2.088   6.128  19.743  0.00  0.00    +0.000 HD
BRANCH  22  30
ATOM     26  C   UNL     1       5.384   5.610  16.835  0.00  0.00    +0.000 A 
ATOM     27  C   UNL     1       5.014   4.322  16.419  0.00  0.00    +0.000 A 
ATOM     28  C   UNL     1       3.798   3.788  16.819  0.00  0.00    +0.000 A 
ATOM     29  C   UNL     1       2.956   4.527  17.645  0.00  0.00    +0.000 A 
ATOM     30  C   UNL     1       3.314   5.804  18.088  0.00  0.00    +0.000 A 
ATOM     31  C   UNL     1       4.528   6.352  17.668  0.00  0.00    +0.000 A 
BRANCH  26  32
ATOM     32  C   UNL     1       6.678   6.205  16.405  0.00  0.00    +0.000 C 
ATOM     33  O   UNL     1       7.521   5.603  15.754  0.00  0.00    +0.000 OA
BRANCH  32  35
ATOM     34  C   UNL     1       7.856   7.731  17.743  0.00  0.00    +0.000 C 
ATOM     35  O   UNL     1       6.773   7.480  16.854  0.00  0.00    +0.000 OA
ENDBRANCH  32  35
ENDBRANCH  26  32
ENDBRANCH  22  30
ENDBRANCH   1  23
BRANCH   6  36
ATOM     36  O   UNL     1       1.738   6.953  21.470  0.00  0.00    +0.000 OA
ATOM     37  H   UNL     1       2.312   6.606  20.763  0.00  0.00    +0.000 HD
ENDBRANCH   6  36
TORSDOF 8
ENDMDL
MODEL 5
REMARK VINA RESULT:      -8.2      0.918      1.477
REMARK  Name = 
REMARK  10 active torsions:
REMARK  status: ('A' for Active; 'I' for Inactive)
REMARK    1  A    between atoms: C_1  and  O_2
REMARK    2  A    between atoms: O_2  and  C_3
REMARK    3  A    between atoms: C_3  and  C_5
REMARK    4  A    between atoms: C_9  and  N_10
REMARK    5  A    between atoms: C_11  and  C_13
REMARK    6  A    between atoms: C_15  and  N_16
REMARK    7  A    between atoms: C_18  and  C_19
REMARK    8  A    between atoms: C_19  and  N_20
REMARK    9  A    between atoms: C_25  and  C_26
REMARK   10  A    between atoms: C_32  and  O_33
REMARK                            x       y       z     vdW  Elec       q    Type
REMARK                         _______ _______ _______ _____ _____    ______ ____
ROOT
ATOM      1  C   UNL     1       4.455   5.177  17.950  0.00  0.00    +0.000 A 
ATOM      2  C   UNL     1       3.677   6.346  17.874  0.00  0.00    +0.000 A 
ATOM      3  C   UNL     1       2.864   6.735  18.942  0.00  0.00    +0.000 A 
ATOM      4  C   UNL     1       2.759   5.915  20.068  0.00  0.00    +0.000 A 
ATOM      5  C   UNL     1       3.463   4.707  20.115  0.00  0.00    +0.000 A 
ATOM      6  C   UNL     1       4.325   4.350  19.071  0.00  0.00    +0.000 A 
ENDROOT
BRANCH   3   7
ATOM      7  N   UNL     1       2.216   7.990  18.900  0.00  0.00    +0.000 N 
ATOM      8  C   UNL     1       1.591   8.651  19.927  0.00  0.00    +0.000 A 
ATOM      9  C   UNL     1       1.033   9.763  19.341  0.00  0.00    +0.000 A 
ATOM     10  N   UNL     1       1.330   9.759  18.006  0.00  0.00    +0.000 NA
ATOM     11  N   UNL     1       2.092   8.700  17.756  0.00  0.00    +0.000 NA
BRANCH   9  12
ATOM     12  C   UNL     1       0.262  10.865  19.987  0.00  0.00    +0.000 C 
BRANCH  12  13
ATOM     13  N   UNL     1      -0.283  10.552  21.309  0.00  0.00    +0.000 N 
ATOM     14  C   UNL     1      -1.128  11.557  21.806  0.00  0.00    +0.000 A 
ATOM     15  C   UNL     1      -1.748  11.359  23.035  0.00  0.00    +0.000 A 
ATOM     16  C   UNL     1      -2.576  12.353  23.548  0.00  0.00    +0.000 A 
ATOM     17  C   UNL     1      -2.766  13.522  22.822  0.00  0.00    +0.000 A 
ATOM     18  C   UNL     1      -2.124  13.649  21.598  0.00  0.00    +0.000 A 
ATOM     19  C   UNL     1      -2.270  14.882  20.761  0.00  0.00    +0.000 C 
ATOM     20  N   UNL     1      -1.324  12.683  21.092  0.00  0.00    +0.000 NA
ATOM     21  H   UNL     1       0.454  10.379  21.985  0.00  0.00    +0.000 HD
ENDBRANCH  12  13
ENDBRANCH   9  12
ENDBRANCH   3   7
BRANCH   1  23
ATOM     22  N   UNL     1       5.006   5.034  15.551  0.00  0.00    +0.000 N 
ATOM     23  C   UNL     1       5.456   4.994  16.857  0.00  0.00    +0.000 C 
ATOM     24  O   UNL     1       6.627   4.812  17.192  0.00  0.00    +0.000 OA
ATOM     25  H   UNL     1       4.049   5.346  15.399  0.00  0.00    +0.000 HD
BRANCH  22  30
ATOM     26  C   UNL     1       6.030   3.357  12.412  0.00  0.00    +0.000 A 
ATOM     27  C   UNL     1       7.259   3.982  12.149  0.00  0.00    +0.000 A 
ATOM     28  C   UNL     1       7.746   4.946  13.020  0.00  0.00    +0.000 A 
ATOM     29  C   UNL     1       7.006   5.298  14.145  0.00  0.00    +0.000 A 
ATOM     30  C   UNL     1       5.771   4.703  14.415  0.00  0.00    +0.000 A 
ATOM     31  C   UNL     1       5.289   3.717  13.551  0.00  0.00    +0.000 A 
BRANCH  26  32
ATOM     32  C   UNL     1       5.498   2.312  11.497  0.00  0.00    +0.000 C 
ATOM     33  O   UNL     1       6.184   1.427  11.003  0.00  0.00    +0.000 OA
BRANCH  32  35
ATOM     34  C   UNL     1       3.841   3.648  10.509  0.00  0.00    +0.000 C 
ATOM     35  O   UNL     1       4.173   2.506  11.293  0.00  0.00    +0.000 OA
ENDBRANCH  32  35
ENDBRANCH  26  32
ENDBRANCH  22  30
ENDBRANCH   1  23
BRANCH   6  36
ATOM     36  O   UNL     1       5.054   3.195  19.174  0.00  0.00    +0.000 OA
ATOM     37  H   UNL     1       5.543   3.059  18.342  0.00  0.00    +0.000 HD
ENDBRANCH   6  36
TORSDOF 8
ENDMDL
MODEL 6
REMARK VINA RESULT:      -8.0      3.074      6.242
REMARK  Name = 
REMARK  10 active torsions:
REMARK  status: ('A' for Active; 'I' for Inactive)
REMARK    1  A    between atoms: C_1  and  O_2
REMARK    2  A    between atoms: O_2  and  C_3
REMARK    3  A    between atoms: C_3  and  C_5
REMARK    4  A    between atoms: C_9  and  N_10
REMARK    5  A    between atoms: C_11  and  C_13
REMARK    6  A    between atoms: C_15  and  N_16
REMARK    7  A    between atoms: C_18  and  C_19
REMARK    8  A    between atoms: C_19  and  N_20
REMARK    9  A    between atoms: C_25  and  C_26
REMARK   10  A    between atoms: C_32  and  O_33
REMARK                            x       y       z     vdW  Elec       q    Type
REMARK                         _______ _______ _______ _____ _____    ______ ____
ROOT
ATOM      1  C   UNL     1       1.460  10.460  18.766  0.00  0.00    +0.000 A 
ATOM      2  C   UNL     1       0.655  10.501  19.918  0.00  0.00    +0.000 A 
ATOM      3  C   UNL     1       0.237  11.721  20.456  0.00  0.00    +0.000 A 
ATOM      4  C   UNL     1       0.687  12.917  19.893  0.00  0.00    +0.000 A 
ATOM      5  C   UNL     1       1.559  12.885  18.799  0.00  0.00    +0.000 A 
ATOM      6  C   UNL     1       1.926  11.663  18.224  0.00  0.00    +0.000 A 
ENDROOT
BRANCH   3   7
ATOM      7  N   UNL     1      -0.696  11.728  21.516  0.00  0.00    +0.000 N 
ATOM      8  C   UNL     1      -1.973  12.231  21.513  0.00  0.00    +0.000 A 
ATOM      9  C   UNL     1      -2.409  12.091  22.810  0.00  0.00    +0.000 A 
ATOM     10  N   UNL     1      -1.416  11.516  23.554  0.00  0.00    +0.000 NA
ATOM     11  N   UNL     1      -0.394  11.254  22.746  0.00  0.00    +0.000 NA
BRANCH   9  12
ATOM     12  C   UNL     1      -3.742  12.437  23.384  0.00  0.00    +0.000 C 
BRANCH  12  13
ATOM     13  N   UNL     1      -4.304  13.711  22.930  0.00  0.00    +0.000 N 
ATOM     14  C   UNL     1      -5.411  13.551  22.082  0.00  0.00    +0.000 A 
ATOM     15  C   UNL     1      -6.066  14.686  21.619  0.00  0.00    +0.000 A 
ATOM     16  C   UNL     1      -7.156  14.544  20.765  0.00  0.00    +0.000 A 
ATOM     17  C   UNL     1      -7.566  13.270  20.393  0.00  0.00    +0.000 A 
ATOM     18  C   UNL     1      -6.873  12.180  20.900  0.00  0.00    +0.000 A 
ATOM     19  C   UNL     1      -7.248  10.775  20.539  0.00  0.00    +0.000 C 
ATOM     20  N   UNL     1      -5.818  12.314  21.736  0.00  0.00    +0.000 NA
ATOM     21  H   UNL     1      -3.608  14.279  22.458  0.00  0.00    +0.000 HD
ENDBRANCH  12  13
ENDBRANCH   9  12
ENDBRANCH   3   7
BRANCH   1  23
ATOM     22  N   UNL     1       2.412   8.186  18.829  0.00  0.00    +0.000 N 
ATOM     23  C   UNL     1       1.642   9.111  18.151  0.00  0.00    +0.000 C 
ATOM     24  O   UNL     1       1.094   8.910  17.067  0.00  0.00    +0.000 OA
ATOM     25  H   UNL     1       2.680   8.417  19.784  0.00  0.00    +0.000 HD
BRANCH  22  30
ATOM     26  C   UNL     1       4.443   5.680  17.009  0.00  0.00    +0.000 A 
ATOM     27  C   UNL     1       3.714   4.504  17.247  0.00  0.00    +0.000 A 
ATOM     28  C   UNL     1       2.548   4.552  17.996  0.00  0.00    +0.000 A 
ATOM     29  C   UNL     1       2.113   5.765  18.523  0.00  0.00    +0.000 A 
ATOM     30  C   UNL     1       2.835   6.944  18.316  0.00  0.00    +0.000 A 
ATOM     31  C   UNL     1       3.997   6.902  17.543  0.00  0.00    +0.000 A 
BRANCH  26  32
ATOM     32  C   UNL     1       5.688   5.651  16.196  0.00  0.00    +0.000 C 
ATOM     33  O   UNL     1       5.948   4.777  15.380  0.00  0.00    +0.000 OA
BRANCH  32  35
ATOM     34  C   UNL     1       7.521   6.435  17.434  0.00  0.00    +0.000 C 
ATOM     35  O   UNL     1       6.471   6.711  16.511  0.00  0.00    +0.000 OA
ENDBRANCH  32  35
ENDBRANCH  26  32
ENDBRANCH  22  30
ENDBRANCH   1  23
BRANCH   6  36
ATOM     36  O   UNL     1       2.727  11.663  17.112  0.00  0.00    +0.000 OA
ATOM     37  H   UNL     1       3.282  12.464  17.127  0.00  0.00    +0.000 HD
ENDBRANCH   6  36
TORSDOF 8
ENDMDL
MODEL 7
REMARK VINA RESULT:      -8.0      1.892      2.362
REMARK  Name = 
REMARK  10 active torsions:
REMARK  status: ('A' for Active; 'I' for Inactive)
REMARK    1  A    between atoms: C_1  and  O_2
REMARK    2  A    between atoms: O_2  and  C_3
REMARK    3  A    between atoms: C_3  and  C_5
REMARK    4  A    between atoms: C_9  and  N_10
REMARK    5  A    between atoms: C_11  and  C_13
REMARK    6  A    between atoms: C_15  and  N_16
REMARK    7  A    between atoms: C_18  and  C_19
REMARK    8  A    between atoms: C_19  and  N_20
REMARK    9  A    between atoms: C_25  and  C_26
REMARK   10  A    between atoms: C_32  and  O_33
REMARK                            x       y       z     vdW  Elec       q    Type
REMARK                         _______ _______ _______ _____ _____    ______ ____
ROOT
ATOM      1  C   UNL     1       4.404   4.593  18.294  0.00  0.00    +0.000 A 
ATOM      2  C   UNL     1       3.629   5.766  18.308  0.00  0.00    +0.000 A 
ATOM      3  C   UNL     1       2.814   6.072  19.400  0.00  0.00    +0.000 A 
ATOM      4  C   UNL     1       2.704   5.167  20.458  0.00  0.00    +0.000 A 
ATOM      5  C   UNL     1       3.405   3.957  20.413  0.00  0.00    +0.000 A 
ATOM      6  C   UNL     1       4.269   3.680  19.346  0.00  0.00    +0.000 A 
ENDROOT
BRANCH   3   7
ATOM      7  N   UNL     1       2.169   7.327  19.455  0.00  0.00    +0.000 N 
ATOM      8  C   UNL     1       2.082   8.275  18.465  0.00  0.00    +0.000 A 
ATOM      9  C   UNL     1       1.454   9.345  19.059  0.00  0.00    +0.000 A 
ATOM     10  N   UNL     1       1.174   9.032  20.361  0.00  0.00    +0.000 NA
ATOM     11  N   UNL     1       1.570   7.783  20.578  0.00  0.00    +0.000 NA
BRANCH   9  12
ATOM     12  C   UNL     1       1.063  10.648  18.447  0.00  0.00    +0.000 C 
BRANCH  12  13
ATOM     13  N   UNL     1      -0.011  11.364  19.139  0.00  0.00    +0.000 N 
ATOM     14  C   UNL     1       0.193  12.752  19.183  0.00  0.00    +0.000 A 
ATOM     15  C   UNL     1      -0.780  13.551  19.773  0.00  0.00    +0.000 A 
ATOM     16  C   UNL     1      -0.584  14.927  19.838  0.00  0.00    +0.000 A 
ATOM     17  C   UNL     1       0.580  15.474  19.313  0.00  0.00    +0.000 A 
ATOM     18  C   UNL     1       1.505  14.619  18.729  0.00  0.00    +0.000 A 
ATOM     19  C   UNL     1       2.788  15.130  18.149  0.00  0.00    +0.000 C 
ATOM     20  N   UNL     1       1.315  13.281  18.658  0.00  0.00    +0.000 NA
ATOM     21  H   UNL     1      -0.139  11.021  20.085  0.00  0.00    +0.000 HD
ENDBRANCH  12  13
ENDBRANCH   9  12
ENDBRANCH   3   7
BRANCH   1  23
ATOM     22  N   UNL     1       5.020   4.877  15.923  0.00  0.00    +0.000 N 
ATOM     23  C   UNL     1       5.409   4.494  17.192  0.00  0.00    +0.000 C 
ATOM     24  O   UNL     1       6.525   4.067  17.487  0.00  0.00    +0.000 OA
ATOM     25  H   UNL     1       4.126   5.357  15.836  0.00  0.00    +0.000 HD
BRANCH  22  30
ATOM     26  C   UNL     1       5.984   3.606  12.581  0.00  0.00    +0.000 A 
ATOM     27  C   UNL     1       7.227   4.228  12.393  0.00  0.00    +0.000 A 
ATOM     28  C   UNL     1       7.744   5.055  13.379  0.00  0.00    +0.000 A 
ATOM     29  C   UNL     1       7.019   5.274  14.547  0.00  0.00    +0.000 A 
ATOM     30  C   UNL     1       5.769   4.680  14.747  0.00  0.00    +0.000 A 
ATOM     31  C   UNL     1       5.258   3.830  13.764  0.00  0.00    +0.000 A 
BRANCH  26  32
ATOM     32  C   UNL     1       5.420   2.705  11.540  0.00  0.00    +0.000 C 
ATOM     33  O   UNL     1       5.697   1.517  11.444  0.00  0.00    +0.000 OA
BRANCH  32  35
ATOM     34  C   UNL     1       3.222   2.993  10.767  0.00  0.00    +0.000 C 
ATOM     35  O   UNL     1       4.586   3.401  10.728  0.00  0.00    +0.000 OA
ENDBRANCH  32  35
ENDBRANCH  26  32
ENDBRANCH  22  30
ENDBRANCH   1  23
BRANCH   6  36
ATOM     36  O   UNL     1       4.995   2.519  19.360  0.00  0.00    +0.000 OA
ATOM     37  H   UNL     1       5.724   2.613  19.999  0.00  0.00    +0.000 HD
ENDBRANCH   6  36
TORSDOF 8
ENDMDL
MODEL 8
REMARK VINA RESULT:      -8.0      1.608      1.898
REMARK  Name = 
REMARK  10 active torsions:
REMARK  status: ('A' for Active; 'I' for Inactive)
REMARK    1  A    between atoms: C_1  and  O_2
REMARK    2  A    between atoms: O_2  and  C_3
REMARK    3  A    between atoms: C_3  and  C_5
REMARK    4  A    between atoms: C_9  and  N_10
REMARK    5  A    between atoms: C_11  and  C_13
REMARK    6  A    between atoms: C_15  and  N_16
REMARK    7  A    between atoms: C_18  and  C_19
REMARK    8  A    between atoms: C_19  and  N_20
REMARK    9  A    between atoms: C_25  and  C_26
REMARK   10  A    between atoms: C_32  and  O_33
REMARK                            x       y       z     vdW  Elec       q    Type
REMARK                         _______ _______ _______ _____ _____    ______ ____
ROOT
ATOM      1  C   UNL     1       3.996   4.618  17.951  0.00  0.00    +0.000 A 
ATOM      2  C   UNL     1       3.381   5.870  17.778  0.00  0.00    +0.000 A 
ATOM      3  C   UNL     1       2.778   6.527  18.853  0.00  0.00    +0.000 A 
ATOM      4  C   UNL     1       2.713   5.899  20.100  0.00  0.00    +0.000 A 
ATOM      5  C   UNL     1       3.247   4.615  20.260  0.00  0.00    +0.000 A 
ATOM      6  C   UNL     1       3.905   3.986  19.196  0.00  0.00    +0.000 A 
ENDROOT
BRANCH   3   7
ATOM      7  N   UNL     1       2.307   7.848  18.686  0.00  0.00    +0.000 N 
ATOM      8  C   UNL     1       1.536   8.584  19.549  0.00  0.00    +0.000 A 
ATOM      9  C   UNL     1       1.265   9.750  18.871  0.00  0.00    +0.000 A 
ATOM     10  N   UNL     1       1.868   9.702  17.644  0.00  0.00    +0.000 NA
ATOM     11  N   UNL     1       2.541   8.559  17.560  0.00  0.00    +0.000 NA
BRANCH   9  12
ATOM     12  C   UNL     1       0.495  10.939  19.338  0.00  0.00    +0.000 C 
BRANCH  12  13
ATOM     13  N   UNL     1       0.652  12.143  18.521  0.00  0.00    +0.000 N 
ATOM     14  C   UNL     1       0.428  13.328  19.240  0.00  0.00    +0.000 A 
ATOM     15  C   UNL     1       0.592  14.545  18.588  0.00  0.00    +0.000 A 
ATOM     16  C   UNL     1       0.359  15.728  19.284  0.00  0.00    +0.000 A 
ATOM     17  C   UNL     1      -0.034  15.667  20.615  0.00  0.00    +0.000 A 
ATOM     18  C   UNL     1      -0.169  14.419  21.206  0.00  0.00    +0.000 A 
ATOM     19  C   UNL     1      -0.599  14.270  22.634  0.00  0.00    +0.000 C 
ATOM     20  N   UNL     1       0.063  13.267  20.536  0.00  0.00    +0.000 NA
ATOM     21  H   UNL     1       0.038  12.129  17.713  0.00  0.00    +0.000 HD
ENDBRANCH  12  13
ENDBRANCH   9  12
ENDBRANCH   3   7
BRANCH   1  23
ATOM     22  N   UNL     1       5.277   5.065  15.892  0.00  0.00    +0.000 N 
ATOM     23  C   UNL     1       4.809   4.131  16.796  0.00  0.00    +0.000 C 
ATOM     24  O   UNL     1       5.006   2.918  16.720  0.00  0.00    +0.000 OA
ATOM     25  H   UNL     1       5.182   6.046  16.147  0.00  0.00    +0.000 HD
BRANCH  22  30
ATOM     26  C   UNL     1       5.837   3.585  12.543  0.00  0.00    +0.000 A 
ATOM     27  C   UNL     1       7.088   4.123  12.206  0.00  0.00    +0.000 A 
ATOM     28  C   UNL     1       7.744   4.962  13.094  0.00  0.00    +0.000 A 
ATOM     29  C   UNL     1       7.151   5.278  14.313  0.00  0.00    +0.000 A 
ATOM     30  C   UNL     1       5.896   4.769  14.662  0.00  0.00    +0.000 A 
ATOM     31  C   UNL     1       5.244   3.907  13.777  0.00  0.00    +0.000 A 
BRANCH  26  32
ATOM     32  C   UNL     1       5.125   2.673  11.609  0.00  0.00    +0.000 C 
ATOM     33  O   UNL     1       5.648   1.705  11.071  0.00  0.00    +0.000 OA
BRANCH  32  35
ATOM     34  C   UNL     1       3.505   3.490  10.120  0.00  0.00    +0.000 C 
ATOM     35  O   UNL     1       3.845   3.087  11.443  0.00  0.00    +0.000 OA
ENDBRANCH  32  35
ENDBRANCH  26  32
ENDBRANCH  22  30
ENDBRANCH   1  23
BRANCH   6  36
ATOM     36  O   UNL     1       4.477   2.758  19.399  0.00  0.00    +0.000 OA
ATOM     37  H   UNL     1       5.203   2.642  18.759  0.00  0.00    +0.000 HD
ENDBRANCH   6  36
TORSDOF 8
ENDMDL
MODEL 9
REMARK VINA RESULT:      -8.0      6.196     12.744
REMARK  Name = 
REMARK  10 active torsions:
REMARK  status: ('A' for Active; 'I' for Inactive)
REMARK    1  A    between atoms: C_1  and  O_2
REMARK    2  A    between atoms: O_2  and  C_3
REMARK    3  A    between atoms: C_3  and  C_5
REMARK    4  A    between atoms: C_9  and  N_10
REMARK    5  A    between atoms: C_11  and  C_13
REMARK    6  A    between atoms: C_15  and  N_16
REMARK    7  A    between atoms: C_18  and  C_19
REMARK    8  A    between atoms: C_19  and  N_20
REMARK    9  A    between atoms: C_25  and  C_26
REMARK   10  A    between atoms: C_32  and  O_33
REMARK                            x       y       z     vdW  Elec       q    Type
REMARK                         _______ _______ _______ _____ _____    ______ ____
ROOT
ATOM      1  C   UNL     1      -1.383  12.691  19.594  0.00  0.00    +0.000 A 
ATOM      2  C   UNL     1      -0.758  11.486  19.227  0.00  0.00    +0.000 A 
ATOM      3  C   UNL     1       0.564  11.474  18.774  0.00  0.00    +0.000 A 
ATOM      4  C   UNL     1       1.250  12.679  18.609  0.00  0.00    +0.000 A 
ATOM      5  C   UNL     1       0.607  13.890  18.890  0.00  0.00    +0.000 A 
ATOM      6  C   UNL     1      -0.696  13.895  19.402  0.00  0.00    +0.000 A 
ENDROOT
BRANCH   3   7
ATOM      7  N   UNL     1       1.214  10.238  18.561  0.00  0.00    +0.000 N 
ATOM      8  C   UNL     1       1.226   9.139  19.383  0.00  0.00    +0.000 A 
ATOM      9  C   UNL     1       2.085   8.254  18.774  0.00  0.00    +0.000 A 
ATOM     10  N   UNL     1       2.560   8.818  17.621  0.00  0.00    +0.000 NA
ATOM     11  N   UNL     1       1.985  10.006  17.476  0.00  0.00    +0.000 NA
BRANCH   9  12
ATOM     12  C   UNL     1       2.456   6.875  19.203  0.00  0.00    +0.000 C 
BRANCH  12  13
ATOM     13  N   UNL     1       2.680   5.923  18.114  0.00  0.00    +0.000 N 
ATOM     14  C   UNL     1       2.400   4.596  18.478  0.00  0.00    +0.000 A 
ATOM     15  C   UNL     1       2.529   3.600  17.517  0.00  0.00    +0.000 A 
ATOM     16  C   UNL     1       2.269   2.278  17.867  0.00  0.00    +0.000 A 
ATOM     17  C   UNL     1       1.889   1.982  19.169  0.00  0.00    +0.000 A 
ATOM     18  C   UNL     1       1.771   3.026  20.075  0.00  0.00    +0.000 A 
ATOM     19  C   UNL     1       1.374   2.788  21.500  0.00  0.00    +0.000 C 
ATOM     20  N   UNL     1       2.015   4.314  19.737  0.00  0.00    +0.000 NA
ATOM     21  H   UNL     1       3.631   5.973  17.764  0.00  0.00    +0.000 HD
ENDBRANCH  12  13
ENDBRANCH   9  12
ENDBRANCH   3   7
BRANCH   1  23
ATOM     22  N   UNL     1      -3.846  12.626  19.515  0.00  0.00    +0.000 N 
ATOM     23  C   UNL     1      -2.701  12.552  20.284  0.00  0.00    +0.000 C 
ATOM     24  O   UNL     1      -2.682  12.387  21.503  0.00  0.00    +0.000 OA
ATOM     25  H   UNL     1      -3.729  12.608  18.504  0.00  0.00    +0.000 HD
BRANCH  22  30
ATOM     26  C   UNL     1      -6.651  12.708  21.932  0.00  0.00    +0.000 A 
ATOM     27  C   UNL     1      -7.756  12.815  21.074  0.00  0.00    +0.000 A 
ATOM     28  C   UNL     1      -7.567  12.847  19.700  0.00  0.00    +0.000 A 
ATOM     29  C   UNL     1      -6.277  12.786  19.179  0.00  0.00    +0.000 A 
ATOM     30  C   UNL     1      -5.161  12.699  20.016  0.00  0.00    +0.000 A 
ATOM     31  C   UNL     1      -5.352  12.645  21.399  0.00  0.00    +0.000 A 
BRANCH  26  32
ATOM     32  C   UNL     1      -6.836  12.658  23.407  0.00  0.00    +0.000 C 
ATOM     33  O   UNL     1      -7.826  12.190  23.954  0.00  0.00    +0.000 OA
BRANCH  32  35
ATOM     34  C   UNL     1      -4.964  12.313  24.779  0.00  0.00    +0.000 C 
ATOM     35  O   UNL     1      -5.768  13.216  24.026  0.00  0.00    +0.000 OA
ENDBRANCH  32  35
ENDBRANCH  26  32
ENDBRANCH  22  30
ENDBRANCH   1  23
BRANCH   6  36
ATOM     36  O   UNL     1      -1.278  15.090  19.732  0.00  0.00    +0.000 OA
ATOM     37  H   UNL     1      -2.055  14.915  20.293  0.00  0.00    +0.000 HD
ENDBRANCH   6  36
TORSDOF 8
ENDMDL
