MODEL 1
REMARK VINA RESULT:      -7.6      0.000      0.000
REMARK  Name = 
REMARK  7 active torsions:
REMARK  status: ('A' for Active; 'I' for Inactive)
REMARK    1  A    between atoms: C_1  and  C_2
REMARK    2  A    between atoms: N_4  and  C_5
REMARK    3  A    between atoms: C_8  and  N_9
REMARK    4  A    between atoms: C_10  and  C_12
REMARK    5  A    between atoms: C_12  and  O_13
REMARK    6  A    between atoms: O_13  and  C_14
REMARK    7  A    between atoms: C_20  and  C_21
REMARK                            x       y       z     vdW  Elec       q    Type
REMARK                         _______ _______ _______ _____ _____    ______ ____
ROOT
ATOM      1  N   UNL     1       3.423   2.975  20.497  0.00  0.00    +0.000 N 
ATOM      2  C   UNL     1       2.416   3.701  21.095  0.00  0.00    +0.000 C 
ATOM      3  O   UNL     1       2.062   3.404  22.236  0.00  0.00    +0.000 OA
ATOM      4  H   UNL     1       3.954   2.413  21.153  0.00  0.00    +0.000 HD
ENDROOT
BRANCH   1   8
ATOM      5  C   UNL     1       5.081   4.031  16.795  0.00  0.00    +0.000 A 
ATOM      6  C   UNL     1       5.622   4.540  17.983  0.00  0.00    +0.000 A 
ATOM      7  C   UNL     1       5.097   4.178  19.228  0.00  0.00    +0.000 A 
ATOM      8  C   UNL     1       4.010   3.314  19.279  0.00  0.00    +0.000 A 
ATOM      9  C   UNL     1       3.459   2.796  18.112  0.00  0.00    +0.000 A 
ATOM     10  C   UNL     1       3.983   3.163  16.871  0.00  0.00    +0.000 A 
BRANCH   5  14
ATOM     11  C   UNL     1       7.114   4.991  13.762  0.00  0.00    +0.000 C 
ATOM     12  C   UNL     1       6.899   4.601  15.198  0.00  0.00    +0.000 C 
ATOM     13  O   UNL     1       7.860   4.520  15.960  0.00  0.00    +0.000 OA
ATOM     14  N   UNL     1       5.577   4.363  15.517  0.00  0.00    +0.000 N 
ATOM     15  H   UNL     1       4.916   4.330  14.749  0.00  0.00    +0.000 HD
ENDBRANCH   5  14
ENDBRANCH   1   8
BRANCH   2  16
ATOM     16  C   UNL     1       1.767   4.850  20.319  0.00  0.00    +0.000 C 
BRANCH  16  17
ATOM     17  O   UNL     1       2.575   6.006  20.506  0.00  0.00    +0.000 OA
BRANCH  17  18
ATOM     18  C   UNL     1       2.141   7.211  20.025  0.00  0.00    +0.000 A 
ATOM     19  C   UNL     1       1.265   7.863  20.909  0.00  0.00    +0.000 A 
ATOM     20  C   UNL     1       0.626   9.054  20.558  0.00  0.00    +0.000 A 
ATOM     21  C   UNL     1       0.863   9.607  19.307  0.00  0.00    +0.000 A 
ATOM     22 BR   UNL     1      -0.020  11.196  18.793  0.00  0.00    +0.000 Br
ATOM     23  C   UNL     1       1.732   8.977  18.418  0.00  0.00    +0.000 A 
ATOM     24  C   UNL     1       2.374   7.765  18.755  0.00  0.00    +0.000 A 
ATOM     25  C   UNL     1       3.223   7.132  17.692  0.00  0.00    +0.000 C 
ENDBRANCH  17  18
ENDBRANCH  16  17
ENDBRANCH   2  16
TORSDOF 5
ENDMDL
MODEL 2
REMARK VINA RESULT:      -7.3      3.158      4.814
REMARK  Name = 
REMARK  7 active torsions:
REMARK  status: ('A' for Active; 'I' for Inactive)
REMARK    1  A    between atoms: C_1  and  C_2
REMARK    2  A    between atoms: N_4  and  C_5
REMARK    3  A    between atoms: C_8  and  N_9
REMARK    4  A    between atoms: C_10  and  C_12
REMARK    5  A    between atoms: C_12  and  O_13
REMARK    6  A    between atoms: O_13  and  C_14
REMARK    7  A    between atoms: C_20  and  C_21
REMARK                            x       y       z     vdW  Elec       q    Type
REMARK                         _______ _______ _______ _____ _____    ______ ____
ROOT
ATOM      1  N   UNL     1       7.831   4.369  17.568  0.00  0.00    +0.000 N 
ATOM      2  C   UNL     1       7.553   5.270  18.572  0.00  0.00    +0.000 C 
ATOM      3  O   UNL     1       8.333   5.370  19.519  0.00  0.00    +0.000 OA
ATOM      4  H   UNL     1       8.791   4.042  17.580  0.00  0.00    +0.000 HD
ENDROOT
BRANCH   1   8
ATOM      5  C   UNL     1       5.565   4.149  14.048  0.00  0.00    +0.000 A 
ATOM      6  C   UNL     1       6.817   4.780  14.046  0.00  0.00    +0.000 A 
ATOM      7  C   UNL     1       7.597   4.840  15.205  0.00  0.00    +0.000 A 
ATOM      8  C   UNL     1       7.109   4.279  16.379  0.00  0.00    +0.000 A 
ATOM      9  C   UNL     1       5.871   3.646  16.404  0.00  0.00    +0.000 A 
ATOM     10  C   UNL     1       5.093   3.592  15.245  0.00  0.00    +0.000 A 
BRANCH   5  14
ATOM     11  C   UNL     1       3.915   3.365  10.744  0.00  0.00    +0.000 C 
ATOM     12  C   UNL     1       4.918   3.186  11.850  0.00  0.00    +0.000 C 
ATOM     13  O   UNL     1       5.786   2.320  11.754  0.00  0.00    +0.000 OA
ATOM     14  N   UNL     1       4.744   4.059  12.905  0.00  0.00    +0.000 N 
ATOM     15  H   UNL     1       3.899   4.619  12.906  0.00  0.00    +0.000 HD
ENDBRANCH   5  14
ENDBRANCH   1   8
BRANCH   2  16
ATOM     16  C   UNL     1       6.279   6.115  18.480  0.00  0.00    +0.000 C 
BRANCH  16  17
ATOM     17  O   UNL     1       5.481   5.818  19.619  0.00  0.00    +0.000 OA
BRANCH  17  18
ATOM     18  C   UNL     1       4.301   5.147  19.453  0.00  0.00    +0.000 A 
ATOM     19  C   UNL     1       4.403   3.783  19.778  0.00  0.00    +0.000 A 
ATOM     20  C   UNL     1       3.340   2.902  19.574  0.00  0.00    +0.000 A 
ATOM     21  C   UNL     1       2.154   3.384  19.038  0.00  0.00    +0.000 A 
ATOM     22 BR   UNL     1       0.714   2.205  18.714  0.00  0.00    +0.000 Br
ATOM     23  C   UNL     1       2.032   4.734  18.713  0.00  0.00    +0.000 A 
ATOM     24  C   UNL     1       3.104   5.633  18.902  0.00  0.00    +0.000 A 
ATOM     25  C   UNL     1       2.891   7.046  18.441  0.00  0.00    +0.000 C 
ENDBRANCH  17  18
ENDBRANCH  16  17
ENDBRANCH   2  16
TORSDOF 5
ENDMDL
MODEL 3
REMARK VINA RESULT:      -7.3      3.177      6.331
REMARK  Name = 
REMARK  7 active torsions:
REMARK  status: ('A' for Active; 'I' for Inactive)
REMARK    1  A    between atoms: C_1  and  C_2
REMARK    2  A    between atoms: N_4  and  C_5
REMARK    3  A    between atoms: C_8  and  N_9
REMARK    4  A    between atoms: C_10  and  C_12
REMARK    5  A    between atoms: C_12  and  O_13
REMARK    6  A    between atoms: O_13  and  C_14
REMARK    7  A    between atoms: C_20  and  C_21
REMARK                            x       y       z     vdW  Elec       q    Type
REMARK                         _______ _______ _______ _____ _____    ______ ____
ROOT
ATOM      1  N   UNL     1       2.512   3.780  18.290  0.00  0.00    +0.000 N 
ATOM      2  C   UNL     1       3.742   3.159  18.250  0.00  0.00    +0.000 C 
ATOM      3  O   UNL     1       3.879   2.145  17.565  0.00  0.00    +0.000 OA
ATOM      4  H   UNL     1       1.890   3.479  17.548  0.00  0.00    +0.000 HD
ENDROOT
BRANCH   1   8
ATOM      5  C   UNL     1       1.876   7.444  20.222  0.00  0.00    +0.000 A 
ATOM      6  C   UNL     1       2.424   7.410  18.933  0.00  0.00    +0.000 A 
ATOM      7  C   UNL     1       2.620   6.197  18.264  0.00  0.00    +0.000 A 
ATOM      8  C   UNL     1       2.279   5.010  18.901  0.00  0.00    +0.000 A 
ATOM      9  C   UNL     1       1.732   5.021  20.179  0.00  0.00    +0.000 A 
ATOM     10  C   UNL     1       1.542   6.234  20.845  0.00  0.00    +0.000 A 
BRANCH   5  14
ATOM     11  C   UNL     1       0.667  10.736  21.620  0.00  0.00    +0.000 C 
ATOM     12  C   UNL     1       0.601   9.512  20.750  0.00  0.00    +0.000 C 
ATOM     13  O   UNL     1      -0.337   9.367  19.968  0.00  0.00    +0.000 OA
ATOM     14  N   UNL     1       1.656   8.641  20.936  0.00  0.00    +0.000 N 
ATOM     15  H   UNL     1       2.275   8.826  21.716  0.00  0.00    +0.000 HD
ENDBRANCH   5  14
ENDBRANCH   1   8
BRANCH   2  16
ATOM     16  C   UNL     1       4.898   3.749  19.063  0.00  0.00    +0.000 C 
BRANCH  16  17
ATOM     17  O   UNL     1       6.019   3.866  18.196  0.00  0.00    +0.000 OA
BRANCH  17  18
ATOM     18  C   UNL     1       6.570   5.098  17.977  0.00  0.00    +0.000 A 
ATOM     19  C   UNL     1       7.470   5.477  18.987  0.00  0.00    +0.000 A 
ATOM     20  C   UNL     1       8.057   6.743  19.006  0.00  0.00    +0.000 A 
ATOM     21  C   UNL     1       7.745   7.649  18.002  0.00  0.00    +0.000 A 
ATOM     22 BR   UNL     1       8.495   9.383  18.027  0.00  0.00    +0.000 Br
ATOM     23  C   UNL     1       6.858   7.291  16.989  0.00  0.00    +0.000 A 
ATOM     24  C   UNL     1       6.247   6.019  16.965  0.00  0.00    +0.000 A 
ATOM     25  C   UNL     1       5.246   5.769  15.875  0.00  0.00    +0.000 C 
ENDBRANCH  17  18
ENDBRANCH  16  17
ENDBRANCH   2  16
TORSDOF 5
ENDMDL
MODEL 4
REMARK VINA RESULT:      -7.2      0.762      1.261
REMARK  Name = 
REMARK  7 active torsions:
REMARK  status: ('A' for Active; 'I' for Inactive)
REMARK    1  A    between atoms: C_1  and  C_2
REMARK    2  A    between atoms: N_4  and  C_5
REMARK    3  A    between atoms: C_8  and  N_9
REMARK    4  A    between atoms: C_10  and  C_12
REMARK    5  A    between atoms: C_12  and  O_13
REMARK    6  A    between atoms: O_13  and  C_14
REMARK    7  A    between atoms: C_20  and  C_21
REMARK                            x       y       z     vdW  Elec       q    Type
REMARK                         _______ _______ _______ _____ _____    ______ ____
ROOT
ATOM      1  N   UNL     1       3.545   3.191  20.075  0.00  0.00    +0.000 N 
ATOM      2  C   UNL     1       2.454   3.791  20.666  0.00  0.00    +0.000 C 
ATOM      3  O   UNL     1       2.025   3.339  21.728  0.00  0.00    +0.000 OA
ATOM      4  H   UNL     1       4.051   2.575  20.703  0.00  0.00    +0.000 HD
ENDROOT
BRANCH   1   8
ATOM      5  C   UNL     1       5.645   4.685  16.770  0.00  0.00    +0.000 A 
ATOM      6  C   UNL     1       4.483   3.926  16.585  0.00  0.00    +0.000 A 
ATOM      7  C   UNL     1       3.756   3.441  17.678  0.00  0.00    +0.000 A 
ATOM      8  C   UNL     1       4.209   3.705  18.964  0.00  0.00    +0.000 A 
ATOM      9  C   UNL     1       5.360   4.458  19.171  0.00  0.00    +0.000 A 
ATOM     10  C   UNL     1       6.085   4.937  18.077  0.00  0.00    +0.000 A 
BRANCH   5  14
ATOM     11  C   UNL     1       7.575   5.329  13.590  0.00  0.00    +0.000 C 
ATOM     12  C   UNL     1       6.681   4.551  14.515  0.00  0.00    +0.000 C 
ATOM     13  O   UNL     1       6.266   3.444  14.176  0.00  0.00    +0.000 OA
ATOM     14  N   UNL     1       6.410   5.200  15.703  0.00  0.00    +0.000 N 
ATOM     15  H   UNL     1       6.706   6.166  15.778  0.00  0.00    +0.000 HD
ENDBRANCH   5  14
ENDBRANCH   1   8
BRANCH   2  16
ATOM     16  C   UNL     1       1.809   4.998  19.981  0.00  0.00    +0.000 C 
BRANCH  16  17
ATOM     17  O   UNL     1       2.356   6.172  20.570  0.00  0.00    +0.000 OA
BRANCH  17  18
ATOM     18  C   UNL     1       1.974   7.397  20.098  0.00  0.00    +0.000 A 
ATOM     19  C   UNL     1       1.112   8.073  20.978  0.00  0.00    +0.000 A 
ATOM     20  C   UNL     1       0.524   9.291  20.633  0.00  0.00    +0.000 A 
ATOM     21  C   UNL     1       0.799   9.848  19.392  0.00  0.00    +0.000 A 
ATOM     22 BR   UNL     1      -0.016  11.476  18.886  0.00  0.00    +0.000 Br
ATOM     23  C   UNL     1       1.655   9.196  18.507  0.00  0.00    +0.000 A 
ATOM     24  C   UNL     1       2.245   7.957  18.838  0.00  0.00    +0.000 A 
ATOM     25  C   UNL     1       3.084   7.304  17.779  0.00  0.00    +0.000 C 
ENDBRANCH  17  18
ENDBRANCH  16  17
ENDBRANCH   2  16
TORSDOF 5
ENDMDL
MODEL 5
REMARK VINA RESULT:      -7.2      3.184      6.320
REMARK  Name = 
REMARK  7 active torsions:
REMARK  status: ('A' for Active; 'I' for Inactive)
REMARK    1  A    between atoms: C_1  and  C_2
REMARK    2  A    between atoms: N_4  and  C_5
REMARK    3  A    between atoms: C_8  and  N_9
REMARK    4  A    between atoms: C_10  and  C_12
REMARK    5  A    between atoms: C_12  and  O_13
REMARK    6  A    between atoms: O_13  and  C_14
REMARK    7  A    between atoms: C_20  and  C_21
REMARK                            x       y       z     vdW  Elec       q    Type
REMARK                         _______ _______ _______ _____ _____    ______ ____
ROOT
ATOM      1  N   UNL     1       2.446   3.876  18.429  0.00  0.00    +0.000 N 
ATOM      2  C   UNL     1       3.637   3.182  18.410  0.00  0.00    +0.000 C 
ATOM      3  O   UNL     1       3.716   2.149  17.745  0.00  0.00    +0.000 OA
ATOM      4  H   UNL     1       1.812   3.600  17.689  0.00  0.00    +0.000 HD
ENDROOT
BRANCH   1   8
ATOM      5  C   UNL     1       1.890   7.680  20.100  0.00  0.00    +0.000 A 
ATOM      6  C   UNL     1       1.623   6.530  20.854  0.00  0.00    +0.000 A 
ATOM      7  C   UNL     1       1.827   5.253  20.320  0.00  0.00    +0.000 A 
ATOM      8  C   UNL     1       2.285   5.130  19.015  0.00  0.00    +0.000 A 
ATOM      9  C   UNL     1       2.559   6.258  18.249  0.00  0.00    +0.000 A 
ATOM     10  C   UNL     1       2.349   7.531  18.784  0.00  0.00    +0.000 A 
BRANCH   5  14
ATOM     11  C   UNL     1       0.656  11.107  21.092  0.00  0.00    +0.000 C 
ATOM     12  C   UNL     1       0.532   9.716  20.536  0.00  0.00    +0.000 C 
ATOM     13  O   UNL     1      -0.547   9.330  20.090  0.00  0.00    +0.000 OA
ATOM     14  N   UNL     1       1.704   8.988  20.593  0.00  0.00    +0.000 N 
ATOM     15  H   UNL     1       2.472   9.390  21.118  0.00  0.00    +0.000 HD
ENDBRANCH   5  14
ENDBRANCH   1   8
BRANCH   2  16
ATOM     16  C   UNL     1       4.821   3.716  19.221  0.00  0.00    +0.000 C 
BRANCH  16  17
ATOM     17  O   UNL     1       5.939   3.799  18.346  0.00  0.00    +0.000 OA
BRANCH  17  18
ATOM     18  C   UNL     1       6.493   5.022  18.081  0.00  0.00    +0.000 A 
ATOM     19  C   UNL     1       7.415   5.423  19.062  0.00  0.00    +0.000 A 
ATOM     20  C   UNL     1       8.009   6.685  19.034  0.00  0.00    +0.000 A 
ATOM     21  C   UNL     1       7.682   7.565  18.012  0.00  0.00    +0.000 A 
ATOM     22 BR   UNL     1       8.441   9.295  17.973  0.00  0.00    +0.000 Br
ATOM     23  C   UNL     1       6.772   7.185  17.027  0.00  0.00    +0.000 A 
ATOM     24  C   UNL     1       6.154   5.915  17.051  0.00  0.00    +0.000 A 
ATOM     25  C   UNL     1       5.130   5.642  15.989  0.00  0.00    +0.000 C 
ENDBRANCH  17  18
ENDBRANCH  16  17
ENDBRANCH   2  16
TORSDOF 5
ENDMDL
MODEL 6
REMARK VINA RESULT:      -7.0      2.467      3.534
REMARK  Name = 
REMARK  7 active torsions:
REMARK  status: ('A' for Active; 'I' for Inactive)
REMARK    1  A    between atoms: C_1  and  C_2
REMARK    2  A    between atoms: N_4  and  C_5
REMARK    3  A    between atoms: C_8  and  N_9
REMARK    4  A    between atoms: C_10  and  C_12
REMARK    5  A    between atoms: C_12  and  O_13
REMARK    6  A    between atoms: O_13  and  C_14
REMARK    7  A    between atoms: C_20  and  C_21
REMARK                            x       y       z     vdW  Elec       q    Type
REMARK                         _______ _______ _______ _____ _____    ______ ____
ROOT
ATOM      1  N   UNL     1       2.219   6.380  20.471  0.00  0.00    +0.000 N 
ATOM      2  C   UNL     1       1.709   7.660  20.435  0.00  0.00    +0.000 C 
ATOM      3  O   UNL     1       1.219   8.138  21.458  0.00  0.00    +0.000 OA
ATOM      4  H   UNL     1       2.367   6.036  21.413  0.00  0.00    +0.000 HD
ENDROOT
BRANCH   1   8
ATOM      5  C   UNL     1       4.290   4.676  17.250  0.00  0.00    +0.000 A 
ATOM      6  C   UNL     1       4.978   5.414  18.223  0.00  0.00    +0.000 A 
ATOM      7  C   UNL     1       4.306   5.969  19.317  0.00  0.00    +0.000 A 
ATOM      8  C   UNL     1       2.932   5.795  19.427  0.00  0.00    +0.000 A 
ATOM      9  C   UNL     1       2.230   5.064  18.474  0.00  0.00    +0.000 A 
ATOM     10  C   UNL     1       2.904   4.516  17.381  0.00  0.00    +0.000 A 
BRANCH   5  14
ATOM     11  C   UNL     1       6.090   3.889  14.026  0.00  0.00    +0.000 C 
ATOM     12  C   UNL     1       5.562   4.779  15.117  0.00  0.00    +0.000 C 
ATOM     13  O   UNL     1       5.722   5.996  15.044  0.00  0.00    +0.000 OA
ATOM     14  N   UNL     1       4.923   4.095  16.132  0.00  0.00    +0.000 N 
ATOM     15  H   UNL     1       4.995   3.084  16.123  0.00  0.00    +0.000 HD
ENDBRANCH   5  14
ENDBRANCH   1   8
BRANCH   2  16
ATOM     16  C   UNL     1       1.764   8.444  19.121  0.00  0.00    +0.000 C 
BRANCH  16  17
ATOM     17  O   UNL     1       1.343   9.775  19.396  0.00  0.00    +0.000 OA
BRANCH  17  18
ATOM     18  C   UNL     1       0.068  10.153  19.078  0.00  0.00    +0.000 A 
ATOM     19  C   UNL     1      -0.352   9.651  17.834  0.00  0.00    +0.000 A 
ATOM     20  C   UNL     1      -1.581  10.011  17.279  0.00  0.00    +0.000 A 
ATOM     21  C   UNL     1      -2.408  10.884  17.972  0.00  0.00    +0.000 A 
ATOM     22 BR   UNL     1      -4.059  11.418  17.223  0.00  0.00    +0.000 Br
ATOM     23  C   UNL     1      -2.011  11.389  19.209  0.00  0.00    +0.000 A 
ATOM     24  C   UNL     1      -0.765  11.044  19.776  0.00  0.00    +0.000 A 
ATOM     25  C   UNL     1      -0.404  11.709  21.071  0.00  0.00    +0.000 C 
ENDBRANCH  17  18
ENDBRANCH  16  17
ENDBRANCH   2  16
TORSDOF 5
ENDMDL
MODEL 7
REMARK VINA RESULT:      -7.0      4.593      7.762
REMARK  Name = 
REMARK  7 active torsions:
REMARK  status: ('A' for Active; 'I' for Inactive)
REMARK    1  A    between atoms: C_1  and  C_2
REMARK    2  A    between atoms: N_4  and  C_5
REMARK    3  A    between atoms: C_8  and  N_9
REMARK    4  A    between atoms: C_10  and  C_12
REMARK    5  A    between atoms: C_12  and  O_13
REMARK    6  A    between atoms: O_13  and  C_14
REMARK    7  A    between atoms: C_20  and  C_21
REMARK                            x       y       z     vdW  Elec       q    Type
REMARK                         _______ _______ _______ _____ _____    ______ ____
ROOT
ATOM      1  N   UNL     1       0.424  10.914  21.674  0.00  0.00    +0.000 N 
ATOM      2  C   UNL     1       0.757   9.688  22.206  0.00  0.00    +0.000 C 
ATOM      3  O   UNL     1       1.208   9.635  23.351  0.00  0.00    +0.000 OA
ATOM      4  H   UNL     1       0.351  11.646  22.371  0.00  0.00    +0.000 HD
ENDROOT
BRANCH   1   8
ATOM      5  C   UNL     1      -1.548  11.301  17.995  0.00  0.00    +0.000 A 
ATOM      6  C   UNL     1      -2.145  11.776  19.171  0.00  0.00    +0.000 A 
ATOM      7  C   UNL     1      -1.489  11.677  20.403  0.00  0.00    +0.000 A 
ATOM      8  C   UNL     1      -0.236  11.082  20.457  0.00  0.00    +0.000 A 
ATOM      9  C   UNL     1       0.376  10.606  19.302  0.00  0.00    +0.000 A 
ATOM     10  C   UNL     1      -0.284  10.702  18.075  0.00  0.00    +0.000 A 
BRANCH   5  14
ATOM     11  C   UNL     1      -3.354  10.728  14.729  0.00  0.00    +0.000 C 
ATOM     12  C   UNL     1      -2.858  10.364  16.101  0.00  0.00    +0.000 C 
ATOM     13  O   UNL     1      -3.087   9.246  16.558  0.00  0.00    +0.000 OA
ATOM     14  N   UNL     1      -2.166  11.381  16.730  0.00  0.00    +0.000 N 
ATOM     15  H   UNL     1      -2.182  12.292  16.287  0.00  0.00    +0.000 HD
ENDBRANCH   5  14
ENDBRANCH   1   8
BRANCH   2  16
ATOM     16  C   UNL     1       0.559   8.430  21.356  0.00  0.00    +0.000 C 
BRANCH  16  17
ATOM     17  O   UNL     1       1.839   8.017  20.893  0.00  0.00    +0.000 OA
BRANCH  17  18
ATOM     18  C   UNL     1       1.929   6.965  20.024  0.00  0.00    +0.000 A 
ATOM     19  C   UNL     1       1.686   5.727  20.645  0.00  0.00    +0.000 A 
ATOM     20  C   UNL     1       1.835   4.523  19.956  0.00  0.00    +0.000 A 
ATOM     21  C   UNL     1       2.232   4.547  18.626  0.00  0.00    +0.000 A 
ATOM     22 BR   UNL     1       2.480   2.929  17.683  0.00  0.00    +0.000 Br
ATOM     23  C   UNL     1       2.473   5.765  17.992  0.00  0.00    +0.000 A 
ATOM     24  C   UNL     1       2.339   6.990  18.681  0.00  0.00    +0.000 A 
ATOM     25  C   UNL     1       2.703   8.234  17.925  0.00  0.00    +0.000 C 
ENDBRANCH  17  18
ENDBRANCH  16  17
ENDBRANCH   2  16
TORSDOF 5
ENDMDL
MODEL 8
REMARK VINA RESULT:      -6.9      1.384      2.174
REMARK  Name = 
REMARK  7 active torsions:
REMARK  status: ('A' for Active; 'I' for Inactive)
REMARK    1  A    between atoms: C_1  and  C_2
REMARK    2  A    between atoms: N_4  and  C_5
REMARK    3  A    between atoms: C_8  and  N_9
REMARK    4  A    between atoms: C_10  and  C_12
REMARK    5  A    between atoms: C_12  and  O_13
REMARK    6  A    between atoms: O_13  and  C_14
REMARK    7  A    between atoms: C_20  and  C_21
REMARK                            x       y       z     vdW  Elec       q    Type
REMARK                         _______ _______ _______ _____ _____    ______ ____
ROOT
ATOM      1  N   UNL     1       3.712   4.017  19.561  0.00  0.00    +0.000 N 
ATOM      2  C   UNL     1       2.849   4.901  20.171  0.00  0.00    +0.000 C 
ATOM      3  O   UNL     1       2.236   4.541  21.176  0.00  0.00    +0.000 OA
ATOM      4  H   UNL     1       3.949   3.223  20.145  0.00  0.00    +0.000 HD
ENDROOT
BRANCH   1   8
ATOM      5  C   UNL     1       6.213   5.128  16.386  0.00  0.00    +0.000 A 
ATOM      6  C   UNL     1       6.682   5.173  17.705  0.00  0.00    +0.000 A 
ATOM      7  C   UNL     1       5.869   4.782  18.774  0.00  0.00    +0.000 A 
ATOM      8  C   UNL     1       4.570   4.360  18.518  0.00  0.00    +0.000 A 
ATOM      9  C   UNL     1       4.085   4.306  17.216  0.00  0.00    +0.000 A 
ATOM     10  C   UNL     1       4.898   4.701  16.152  0.00  0.00    +0.000 A 
BRANCH   5  14
ATOM     11  C   UNL     1       8.051   5.441  13.103  0.00  0.00    +0.000 C 
ATOM     12  C   UNL     1       7.091   4.821  14.081  0.00  0.00    +0.000 C 
ATOM     13  O   UNL     1       6.483   3.797  13.776  0.00  0.00    +0.000 OA
ATOM     14  N   UNL     1       6.994   5.508  15.275  0.00  0.00    +0.000 N 
ATOM     15  H   UNL     1       7.448   6.412  15.325  0.00  0.00    +0.000 HD
ENDBRANCH   5  14
ENDBRANCH   1   8
BRANCH   2  16
ATOM     16  C   UNL     1       2.679   6.302  19.578  0.00  0.00    +0.000 C 
BRANCH  16  17
ATOM     17  O   UNL     1       1.948   7.082  20.517  0.00  0.00    +0.000 OA
BRANCH  17  18
ATOM     18  C   UNL     1       1.538   8.339  20.167  0.00  0.00    +0.000 A 
ATOM     19  C   UNL     1       1.838   8.655  18.831  0.00  0.00    +0.000 A 
ATOM     20  C   UNL     1       1.599   9.928  18.310  0.00  0.00    +0.000 A 
ATOM     21  C   UNL     1       1.053  10.904  19.131  0.00  0.00    +0.000 A 
ATOM     22 BR   UNL     1       0.758  12.646  18.461  0.00  0.00    +0.000 Br
ATOM     23  C   UNL     1       0.745  10.609  20.458  0.00  0.00    +0.000 A 
ATOM     24  C   UNL     1       0.993   9.330  21.001  0.00  0.00    +0.000 A 
ATOM     25  C   UNL     1       0.700   9.147  22.461  0.00  0.00    +0.000 C 
ENDBRANCH  17  18
ENDBRANCH  16  17
ENDBRANCH   2  16
TORSDOF 5
ENDMDL
MODEL 9
REMARK VINA RESULT:      -6.9      3.023      5.871
REMARK  Name = 
REMARK  7 active torsions:
REMARK  status: ('A' for Active; 'I' for Inactive)
REMARK    1  A    between atoms: C_1  and  C_2
REMARK    2  A    between atoms: N_4  and  C_5
REMARK    3  A    between atoms: C_8  and  N_9
REMARK    4  A    between atoms: C_10  and  C_12
REMARK    5  A    between atoms: C_12  and  O_13
REMARK    6  A    between atoms: O_13  and  C_14
REMARK    7  A    between atoms: C_20  and  C_21
REMARK                            x       y       z     vdW  Elec       q    Type
REMARK                         _______ _______ _______ _____ _____    ______ ____
ROOT
ATOM      1  N   UNL     1       2.144   3.137  19.023  0.00  0.00    +0.000 N 
ATOM      2  C   UNL     1       3.338   2.455  18.929  0.00  0.00    +0.000 C 
ATOM      3  O   UNL     1       3.321   1.252  18.667  0.00  0.00    +0.000 OA
ATOM      4  H   UNL     1       1.363   2.630  18.622  0.00  0.00    +0.000 HD
ENDROOT
BRANCH   1   8
ATOM      5  C   UNL     1       1.912   7.291  19.533  0.00  0.00    +0.000 A 
ATOM      6  C   UNL     1       2.375   6.751  18.325  0.00  0.00    +0.000 A 
ATOM      7  C   UNL     1       2.435   5.367  18.130  0.00  0.00    +0.000 A 
ATOM      8  C   UNL     1       2.045   4.520  19.159  0.00  0.00    +0.000 A 
ATOM      9  C   UNL     1       1.581   5.034  20.365  0.00  0.00    +0.000 A 
ATOM     10  C   UNL     1       1.526   6.417  20.558  0.00  0.00    +0.000 A 
BRANCH   5  14
ATOM     11  C   UNL     1       1.301  11.016  19.478  0.00  0.00    +0.000 C 
ATOM     12  C   UNL     1       1.161   9.599  18.995  0.00  0.00    +0.000 C 
ATOM     13  O   UNL     1       0.496   9.357  17.990  0.00  0.00    +0.000 OA
ATOM     14  N   UNL     1       1.829   8.677  19.777  0.00  0.00    +0.000 N 
ATOM     15  H   UNL     1       2.215   9.009  20.653  0.00  0.00    +0.000 HD
ENDBRANCH   5  14
ENDBRANCH   1   8
BRANCH   2  16
ATOM     16  C   UNL     1       4.647   3.216  19.157  0.00  0.00    +0.000 C 
BRANCH  16  17
ATOM     17  O   UNL     1       5.211   3.495  17.881  0.00  0.00    +0.000 OA
BRANCH  17  18
ATOM     18  C   UNL     1       5.947   4.635  17.710  0.00  0.00    +0.000 A 
ATOM     19  C   UNL     1       6.572   5.060  18.895  0.00  0.00    +0.000 A 
ATOM     20  C   UNL     1       7.281   6.260  18.957  0.00  0.00    +0.000 A 
ATOM     21  C   UNL     1       7.371   7.054  17.822  0.00  0.00    +0.000 A 
ATOM     22 BR   UNL     1       8.290   8.703  17.891  0.00  0.00    +0.000 Br
ATOM     23  C   UNL     1       6.761   6.648  16.636  0.00  0.00    +0.000 A 
ATOM     24  C   UNL     1       6.030   5.442  16.563  0.00  0.00    +0.000 A 
ATOM     25  C   UNL     1       5.346   5.144  15.261  0.00  0.00    +0.000 C 
ENDBRANCH  17  18
ENDBRANCH  16  17
ENDBRANCH   2  16
TORSDOF 5
ENDMDL
