MODEL 1
REMARK VINA RESULT:      -8.3      0.000      0.000
REMARK  Name = 
REMARK  3 active torsions:
REMARK  status: ('A' for Active; 'I' for Inactive)
REMARK    1  A    between atoms: C_2  and  C_14
REMARK    2  A    between atoms: N_3  and  C_4
REMARK    3  A    between atoms: C_6  and  C_7
REMARK                            x       y       z     vdW  Elec       q    Type
REMARK                         _______ _______ _______ _____ _____    ______ ____
ROOT
ATOM      1  O   UNL     1       7.407   4.664  16.575  0.00  0.00    +0.000 OA
ATOM      2  C   UNL     1       6.495   4.775  15.771  0.00  0.00    +0.000 C 
ATOM      3  N   UNL     1       5.183   5.069  16.105  0.00  0.00    +0.000 N 
ATOM      4  H   UNL     1       4.469   4.943  15.396  0.00  0.00    +0.000 HD
ENDROOT
BRANCH   2   5
ATOM      5  C   UNL     1       6.754   4.558  14.313  0.00  0.00    +0.000 A 
ATOM      6  C   UNL     1       7.651   5.408  13.648  0.00  0.00    +0.000 A 
ATOM      7  C   UNL     1       7.890   5.253  12.278  0.00  0.00    +0.000 A 
ATOM      8  C   UNL     1       7.227   4.260  11.565  0.00  0.00    +0.000 A 
ATOM      9  C   UNL     1       6.333   3.424  12.226  0.00  0.00    +0.000 A 
ATOM     10  F   UNL     1       5.681   2.479  11.537  0.00  0.00    +0.000 F 
ATOM     11  C   UNL     1       6.090   3.558  13.591  0.00  0.00    +0.000 A 
ENDBRANCH   2   5
BRANCH   3  12
ATOM     12  C   UNL     1       4.725   5.219  17.456  0.00  0.00    +0.000 C 
ATOM     13  C   UNL     1       4.367   6.553  18.044  0.00  0.00    +0.000 C 
ATOM     14  C   UNL     1       3.266   5.575  17.716  0.00  0.00    +0.000 C 
BRANCH  14  15
ATOM     15  C   UNL     1       2.497   4.842  18.796  0.00  0.00    +0.000 A 
ATOM     16  C   UNL     1       2.688   5.120  20.165  0.00  0.00    +0.000 A 
ATOM     17  C   UNL     1       2.005   4.414  21.165  0.00  0.00    +0.000 A 
ATOM     18  C   UNL     1       1.119   3.402  20.819  0.00  0.00    +0.000 A 
ATOM     19  C   UNL     1       0.925   3.109  19.477  0.00  0.00    +0.000 A 
ATOM     20  F   UNL     1       0.076   2.131  19.135  0.00  0.00    +0.000 F 
ATOM     21  C   UNL     1       1.601   3.810  18.478  0.00  0.00    +0.000 A 
ENDBRANCH  14  15
ENDBRANCH   3  12
TORSDOF 3
ENDMDL
MODEL 2
REMARK VINA RESULT:      -8.1      1.315      1.687
REMARK  Name = 
REMARK  3 active torsions:
REMARK  status: ('A' for Active; 'I' for Inactive)
REMARK    1  A    between atoms: C_2  and  C_14
REMARK    2  A    between atoms: N_3  and  C_4
REMARK    3  A    between atoms: C_6  and  C_7
REMARK                            x       y       z     vdW  Elec       q    Type
REMARK                         _______ _______ _______ _____ _____    ______ ____
ROOT
ATOM      1  O   UNL     1       5.528   3.337  16.360  0.00  0.00    +0.000 OA
ATOM      2  C   UNL     1       5.638   4.407  15.780  0.00  0.00    +0.000 C 
ATOM      3  N   UNL     1       5.202   5.622  16.282  0.00  0.00    +0.000 N 
ATOM      4  H   UNL     1       5.157   6.412  15.649  0.00  0.00    +0.000 HD
ENDROOT
BRANCH   2   5
ATOM      5  C   UNL     1       6.253   4.457  14.417  0.00  0.00    +0.000 A 
ATOM      6  C   UNL     1       5.760   3.604  13.417  0.00  0.00    +0.000 A 
ATOM      7  C   UNL     1       6.335   3.601  12.141  0.00  0.00    +0.000 A 
ATOM      8  C   UNL     1       7.410   4.439  11.863  0.00  0.00    +0.000 A 
ATOM      9  C   UNL     1       7.901   5.277  12.858  0.00  0.00    +0.000 A 
ATOM     10  F   UNL     1       8.947   6.071  12.596  0.00  0.00    +0.000 F 
ATOM     11  C   UNL     1       7.335   5.299  14.131  0.00  0.00    +0.000 A 
ENDBRANCH   2   5
BRANCH   3  12
ATOM     12  C   UNL     1       4.506   5.760  17.529  0.00  0.00    +0.000 C 
ATOM     13  C   UNL     1       3.747   7.002  17.897  0.00  0.00    +0.000 C 
ATOM     14  C   UNL     1       2.982   5.751  17.539  0.00  0.00    +0.000 C 
BRANCH  14  15
ATOM     15  C   UNL     1       2.246   4.936  18.583  0.00  0.00    +0.000 A 
ATOM     16  C   UNL     1       2.292   5.265  19.953  0.00  0.00    +0.000 A 
ATOM     17  C   UNL     1       1.642   4.489  20.923  0.00  0.00    +0.000 A 
ATOM     18  C   UNL     1       0.937   3.353  20.544  0.00  0.00    +0.000 A 
ATOM     19  C   UNL     1       0.888   3.010  19.201  0.00  0.00    +0.000 A 
ATOM     20  F   UNL     1       0.213   1.914  18.829  0.00  0.00    +0.000 F 
ATOM     21  C   UNL     1       1.531   3.780  18.233  0.00  0.00    +0.000 A 
ENDBRANCH  14  15
ENDBRANCH   3  12
TORSDOF 3
ENDMDL
MODEL 3
REMARK VINA RESULT:      -8.1      1.066      1.507
REMARK  Name = 
REMARK  3 active torsions:
REMARK  status: ('A' for Active; 'I' for Inactive)
REMARK    1  A    between atoms: C_2  and  C_14
REMARK    2  A    between atoms: N_3  and  C_4
REMARK    3  A    between atoms: C_6  and  C_7
REMARK                            x       y       z     vdW  Elec       q    Type
REMARK                         _______ _______ _______ _____ _____    ______ ____
ROOT
ATOM      1  O   UNL     1       7.323   5.093  16.648  0.00  0.00    +0.000 OA
ATOM      2  C   UNL     1       6.417   4.913  15.848  0.00  0.00    +0.000 C 
ATOM      3  N   UNL     1       5.072   4.883  16.176  0.00  0.00    +0.000 N 
ATOM      4  H   UNL     1       4.418   4.532  15.485  0.00  0.00    +0.000 HD
ENDROOT
BRANCH   2   5
ATOM      5  C   UNL     1       6.732   4.673  14.405  0.00  0.00    +0.000 A 
ATOM      6  C   UNL     1       7.663   5.506  13.764  0.00  0.00    +0.000 A 
ATOM      7  C   UNL     1       7.956   5.330  12.407  0.00  0.00    +0.000 A 
ATOM      8  C   UNL     1       7.312   4.333  11.682  0.00  0.00    +0.000 A 
ATOM      9  C   UNL     1       6.385   3.514  12.318  0.00  0.00    +0.000 A 
ATOM     10  F   UNL     1       5.752   2.565  11.616  0.00  0.00    +0.000 F 
ATOM     11  C   UNL     1       6.088   3.669  13.670  0.00  0.00    +0.000 A 
ENDBRANCH   2   5
BRANCH   3  12
ATOM     12  C   UNL     1       4.582   5.000  17.520  0.00  0.00    +0.000 C 
ATOM     13  C   UNL     1       4.050   6.289  18.076  0.00  0.00    +0.000 C 
ATOM     14  C   UNL     1       3.086   5.172  17.758  0.00  0.00    +0.000 C 
BRANCH  14  15
ATOM     15  C   UNL     1       2.405   4.368  18.846  0.00  0.00    +0.000 A 
ATOM     16  C   UNL     1       1.376   3.448  18.558  0.00  0.00    +0.000 A 
ATOM     17  C   UNL     1       0.720   2.732  19.570  0.00  0.00    +0.000 A 
ATOM     18  C   UNL     1       1.072   2.927  20.899  0.00  0.00    +0.000 A 
ATOM     19  C   UNL     1       2.078   3.834  21.201  0.00  0.00    +0.000 A 
ATOM     20  F   UNL     1       2.421   4.031  22.481  0.00  0.00    +0.000 F 
ATOM     21  C   UNL     1       2.735   4.548  20.198  0.00  0.00    +0.000 A 
ENDBRANCH  14  15
ENDBRANCH   3  12
TORSDOF 3
ENDMDL
MODEL 4
REMARK VINA RESULT:      -8.0      1.219      7.689
REMARK  Name = 
REMARK  3 active torsions:
REMARK  status: ('A' for Active; 'I' for Inactive)
REMARK    1  A    between atoms: C_2  and  C_14
REMARK    2  A    between atoms: N_3  and  C_4
REMARK    3  A    between atoms: C_6  and  C_7
REMARK                            x       y       z     vdW  Elec       q    Type
REMARK                         _______ _______ _______ _____ _____    ______ ____
ROOT
ATOM      1  O   UNL     1       3.132   6.736  17.643  0.00  0.00    +0.000 OA
ATOM      2  C   UNL     1       3.417   5.584  17.933  0.00  0.00    +0.000 C 
ATOM      3  N   UNL     1       4.482   4.879  17.396  0.00  0.00    +0.000 N 
ATOM      4  H   UNL     1       4.517   3.877  17.546  0.00  0.00    +0.000 HD
ENDROOT
BRANCH   2   5
ATOM      5  C   UNL     1       2.570   4.827  18.906  0.00  0.00    +0.000 A 
ATOM      6  C   UNL     1       2.724   5.077  20.279  0.00  0.00    +0.000 A 
ATOM      7  C   UNL     1       1.972   4.362  21.218  0.00  0.00    +0.000 A 
ATOM      8  C   UNL     1       1.075   3.388  20.792  0.00  0.00    +0.000 A 
ATOM      9  C   UNL     1       0.930   3.138  19.432  0.00  0.00    +0.000 A 
ATOM     10  F   UNL     1       0.079   2.188  19.023  0.00  0.00    +0.000 F 
ATOM     11  C   UNL     1       1.665   3.846  18.483  0.00  0.00    +0.000 A 
ENDBRANCH   2   5
BRANCH   3  12
ATOM     12  C   UNL     1       5.349   5.405  16.380  0.00  0.00    +0.000 C 
ATOM     13  C   UNL     1       6.763   5.821  16.662  0.00  0.00    +0.000 C 
ATOM     14  C   UNL     1       6.511   4.558  15.877  0.00  0.00    +0.000 C 
BRANCH  14  15
ATOM     15  C   UNL     1       6.784   4.471  14.389  0.00  0.00    +0.000 A 
ATOM     16  C   UNL     1       7.645   5.377  13.736  0.00  0.00    +0.000 A 
ATOM     17  C   UNL     1       7.867   5.319  12.353  0.00  0.00    +0.000 A 
ATOM     18  C   UNL     1       7.222   4.358  11.586  0.00  0.00    +0.000 A 
ATOM     19  C   UNL     1       6.365   3.464  12.210  0.00  0.00    +0.000 A 
ATOM     20  F   UNL     1       5.736   2.536  11.476  0.00  0.00    +0.000 F 
ATOM     21  C   UNL     1       6.142   3.516  13.586  0.00  0.00    +0.000 A 
ENDBRANCH  14  15
ENDBRANCH   3  12
TORSDOF 3
ENDMDL
MODEL 5
REMARK VINA RESULT:      -7.9      1.541      2.162
REMARK  Name = 
REMARK  3 active torsions:
REMARK  status: ('A' for Active; 'I' for Inactive)
REMARK    1  A    between atoms: C_2  and  C_14
REMARK    2  A    between atoms: N_3  and  C_4
REMARK    3  A    between atoms: C_6  and  C_7
REMARK                            x       y       z     vdW  Elec       q    Type
REMARK                         _______ _______ _______ _____ _____    ______ ____
ROOT
ATOM      1  O   UNL     1       6.966   4.264  16.835  0.00  0.00    +0.000 OA
ATOM      2  C   UNL     1       6.205   4.709  15.989  0.00  0.00    +0.000 C 
ATOM      3  N   UNL     1       4.967   5.267  16.261  0.00  0.00    +0.000 N 
ATOM      4  H   UNL     1       4.332   5.422  15.486  0.00  0.00    +0.000 HD
ENDROOT
BRANCH   2   5
ATOM      5  C   UNL     1       6.578   4.643  14.541  0.00  0.00    +0.000 A 
ATOM      6  C   UNL     1       6.003   3.647  13.736  0.00  0.00    +0.000 A 
ATOM      7  C   UNL     1       6.355   3.537  12.387  0.00  0.00    +0.000 A 
ATOM      8  C   UNL     1       7.290   4.409  11.840  0.00  0.00    +0.000 A 
ATOM      9  C   UNL     1       7.863   5.390  12.642  0.00  0.00    +0.000 A 
ATOM     10  F   UNL     1       8.776   6.219  12.120  0.00  0.00    +0.000 F 
ATOM     11  C   UNL     1       7.517   5.520  13.985  0.00  0.00    +0.000 A 
ENDBRANCH   2   5
BRANCH   3  12
ATOM     12  C   UNL     1       4.399   5.332  17.577  0.00  0.00    +0.000 C 
ATOM     13  C   UNL     1       3.650   6.534  18.075  0.00  0.00    +0.000 C 
ATOM     14  C   UNL     1       2.885   5.276  17.742  0.00  0.00    +0.000 C 
BRANCH  14  15
ATOM     15  C   UNL     1       2.281   4.397  18.817  0.00  0.00    +0.000 A 
ATOM     16  C   UNL     1       1.307   3.421  18.522  0.00  0.00    +0.000 A 
ATOM     17  C   UNL     1       0.721   2.634  19.523  0.00  0.00    +0.000 A 
ATOM     18  C   UNL     1       1.090   2.812  20.850  0.00  0.00    +0.000 A 
ATOM     19  C   UNL     1       2.042   3.773  21.160  0.00  0.00    +0.000 A 
ATOM     20  F   UNL     1       2.400   3.953  22.439  0.00  0.00    +0.000 F 
ATOM     21  C   UNL     1       2.629   4.557  20.167  0.00  0.00    +0.000 A 
ENDBRANCH  14  15
ENDBRANCH   3  12
TORSDOF 3
ENDMDL
MODEL 6
REMARK VINA RESULT:      -7.9      1.610      7.879
REMARK  Name = 
REMARK  3 active torsions:
REMARK  status: ('A' for Active; 'I' for Inactive)
REMARK    1  A    between atoms: C_2  and  C_14
REMARK    2  A    between atoms: N_3  and  C_4
REMARK    3  A    between atoms: C_6  and  C_7
REMARK                            x       y       z     vdW  Elec       q    Type
REMARK                         _______ _______ _______ _____ _____    ______ ____
ROOT
ATOM      1  O   UNL     1       2.909   6.380  17.608  0.00  0.00    +0.000 OA
ATOM      2  C   UNL     1       3.320   5.284  17.958  0.00  0.00    +0.000 C 
ATOM      3  N   UNL     1       4.479   4.690  17.485  0.00  0.00    +0.000 N 
ATOM      4  H   UNL     1       4.628   3.707  17.683  0.00  0.00    +0.000 HD
ENDROOT
BRANCH   2   5
ATOM      5  C   UNL     1       2.538   4.473  18.943  0.00  0.00    +0.000 A 
ATOM      6  C   UNL     1       1.430   3.739  18.492  0.00  0.00    +0.000 A 
ATOM      7  C   UNL     1       0.657   2.997  19.392  0.00  0.00    +0.000 A 
ATOM      8  C   UNL     1       0.978   2.996  20.745  0.00  0.00    +0.000 A 
ATOM      9  C   UNL     1       2.072   3.730  21.191  0.00  0.00    +0.000 A 
ATOM     10  F   UNL     1       2.371   3.743  22.495  0.00  0.00    +0.000 F 
ATOM     11  C   UNL     1       2.858   4.467  20.306  0.00  0.00    +0.000 A 
ENDBRANCH   2   5
BRANCH   3  12
ATOM     12  C   UNL     1       5.310   5.272  16.470  0.00  0.00    +0.000 C 
ATOM     13  C   UNL     1       6.699   5.767  16.749  0.00  0.00    +0.000 C 
ATOM     14  C   UNL     1       6.516   4.496  15.955  0.00  0.00    +0.000 C 
BRANCH  14  15
ATOM     15  C   UNL     1       6.787   4.436  14.466  0.00  0.00    +0.000 A 
ATOM     16  C   UNL     1       7.672   5.334  13.834  0.00  0.00    +0.000 A 
ATOM     17  C   UNL     1       7.893   5.302  12.449  0.00  0.00    +0.000 A 
ATOM     18  C   UNL     1       7.223   4.375  11.661  0.00  0.00    +0.000 A 
ATOM     19  C   UNL     1       6.343   3.490  12.265  0.00  0.00    +0.000 A 
ATOM     20  F   UNL     1       5.690   2.595  11.511  0.00  0.00    +0.000 F 
ATOM     21  C   UNL     1       6.121   3.516  13.642  0.00  0.00    +0.000 A 
ENDBRANCH  14  15
ENDBRANCH   3  12
TORSDOF 3
ENDMDL
MODEL 7
REMARK VINA RESULT:      -7.8      1.728      7.649
REMARK  Name = 
REMARK  3 active torsions:
REMARK  status: ('A' for Active; 'I' for Inactive)
REMARK    1  A    between atoms: C_2  and  C_14
REMARK    2  A    between atoms: N_3  and  C_4
REMARK    3  A    between atoms: C_6  and  C_7
REMARK                            x       y       z     vdW  Elec       q    Type
REMARK                         _______ _______ _______ _____ _____    ______ ____
ROOT
ATOM      1  O   UNL     1       3.121   3.696  16.484  0.00  0.00    +0.000 OA
ATOM      2  C   UNL     1       3.453   4.196  17.549  0.00  0.00    +0.000 C 
ATOM      3  N   UNL     1       4.456   5.140  17.696  0.00  0.00    +0.000 N 
ATOM      4  H   UNL     1       4.788   5.343  18.632  0.00  0.00    +0.000 HD
ENDROOT
BRANCH   2   5
ATOM      5  C   UNL     1       2.780   3.770  18.815  0.00  0.00    +0.000 A 
ATOM      6  C   UNL     1       1.450   4.159  19.043  0.00  0.00    +0.000 A 
ATOM      7  C   UNL     1       0.802   3.805  20.232  0.00  0.00    +0.000 A 
ATOM      8  C   UNL     1       1.482   3.076  21.202  0.00  0.00    +0.000 A 
ATOM      9  C   UNL     1       2.801   2.699  20.977  0.00  0.00    +0.000 A 
ATOM     10  F   UNL     1       3.461   2.011  21.918  0.00  0.00    +0.000 F 
ATOM     11  C   UNL     1       3.458   3.034  19.795  0.00  0.00    +0.000 A 
ENDBRANCH   2   5
BRANCH   3  12
ATOM     12  C   UNL     1       5.274   5.602  16.611  0.00  0.00    +0.000 C 
ATOM     13  C   UNL     1       6.687   6.070  16.808  0.00  0.00    +0.000 C 
ATOM     14  C   UNL     1       6.439   4.742  16.136  0.00  0.00    +0.000 C 
BRANCH  14  15
ATOM     15  C   UNL     1       6.663   4.542  14.651  0.00  0.00    +0.000 A 
ATOM     16  C   UNL     1       7.583   5.327  13.924  0.00  0.00    +0.000 A 
ATOM     17  C   UNL     1       7.762   5.166  12.543  0.00  0.00    +0.000 A 
ATOM     18  C   UNL     1       7.015   4.221  11.851  0.00  0.00    +0.000 A 
ATOM     19  C   UNL     1       6.100   3.446  12.549  0.00  0.00    +0.000 A 
ATOM     20  F   UNL     1       5.374   2.534  11.888  0.00  0.00    +0.000 F 
ATOM     21  C   UNL     1       5.920   3.600  13.923  0.00  0.00    +0.000 A 
ENDBRANCH  14  15
ENDBRANCH   3  12
TORSDOF 3
ENDMDL
MODEL 8
REMARK VINA RESULT:      -7.8      1.917      8.105
REMARK  Name = 
REMARK  3 active torsions:
REMARK  status: ('A' for Active; 'I' for Inactive)
REMARK    1  A    between atoms: C_2  and  C_14
REMARK    2  A    between atoms: N_3  and  C_4
REMARK    3  A    between atoms: C_6  and  C_7
REMARK                            x       y       z     vdW  Elec       q    Type
REMARK                         _______ _______ _______ _____ _____    ______ ____
ROOT
ATOM      1  O   UNL     1       3.184   6.387  17.865  0.00  0.00    +0.000 OA
ATOM      2  C   UNL     1       3.460   5.215  18.071  0.00  0.00    +0.000 C 
ATOM      3  N   UNL     1       4.523   4.543  17.489  0.00  0.00    +0.000 N 
ATOM      4  H   UNL     1       4.549   3.533  17.566  0.00  0.00    +0.000 HD
ENDROOT
BRANCH   2   5
ATOM      5  C   UNL     1       2.603   4.396  18.984  0.00  0.00    +0.000 A 
ATOM      6  C   UNL     1       1.514   3.693  18.445  0.00  0.00    +0.000 A 
ATOM      7  C   UNL     1       0.673   2.944  19.276  0.00  0.00    +0.000 A 
ATOM      8  C   UNL     1       0.908   2.905  20.647  0.00  0.00    +0.000 A 
ATOM      9  C   UNL     1       1.983   3.608  21.178  0.00  0.00    +0.000 A 
ATOM     10  F   UNL     1       2.199   3.585  22.500  0.00  0.00    +0.000 F 
ATOM     11  C   UNL     1       2.836   4.351  20.364  0.00  0.00    +0.000 A 
ENDBRANCH   2   5
BRANCH   3  12
ATOM     12  C   UNL     1       5.398   5.135  16.518  0.00  0.00    +0.000 C 
ATOM     13  C   UNL     1       6.845   5.417  16.800  0.00  0.00    +0.000 C 
ATOM     14  C   UNL     1       6.484   4.283  15.872  0.00  0.00    +0.000 C 
BRANCH  14  15
ATOM     15  C   UNL     1       6.711   4.368  14.377  0.00  0.00    +0.000 A 
ATOM     16  C   UNL     1       6.152   3.429  13.484  0.00  0.00    +0.000 A 
ATOM     17  C   UNL     1       6.393   3.487  12.104  0.00  0.00    +0.000 A 
ATOM     18  C   UNL     1       7.211   4.481  11.584  0.00  0.00    +0.000 A 
ATOM     19  C   UNL     1       7.776   5.408  12.448  0.00  0.00    +0.000 A 
ATOM     20  F   UNL     1       8.569   6.368  11.954  0.00  0.00    +0.000 F 
ATOM     21  C   UNL     1       7.537   5.357  13.822  0.00  0.00    +0.000 A 
ENDBRANCH  14  15
ENDBRANCH   3  12
TORSDOF 3
ENDMDL
MODEL 9
REMARK VINA RESULT:      -7.7      1.418      1.555
REMARK  Name = 
REMARK  3 active torsions:
REMARK  status: ('A' for Active; 'I' for Inactive)
REMARK    1  A    between atoms: C_2  and  C_14
REMARK    2  A    between atoms: N_3  and  C_4
REMARK    3  A    between atoms: C_6  and  C_7
REMARK                            x       y       z     vdW  Elec       q    Type
REMARK                         _______ _______ _______ _____ _____    ______ ____
ROOT
ATOM      1  O   UNL     1       7.035   5.307  16.682  0.00  0.00    +0.000 OA
ATOM      2  C   UNL     1       6.156   5.045  15.875  0.00  0.00    +0.000 C 
ATOM      3  N   UNL     1       4.803   5.005  16.171  0.00  0.00    +0.000 N 
ATOM      4  H   UNL     1       4.178   4.587  15.491  0.00  0.00    +0.000 HD
ENDROOT
BRANCH   2   5
ATOM      5  C   UNL     1       6.516   4.708  14.462  0.00  0.00    +0.000 A 
ATOM      6  C   UNL     1       7.544   5.427  13.831  0.00  0.00    +0.000 A 
ATOM      7  C   UNL     1       7.882   5.160  12.501  0.00  0.00    +0.000 A 
ATOM      8  C   UNL     1       7.189   4.184  11.791  0.00  0.00    +0.000 A 
ATOM      9  C   UNL     1       6.167   3.479  12.416  0.00  0.00    +0.000 A 
ATOM     10  F   UNL     1       5.488   2.552  11.728  0.00  0.00    +0.000 F 
ATOM     11  C   UNL     1       5.823   3.726  13.743  0.00  0.00    +0.000 A 
ENDBRANCH   2   5
BRANCH   3  12
ATOM     12  C   UNL     1       4.275   5.208  17.489  0.00  0.00    +0.000 C 
ATOM     13  C   UNL     1       3.202   6.216  17.782  0.00  0.00    +0.000 C 
ATOM     14  C   UNL     1       2.857   4.747  17.805  0.00  0.00    +0.000 C 
BRANCH  14  15
ATOM     15  C   UNL     1       2.582   4.008  19.099  0.00  0.00    +0.000 A 
ATOM     16  C   UNL     1       1.358   4.141  19.786  0.00  0.00    +0.000 A 
ATOM     17  C   UNL     1       1.118   3.487  21.003  0.00  0.00    +0.000 A 
ATOM     18  C   UNL     1       2.106   2.691  21.569  0.00  0.00    +0.000 A 
ATOM     19  C   UNL     1       3.319   2.555  20.911  0.00  0.00    +0.000 A 
ATOM     20  F   UNL     1       4.278   1.792  21.453  0.00  0.00    +0.000 F 
ATOM     21  C   UNL     1       3.562   3.202  19.699  0.00  0.00    +0.000 A 
ENDBRANCH  14  15
ENDBRANCH   3  12
TORSDOF 3
ENDMDL
