MODEL 1
REMARK VINA RESULT:      -7.3      0.000      0.000
REMARK  Name = 
REMARK  10 active torsions:
REMARK  status: ('A' for Active; 'I' for Inactive)
REMARK    1  A    between atoms: C_1  and  C_2
REMARK    2  A    between atoms: C_2  and  C_3
REMARK    3  A    between atoms: C_9  and  C_10
REMARK    4  A    between atoms: C_10  and  C_11
REMARK    5  A    between atoms: C_14  and  O_15
REMARK    6  A    between atoms: O_15  and  C_16
REMARK    7  A    between atoms: C_17  and  O_18
REMARK    8  A    between atoms: O_18  and  C_19
REMARK    9  A    between atoms: N_21  and  C_22
REMARK   10  A    between atoms: N_21  and  C_23
REMARK                            x       y       z     vdW  Elec       q    Type
REMARK                         _______ _______ _______ _____ _____    ______ ____
ROOT
ATOM      1  C   UNL     1       2.864   3.745  19.429  0.00  0.00    +0.000 A 
ATOM      2  C   UNL     1       2.633   2.354  19.398  0.00  0.00    +0.000 A 
ATOM      3  C   UNL     1       3.126   1.563  18.370  0.00  0.00    +0.000 A 
ATOM      4  C   UNL     1       3.852   2.139  17.342  0.00  0.00    +0.000 A 
ATOM      5  C   UNL     1       4.116   3.513  17.333  0.00  0.00    +0.000 A 
ATOM      6  C   UNL     1       3.651   4.350  18.395  0.00  0.00    +0.000 A 
ATOM      7  C   UNL     1       4.040   5.852  18.399  0.00  0.00    +0.000 C 
ATOM      8  N   UNL     1       5.326   6.059  17.613  0.00  0.00    +0.000 N 
ATOM      9  C   UNL     1       6.454   5.354  18.298  0.00  0.00    +0.000 C 
ATOM     10  C   UNL     1       5.762   7.481  17.547  0.00  0.00    +0.000 C 
ATOM     11  C   UNL     1       5.139   5.549  16.228  0.00  0.00    +0.000 C 
ATOM     12  C   UNL     1       4.951   4.032  16.190  0.00  0.00    +0.000 C 
ENDROOT
BRANCH   1  14
ATOM     13  C   UNL     1       2.012   3.562  21.776  0.00  0.00    +0.000 C 
ATOM     14  C   UNL     1       2.255   4.505  20.591  0.00  0.00    +0.000 C 
ENDBRANCH   1  14
BRANCH   7  15
ATOM     15  C   UNL     1       2.763   6.653  17.927  0.00  0.00    +0.000 C 
BRANCH  15  16
ATOM     16  C   UNL     1       2.167   7.709  18.841  0.00  0.00    +0.000 A 
ATOM     17  C   UNL     1       1.914   7.453  20.198  0.00  0.00    +0.000 A 
ATOM     18  C   UNL     1       1.293   8.420  20.998  0.00  0.00    +0.000 A 
ATOM     19  C   UNL     1       0.944   9.681  20.459  0.00  0.00    +0.000 A 
ATOM     20  C   UNL     1       1.232   9.957  19.114  0.00  0.00    +0.000 A 
ATOM     21  C   UNL     1       1.795   8.951  18.309  0.00  0.00    +0.000 A 
BRANCH  19  22
ATOM     22  O   UNL     1       0.319  10.642  21.192  0.00  0.00    +0.000 OA
ATOM     23  C   UNL     1      -0.294  10.451  22.417  0.00  0.00    +0.000 C 
ENDBRANCH  19  22
BRANCH  20  24
ATOM     24  O   UNL     1       0.977  11.202  18.632  0.00  0.00    +0.000 OA
ATOM     25  C   UNL     1       1.911  12.217  18.517  0.00  0.00    +0.000 C 
ENDBRANCH  20  24
ENDBRANCH  15  16
ENDBRANCH   7  15
TORSDOF 5
ENDMDL
MODEL 2
REMARK VINA RESULT:      -7.2      0.901      1.854
REMARK  Name = 
REMARK  10 active torsions:
REMARK  status: ('A' for Active; 'I' for Inactive)
REMARK    1  A    between atoms: C_1  and  C_2
REMARK    2  A    between atoms: C_2  and  C_3
REMARK    3  A    between atoms: C_9  and  C_10
REMARK    4  A    between atoms: C_10  and  C_11
REMARK    5  A    between atoms: C_14  and  O_15
REMARK    6  A    between atoms: O_15  and  C_16
REMARK    7  A    between atoms: C_17  and  O_18
REMARK    8  A    between atoms: O_18  and  C_19
REMARK    9  A    between atoms: N_21  and  C_22
REMARK   10  A    between atoms: N_21  and  C_23
REMARK                            x       y       z     vdW  Elec       q    Type
REMARK                         _______ _______ _______ _____ _____    ______ ____
ROOT
ATOM      1  C   UNL     1       2.975   3.651  19.533  0.00  0.00    +0.000 A 
ATOM      2  C   UNL     1       2.877   2.246  19.601  0.00  0.00    +0.000 A 
ATOM      3  C   UNL     1       3.460   1.434  18.639  0.00  0.00    +0.000 A 
ATOM      4  C   UNL     1       4.146   2.002  17.578  0.00  0.00    +0.000 A 
ATOM      5  C   UNL     1       4.279   3.391  17.472  0.00  0.00    +0.000 A 
ATOM      6  C   UNL     1       3.718   4.253  18.465  0.00  0.00    +0.000 A 
ATOM      7  C   UNL     1       3.963   5.782  18.364  0.00  0.00    +0.000 C 
ATOM      8  N   UNL     1       5.237   6.055  17.578  0.00  0.00    +0.000 N 
ATOM      9  C   UNL     1       6.415   5.511  18.323  0.00  0.00    +0.000 C 
ATOM     10  C   UNL     1       5.537   7.503  17.412  0.00  0.00    +0.000 C 
ATOM     11  C   UNL     1       5.122   5.431  16.232  0.00  0.00    +0.000 C 
ATOM     12  C   UNL     1       5.079   3.904  16.303  0.00  0.00    +0.000 C 
ENDROOT
BRANCH   1  14
ATOM     13  C   UNL     1       0.756   4.292  20.497  0.00  0.00    +0.000 C 
ATOM     14  C   UNL     1       2.277   4.430  20.630  0.00  0.00    +0.000 C 
ENDBRANCH   1  14
BRANCH   7  15
ATOM     15  C   UNL     1       2.624   6.421  17.822  0.00  0.00    +0.000 C 
BRANCH  15  16
ATOM     16  C   UNL     1       2.122   7.721  18.426  0.00  0.00    +0.000 A 
ATOM     17  C   UNL     1       2.008   8.894  17.662  0.00  0.00    +0.000 A 
ATOM     18  C   UNL     1       1.617  10.096  18.264  0.00  0.00    +0.000 A 
ATOM     19  C   UNL     1       1.295  10.137  19.643  0.00  0.00    +0.000 A 
ATOM     20  C   UNL     1       1.367   8.959  20.400  0.00  0.00    +0.000 A 
ATOM     21  C   UNL     1       1.826   7.776  19.794  0.00  0.00    +0.000 A 
BRANCH  19  22
ATOM     22  O   UNL     1       0.932  11.286  20.274  0.00  0.00    +0.000 OA
ATOM     23  C   UNL     1      -0.149  12.083  19.943  0.00  0.00    +0.000 C 
ENDBRANCH  19  22
BRANCH  20  24
ATOM     24  O   UNL     1       0.967   8.991  21.699  0.00  0.00    +0.000 OA
ATOM     25  C   UNL     1      -0.317   8.726  22.143  0.00  0.00    +0.000 C 
ENDBRANCH  20  24
ENDBRANCH  15  16
ENDBRANCH   7  15
TORSDOF 5
ENDMDL
MODEL 3
REMARK VINA RESULT:      -7.1      3.732      8.435
REMARK  Name = 
REMARK  10 active torsions:
REMARK  status: ('A' for Active; 'I' for Inactive)
REMARK    1  A    between atoms: C_1  and  C_2
REMARK    2  A    between atoms: C_2  and  C_3
REMARK    3  A    between atoms: C_9  and  C_10
REMARK    4  A    between atoms: C_10  and  C_11
REMARK    5  A    between atoms: C_14  and  O_15
REMARK    6  A    between atoms: O_15  and  C_16
REMARK    7  A    between atoms: C_17  and  O_18
REMARK    8  A    between atoms: O_18  and  C_19
REMARK    9  A    between atoms: N_21  and  C_22
REMARK   10  A    between atoms: N_21  and  C_23
REMARK                            x       y       z     vdW  Elec       q    Type
REMARK                         _______ _______ _______ _____ _____    ______ ____
ROOT
ATOM      1  C   UNL     1      -2.534  10.973  18.267  0.00  0.00    +0.000 A 
ATOM      2  C   UNL     1      -3.924  11.159  18.122  0.00  0.00    +0.000 A 
ATOM      3  C   UNL     1      -4.633  11.998  18.970  0.00  0.00    +0.000 A 
ATOM      4  C   UNL     1      -3.977  12.664  19.991  0.00  0.00    +0.000 A 
ATOM      5  C   UNL     1      -2.597  12.520  20.169  0.00  0.00    +0.000 A 
ATOM      6  C   UNL     1      -1.833  11.690  19.291  0.00  0.00    +0.000 A 
ATOM      7  C   UNL     1      -0.291  11.625  19.463  0.00  0.00    +0.000 C 
ATOM      8  N   UNL     1       0.211  12.894  20.136  0.00  0.00    +0.000 N 
ATOM      9  C   UNL     1      -0.041  14.070  19.246  0.00  0.00    +0.000 C 
ATOM     10  C   UNL     1       1.683  12.907  20.361  0.00  0.00    +0.000 C 
ATOM     11  C   UNL     1      -0.476  13.057  21.445  0.00  0.00    +0.000 C 
ATOM     12  C   UNL     1      -1.974  13.321  21.284  0.00  0.00    +0.000 C 
ENDROOT
BRANCH   1  14
ATOM     13  C   UNL     1      -2.752   9.834  16.049  0.00  0.00    +0.000 C 
ATOM     14  C   UNL     1      -1.875  10.016  17.294  0.00  0.00    +0.000 C 
ENDBRANCH   1  14
BRANCH   7  15
ATOM     15  C   UNL     1       0.029  10.251  20.173  0.00  0.00    +0.000 C 
BRANCH  15  16
ATOM     16  C   UNL     1       1.009   9.289  19.524  0.00  0.00    +0.000 A 
ATOM     17  C   UNL     1       1.523   9.516  18.237  0.00  0.00    +0.000 A 
ATOM     18  C   UNL     1       2.364   8.573  17.633  0.00  0.00    +0.000 A 
ATOM     19  C   UNL     1       2.738   7.397  18.327  0.00  0.00    +0.000 A 
ATOM     20  C   UNL     1       2.261   7.186  19.629  0.00  0.00    +0.000 A 
ATOM     21  C   UNL     1       1.365   8.111  20.193  0.00  0.00    +0.000 A 
BRANCH  19  22
ATOM     22  O   UNL     1       3.534   6.443  17.772  0.00  0.00    +0.000 OA
ATOM     23  C   UNL     1       4.770   6.660  17.192  0.00  0.00    +0.000 C 
ENDBRANCH  19  22
BRANCH  20  24
ATOM     24  O   UNL     1       2.700   6.101  20.319  0.00  0.00    +0.000 OA
ATOM     25  C   UNL     1       1.923   5.009  20.664  0.00  0.00    +0.000 C 
ENDBRANCH  20  24
ENDBRANCH  15  16
ENDBRANCH   7  15
TORSDOF 5
ENDMDL
MODEL 4
REMARK VINA RESULT:      -6.7      3.439      6.710
REMARK  Name = 
REMARK  10 active torsions:
REMARK  status: ('A' for Active; 'I' for Inactive)
REMARK    1  A    between atoms: C_1  and  C_2
REMARK    2  A    between atoms: C_2  and  C_3
REMARK    3  A    between atoms: C_9  and  C_10
REMARK    4  A    between atoms: C_10  and  C_11
REMARK    5  A    between atoms: C_14  and  O_15
REMARK    6  A    between atoms: O_15  and  C_16
REMARK    7  A    between atoms: C_17  and  O_18
REMARK    8  A    between atoms: O_18  and  C_19
REMARK    9  A    between atoms: N_21  and  C_22
REMARK   10  A    between atoms: N_21  and  C_23
REMARK                            x       y       z     vdW  Elec       q    Type
REMARK                         _______ _______ _______ _____ _____    ______ ____
ROOT
ATOM      1  C   UNL     1       3.049   5.991  19.340  0.00  0.00    +0.000 A 
ATOM      2  C   UNL     1       2.158   6.826  20.044  0.00  0.00    +0.000 A 
ATOM      3  C   UNL     1       1.021   6.318  20.655  0.00  0.00    +0.000 A 
ATOM      4  C   UNL     1       0.737   4.965  20.572  0.00  0.00    +0.000 A 
ATOM      5  C   UNL     1       1.596   4.093  19.893  0.00  0.00    +0.000 A 
ATOM      6  C   UNL     1       2.793   4.581  19.281  0.00  0.00    +0.000 A 
ATOM      7  C   UNL     1       3.766   3.573  18.616  0.00  0.00    +0.000 C 
ATOM      8  N   UNL     1       3.593   2.194  19.236  0.00  0.00    +0.000 N 
ATOM      9  C   UNL     1       3.988   2.237  20.679  0.00  0.00    +0.000 C 
ATOM     10  C   UNL     1       4.477   1.156  18.639  0.00  0.00    +0.000 C 
ATOM     11  C   UNL     1       2.176   1.766  19.083  0.00  0.00    +0.000 C 
ATOM     12  C   UNL     1       1.217   2.635  19.897  0.00  0.00    +0.000 C 
ENDROOT
BRANCH   1  14
ATOM     13  C   UNL     1       3.783   7.606  17.574  0.00  0.00    +0.000 C 
ATOM     14  C   UNL     1       4.243   6.666  18.696  0.00  0.00    +0.000 C 
ENDBRANCH   1  14
BRANCH   7  15
ATOM     15  C   UNL     1       3.555   3.699  17.055  0.00  0.00    +0.000 C 
BRANCH  15  16
ATOM     16  C   UNL     1       4.699   4.193  16.187  0.00  0.00    +0.000 A 
ATOM     17  C   UNL     1       4.793   3.854  14.828  0.00  0.00    +0.000 A 
ATOM     18  C   UNL     1       5.900   4.259  14.071  0.00  0.00    +0.000 A 
ATOM     19  C   UNL     1       6.919   5.048  14.657  0.00  0.00    +0.000 A 
ATOM     20  C   UNL     1       6.809   5.424  16.004  0.00  0.00    +0.000 A 
ATOM     21  C   UNL     1       5.725   4.952  16.765  0.00  0.00    +0.000 A 
BRANCH  19  22
ATOM     22  O   UNL     1       8.022   5.445  13.967  0.00  0.00    +0.000 OA
ATOM     23  C   UNL     1       8.144   5.483  12.590  0.00  0.00    +0.000 C 
ENDBRANCH  19  22
BRANCH  20  24
ATOM     24  O   UNL     1       7.745   6.256  16.529  0.00  0.00    +0.000 OA
ATOM     25  C   UNL     1       7.589   7.002  17.685  0.00  0.00    +0.000 C 
ENDBRANCH  20  24
ENDBRANCH  15  16
ENDBRANCH   7  15
TORSDOF 5
ENDMDL
MODEL 5
REMARK VINA RESULT:      -6.2      9.318     10.527
REMARK  Name = 
REMARK  10 active torsions:
REMARK  status: ('A' for Active; 'I' for Inactive)
REMARK    1  A    between atoms: C_1  and  C_2
REMARK    2  A    between atoms: C_2  and  C_3
REMARK    3  A    between atoms: C_9  and  C_10
REMARK    4  A    between atoms: C_10  and  C_11
REMARK    5  A    between atoms: C_14  and  O_15
REMARK    6  A    between atoms: O_15  and  C_16
REMARK    7  A    between atoms: C_17  and  O_18
REMARK    8  A    between atoms: O_18  and  C_19
REMARK    9  A    between atoms: N_21  and  C_22
REMARK   10  A    between atoms: N_21  and  C_23
REMARK                            x       y       z     vdW  Elec       q    Type
REMARK                         _______ _______ _______ _____ _____    ______ ____
ROOT
ATOM      1  C   UNL     1       9.431  13.187  20.298  0.00  0.00    +0.000 A 
ATOM      2  C   UNL     1       9.977  11.992  20.810  0.00  0.00    +0.000 A 
ATOM      3  C   UNL     1      11.121  11.428  20.264  0.00  0.00    +0.000 A 
ATOM      4  C   UNL     1      11.745  12.034  19.187  0.00  0.00    +0.000 A 
ATOM      5  C   UNL     1      11.247  13.226  18.649  0.00  0.00    +0.000 A 
ATOM      6  C   UNL     1      10.090  13.850  19.211  0.00  0.00    +0.000 A 
ATOM      7  C   UNL     1       9.620  15.218  18.647  0.00  0.00    +0.000 C 
ATOM      8  N   UNL     1      10.792  15.948  18.008  0.00  0.00    +0.000 N 
ATOM      9  C   UNL     1      11.812  16.276  19.052  0.00  0.00    +0.000 C 
ATOM     10  C   UNL     1      10.425  17.265  17.420  0.00  0.00    +0.000 C 
ATOM     11  C   UNL     1      11.376  15.091  16.941  0.00  0.00    +0.000 C 
ATOM     12  C   UNL     1      12.023  13.826  17.505  0.00  0.00    +0.000 C 
ENDROOT
BRANCH   1  14
ATOM     13  C   UNL     1       8.511  14.457  22.249  0.00  0.00    +0.000 C 
ATOM     14  C   UNL     1       8.168  13.692  20.964  0.00  0.00    +0.000 C 
ENDBRANCH   1  14
BRANCH   7  15
ATOM     15  C   UNL     1       8.362  14.927  17.738  0.00  0.00    +0.000 C 
BRANCH  15  16
ATOM     16  C   UNL     1       7.007  15.480  18.142  0.00  0.00    +0.000 A 
ATOM     17  C   UNL     1       5.812  14.814  17.825  0.00  0.00    +0.000 A 
ATOM     18  C   UNL     1       4.575  15.387  18.143  0.00  0.00    +0.000 A 
ATOM     19  C   UNL     1       4.512  16.628  18.822  0.00  0.00    +0.000 A 
ATOM     20  C   UNL     1       5.703  17.277  19.179  0.00  0.00    +0.000 A 
ATOM     21  C   UNL     1       6.935  16.719  18.792  0.00  0.00    +0.000 A 
BRANCH  19  22
ATOM     22  O   UNL     1       3.333  17.232  19.131  0.00  0.00    +0.000 OA
ATOM     23  C   UNL     1       2.145  17.085  18.439  0.00  0.00    +0.000 C 
ENDBRANCH  19  22
BRANCH  20  24
ATOM     24  O   UNL     1       5.631  18.419  19.911  0.00  0.00    +0.000 OA
ATOM     25  C   UNL     1       5.600  18.478  21.293  0.00  0.00    +0.000 C 
ENDBRANCH  20  24
ENDBRANCH  15  16
ENDBRANCH   7  15
TORSDOF 5
ENDMDL
MODEL 6
REMARK VINA RESULT:      -6.2      1.521      2.807
REMARK  Name = 
REMARK  10 active torsions:
REMARK  status: ('A' for Active; 'I' for Inactive)
REMARK    1  A    between atoms: C_1  and  C_2
REMARK    2  A    between atoms: C_2  and  C_3
REMARK    3  A    between atoms: C_9  and  C_10
REMARK    4  A    between atoms: C_10  and  C_11
REMARK    5  A    between atoms: C_14  and  O_15
REMARK    6  A    between atoms: O_15  and  C_16
REMARK    7  A    between atoms: C_17  and  O_18
REMARK    8  A    between atoms: O_18  and  C_19
REMARK    9  A    between atoms: N_21  and  C_22
REMARK   10  A    between atoms: N_21  and  C_23
REMARK                            x       y       z     vdW  Elec       q    Type
REMARK                         _______ _______ _______ _____ _____    ______ ____
ROOT
ATOM      1  C   UNL     1       1.922   6.291  20.162  0.00  0.00    +0.000 A 
ATOM      2  C   UNL     1       1.254   5.306  20.918  0.00  0.00    +0.000 A 
ATOM      3  C   UNL     1       1.356   3.959  20.599  0.00  0.00    +0.000 A 
ATOM      4  C   UNL     1       2.117   3.561  19.514  0.00  0.00    +0.000 A 
ATOM      5  C   UNL     1       2.806   4.500  18.739  0.00  0.00    +0.000 A 
ATOM      6  C   UNL     1       2.749   5.892  19.061  0.00  0.00    +0.000 A 
ATOM      7  C   UNL     1       3.599   6.895  18.236  0.00  0.00    +0.000 C 
ATOM      8  N   UNL     1       4.793   6.182  17.620  0.00  0.00    +0.000 N 
ATOM      9  C   UNL     1       5.700   5.689  18.703  0.00  0.00    +0.000 C 
ATOM     10  C   UNL     1       5.653   7.068  16.789  0.00  0.00    +0.000 C 
ATOM     11  C   UNL     1       4.307   5.056  16.777  0.00  0.00    +0.000 C 
ATOM     12  C   UNL     1       3.639   3.959  17.605  0.00  0.00    +0.000 C 
ENDROOT
BRANCH   1  14
ATOM     13  C   UNL     1       0.411   7.864  21.390  0.00  0.00    +0.000 C 
ATOM     14  C   UNL     1       1.715   7.729  20.594  0.00  0.00    +0.000 C 
ENDBRANCH   1  14
BRANCH   7  15
ATOM     15  C   UNL     1       2.605   7.630  17.252  0.00  0.00    +0.000 C 
BRANCH  15  16
ATOM     16  C   UNL     1       1.923   8.910  17.703  0.00  0.00    +0.000 A 
ATOM     17  C   UNL     1       2.658  10.058  18.039  0.00  0.00    +0.000 A 
ATOM     18  C   UNL     1       2.007  11.199  18.525  0.00  0.00    +0.000 A 
ATOM     19  C   UNL     1       0.597  11.222  18.649  0.00  0.00    +0.000 A 
ATOM     20  C   UNL     1      -0.145  10.092  18.275  0.00  0.00    +0.000 A 
ATOM     21  C   UNL     1       0.530   8.933  17.853  0.00  0.00    +0.000 A 
BRANCH  19  22
ATOM     22  O   UNL     1      -0.076  12.299  19.138  0.00  0.00    +0.000 OA
ATOM     23  C   UNL     1      -0.300  13.485  18.464  0.00  0.00    +0.000 C 
ENDBRANCH  19  22
BRANCH  20  24
ATOM     24  O   UNL     1      -1.502  10.158  18.312  0.00  0.00    +0.000 OA
ATOM     25  C   UNL     1      -2.330  10.133  17.203  0.00  0.00    +0.000 C 
ENDBRANCH  20  24
ENDBRANCH  15  16
ENDBRANCH   7  15
TORSDOF 5
ENDMDL
MODEL 7
REMARK VINA RESULT:      -6.2      3.075      7.935
REMARK  Name = 
REMARK  10 active torsions:
REMARK  status: ('A' for Active; 'I' for Inactive)
REMARK    1  A    between atoms: C_1  and  C_2
REMARK    2  A    between atoms: C_2  and  C_3
REMARK    3  A    between atoms: C_9  and  C_10
REMARK    4  A    between atoms: C_10  and  C_11
REMARK    5  A    between atoms: C_14  and  O_15
REMARK    6  A    between atoms: O_15  and  C_16
REMARK    7  A    between atoms: C_17  and  O_18
REMARK    8  A    between atoms: O_18  and  C_19
REMARK    9  A    between atoms: N_21  and  C_22
REMARK   10  A    between atoms: N_21  and  C_23
REMARK                            x       y       z     vdW  Elec       q    Type
REMARK                         _______ _______ _______ _____ _____    ______ ____
ROOT
ATOM      1  C   UNL     1      -0.870  10.511  22.147  0.00  0.00    +0.000 A 
ATOM      2  C   UNL     1      -1.329  11.312  23.213  0.00  0.00    +0.000 A 
ATOM      3  C   UNL     1      -1.870  12.570  22.990  0.00  0.00    +0.000 A 
ATOM      4  C   UNL     1      -1.958  13.067  21.700  0.00  0.00    +0.000 A 
ATOM      5  C   UNL     1      -1.525  12.306  20.609  0.00  0.00    +0.000 A 
ATOM      6  C   UNL     1      -0.994  10.992  20.802  0.00  0.00    +0.000 A 
ATOM      7  C   UNL     1      -0.609  10.143  19.562  0.00  0.00    +0.000 C 
ATOM      8  N   UNL     1      -1.405  10.601  18.349  0.00  0.00    +0.000 N 
ATOM      9  C   UNL     1      -2.861  10.341  18.573  0.00  0.00    +0.000 C 
ATOM     10  C   UNL     1      -1.080   9.851  17.105  0.00  0.00    +0.000 C 
ATOM     11  C   UNL     1      -1.150  12.049  18.118  0.00  0.00    +0.000 C 
ATOM     12  C   UNL     1      -1.703  12.921  19.244  0.00  0.00    +0.000 C 
ENDROOT
BRANCH   1  14
ATOM     13  C   UNL     1       1.126   9.346  23.108  0.00  0.00    +0.000 C 
ATOM     14  C   UNL     1      -0.279   9.166  22.519  0.00  0.00    +0.000 C 
ENDBRANCH   1  14
BRANCH   7  15
ATOM     15  C   UNL     1       0.967  10.183  19.455  0.00  0.00    +0.000 C 
BRANCH  15  16
ATOM     16  C   UNL     1       1.719   8.920  19.078  0.00  0.00    +0.000 A 
ATOM     17  C   UNL     1       2.417   8.811  17.864  0.00  0.00    +0.000 A 
ATOM     18  C   UNL     1       3.037   7.606  17.508  0.00  0.00    +0.000 A 
ATOM     19  C   UNL     1       3.000   6.495  18.384  0.00  0.00    +0.000 A 
ATOM     20  C   UNL     1       2.341   6.612  19.616  0.00  0.00    +0.000 A 
ATOM     21  C   UNL     1       1.667   7.806  19.927  0.00  0.00    +0.000 A 
BRANCH  19  22
ATOM     22  O   UNL     1       3.568   5.299  18.070  0.00  0.00    +0.000 OA
ATOM     23  C   UNL     1       4.347   5.042  16.956  0.00  0.00    +0.000 C 
ENDBRANCH  19  22
BRANCH  20  24
ATOM     24  O   UNL     1       2.391   5.569  20.487  0.00  0.00    +0.000 OA
ATOM     25  C   UNL     1       1.397   4.620  20.650  0.00  0.00    +0.000 C 
ENDBRANCH  20  24
ENDBRANCH  15  16
ENDBRANCH   7  15
TORSDOF 5
ENDMDL
MODEL 8
REMARK VINA RESULT:      -6.1      8.224     10.468
REMARK  Name = 
REMARK  10 active torsions:
REMARK  status: ('A' for Active; 'I' for Inactive)
REMARK    1  A    between atoms: C_1  and  C_2
REMARK    2  A    between atoms: C_2  and  C_3
REMARK    3  A    between atoms: C_9  and  C_10
REMARK    4  A    between atoms: C_10  and  C_11
REMARK    5  A    between atoms: C_14  and  O_15
REMARK    6  A    between atoms: O_15  and  C_16
REMARK    7  A    between atoms: C_17  and  O_18
REMARK    8  A    between atoms: O_18  and  C_19
REMARK    9  A    between atoms: N_21  and  C_22
REMARK   10  A    between atoms: N_21  and  C_23
REMARK                            x       y       z     vdW  Elec       q    Type
REMARK                         _______ _______ _______ _____ _____    ______ ____
ROOT
ATOM      1  C   UNL     1      10.752  12.714  19.205  0.00  0.00    +0.000 A 
ATOM      2  C   UNL     1      11.500  12.117  18.170  0.00  0.00    +0.000 A 
ATOM      3  C   UNL     1      11.814  12.812  17.011  0.00  0.00    +0.000 A 
ATOM      4  C   UNL     1      11.380  14.117  16.849  0.00  0.00    +0.000 A 
ATOM      5  C   UNL     1      10.642  14.756  17.851  0.00  0.00    +0.000 A 
ATOM      6  C   UNL     1      10.333  14.078  19.071  0.00  0.00    +0.000 A 
ATOM      7  C   UNL     1       9.592  14.849  20.197  0.00  0.00    +0.000 C 
ATOM      8  N   UNL     1       9.845  16.343  20.059  0.00  0.00    +0.000 N 
ATOM      9  C   UNL     1      11.298  16.629  20.269  0.00  0.00    +0.000 C 
ATOM     10  C   UNL     1       9.151  17.163  21.089  0.00  0.00    +0.000 C 
ATOM     11  C   UNL     1       9.402  16.790  18.711  0.00  0.00    +0.000 C 
ATOM     12  C   UNL     1      10.254  16.190  17.593  0.00  0.00    +0.000 C 
ENDROOT
BRANCH   1  14
ATOM     13  C   UNL     1       9.388  10.800  20.065  0.00  0.00    +0.000 C 
ATOM     14  C   UNL     1      10.454  11.846  20.411  0.00  0.00    +0.000 C 
ENDBRANCH   1  14
BRANCH   7  15
ATOM     15  C   UNL     1       8.090  14.360  20.170  0.00  0.00    +0.000 C 
BRANCH  15  16
ATOM     16  C   UNL     1       7.366  14.106  21.480  0.00  0.00    +0.000 A 
ATOM     17  C   UNL     1       7.996  13.465  22.559  0.00  0.00    +0.000 A 
ATOM     18  C   UNL     1       7.281  13.175  23.727  0.00  0.00    +0.000 A 
ATOM     19  C   UNL     1       5.923  13.557  23.850  0.00  0.00    +0.000 A 
ATOM     20  C   UNL     1       5.301  14.235  22.791  0.00  0.00    +0.000 A 
ATOM     21  C   UNL     1       6.016  14.458  21.601  0.00  0.00    +0.000 A 
BRANCH  19  22
ATOM     22  O   UNL     1       5.183  13.276  24.956  0.00  0.00    +0.000 OA
ATOM     23  C   UNL     1       5.636  12.620  26.086  0.00  0.00    +0.000 C 
ENDBRANCH  19  22
BRANCH  20  24
ATOM     24  O   UNL     1       4.027  14.678  22.957  0.00  0.00    +0.000 OA
ATOM     25  C   UNL     1       3.101  14.834  21.940  0.00  0.00    +0.000 C 
ENDBRANCH  20  24
ENDBRANCH  15  16
ENDBRANCH   7  15
TORSDOF 5
ENDMDL
MODEL 9
REMARK VINA RESULT:      -6.0      4.041      7.203
REMARK  Name = 
REMARK  10 active torsions:
REMARK  status: ('A' for Active; 'I' for Inactive)
REMARK    1  A    between atoms: C_1  and  C_2
REMARK    2  A    between atoms: C_2  and  C_3
REMARK    3  A    between atoms: C_9  and  C_10
REMARK    4  A    between atoms: C_10  and  C_11
REMARK    5  A    between atoms: C_14  and  O_15
REMARK    6  A    between atoms: O_15  and  C_16
REMARK    7  A    between atoms: C_17  and  O_18
REMARK    8  A    between atoms: O_18  and  C_19
REMARK    9  A    between atoms: N_21  and  C_22
REMARK   10  A    between atoms: N_21  and  C_23
REMARK                            x       y       z     vdW  Elec       q    Type
REMARK                         _______ _______ _______ _____ _____    ______ ____
ROOT
ATOM      1  C   UNL     1       3.389   5.960  19.084  0.00  0.00    +0.000 A 
ATOM      2  C   UNL     1       2.596   6.864  19.821  0.00  0.00    +0.000 A 
ATOM      3  C   UNL     1       1.450   6.446  20.483  0.00  0.00    +0.000 A 
ATOM      4  C   UNL     1       1.059   5.120  20.419  0.00  0.00    +0.000 A 
ATOM      5  C   UNL     1       1.818   4.183  19.709  0.00  0.00    +0.000 A 
ATOM      6  C   UNL     1       3.022   4.575  19.044  0.00  0.00    +0.000 A 
ATOM      7  C   UNL     1       3.885   3.492  18.343  0.00  0.00    +0.000 C 
ATOM      8  N   UNL     1       3.632   2.133  18.977  0.00  0.00    +0.000 N 
ATOM      9  C   UNL     1       4.090   2.148  20.401  0.00  0.00    +0.000 C 
ATOM     10  C   UNL     1       4.406   1.028  18.349  0.00  0.00    +0.000 C 
ATOM     11  C   UNL     1       2.181   1.815  18.887  0.00  0.00    +0.000 C 
ATOM     12  C   UNL     1       1.328   2.758  19.736  0.00  0.00    +0.000 C 
ENDROOT
BRANCH   1  14
ATOM     13  C   UNL     1       4.174   7.367  17.168  0.00  0.00    +0.000 C 
ATOM     14  C   UNL     1       4.603   6.540  18.387  0.00  0.00    +0.000 C 
ENDBRANCH   1  14
BRANCH   7  15
ATOM     15  C   UNL     1       3.618   3.632  16.792  0.00  0.00    +0.000 C 
BRANCH  15  16
ATOM     16  C   UNL     1       4.787   3.873  15.855  0.00  0.00    +0.000 A 
ATOM     17  C   UNL     1       6.041   4.289  16.330  0.00  0.00    +0.000 A 
ATOM     18  C   UNL     1       7.078   4.579  15.435  0.00  0.00    +0.000 A 
ATOM     19  C   UNL     1       6.888   4.421  14.041  0.00  0.00    +0.000 A 
ATOM     20  C   UNL     1       5.650   3.966  13.564  0.00  0.00    +0.000 A 
ATOM     21  C   UNL     1       4.600   3.744  14.472  0.00  0.00    +0.000 A 
BRANCH  19  22
ATOM     22  O   UNL     1       7.859   4.712  13.134  0.00  0.00    +0.000 OA
ATOM     23  C   UNL     1       8.471   5.942  12.972  0.00  0.00    +0.000 C 
ENDBRANCH  19  22
BRANCH  20  24
ATOM     24  O   UNL     1       5.509   3.730  12.233  0.00  0.00    +0.000 OA
ATOM     25  C   UNL     1       4.411   3.129  11.643  0.00  0.00    +0.000 C 
ENDBRANCH  20  24
ENDBRANCH  15  16
ENDBRANCH   7  15
TORSDOF 5
ENDMDL
