MODEL 1
REMARK VINA RESULT:      -8.1      0.000      0.000
REMARK  Name = 
REMARK  12 active torsions:
REMARK  status: ('A' for Active; 'I' for Inactive)
REMARK    1  A    between atoms: C_1  and  N_2
REMARK    2  A    between atoms: N_2  and  C_3
REMARK    3  A    between atoms: N_2  and  C_4
REMARK    4  A    between atoms: C_4  and  C_5
REMARK    5  A    between atoms: C_5  and  C_6
REMARK    6  A    between atoms: C_6  and  N_7
REMARK    7  A    between atoms: N_7  and  C_8
REMARK    8  A    between atoms: C_11  and  O_12
REMARK    9  A    between atoms: O_12  and  C_13
REMARK   10  A    between atoms: C_16  and  N_17
REMARK   11  A    between atoms: C_25  and  C_26
REMARK   12  A    between atoms: C_26  and  C_27
REMARK                            x       y       z     vdW  Elec       q    Type
REMARK                         _______ _______ _______ _____ _____    ______ ____
ROOT
ATOM      1  N   UNL     1       3.048   6.376  18.698  0.00  0.00    +0.000 N 
ATOM      2  C   UNL     1       3.389   5.439  19.758  0.00  0.00    +0.000 C 
ATOM      3  C   UNL     1       2.235   7.447  19.067  0.00  0.00    +0.000 A 
ATOM      4  C   UNL     1       1.745   8.330  18.128  0.00  0.00    +0.000 A 
ATOM      5  C   UNL     1       0.950   9.351  18.585  0.00  0.00    +0.000 A 
ATOM      6  N   UNL     1       0.662   9.556  19.879  0.00  0.00    +0.000 NA
ATOM      7  C   UNL     1       1.137   8.640  20.732  0.00  0.00    +0.000 A 
ATOM      8  N   UNL     1       1.903   7.590  20.370  0.00  0.00    +0.000 NA
ENDROOT
BRANCH   1   9
ATOM      9  C   UNL     1       3.944   6.469  17.538  0.00  0.00    +0.000 C 
BRANCH   9  10
ATOM     10  C   UNL     1       5.414   6.238  17.908  0.00  0.00    +0.000 C 
BRANCH  10  11
ATOM     11  C   UNL     1       6.376   6.722  16.812  0.00  0.00    +0.000 C 
BRANCH  11  13
ATOM     12  C   UNL     1       7.546   4.608  17.169  0.00  0.00    +0.000 C 
ATOM     13  N   UNL     1       7.196   5.655  16.207  0.00  0.00    +0.000 NA
ATOM     14  C   UNL     1       6.488   5.053  15.072  0.00  0.00    +0.000 C 
ENDBRANCH  11  13
ENDBRANCH  10  11
ENDBRANCH   9  10
ENDBRANCH   1   9
BRANCH   5  15
ATOM     15  O   UNL     1       0.427  10.212  17.629  0.00  0.00    +0.000 OA
BRANCH  15  16
ATOM     16  C   UNL     1      -0.926  10.467  17.675  0.00  0.00    +0.000 A 
ATOM     17  C   UNL     1      -1.329  11.584  18.405  0.00  0.00    +0.000 A 
ATOM     18  C   UNL     1      -2.686  11.920  18.491  0.00  0.00    +0.000 A 
ATOM     19  C   UNL     1      -3.652  11.131  17.848  0.00  0.00    +0.000 A 
ATOM     20  C   UNL     1      -3.237  10.025  17.098  0.00  0.00    +0.000 A 
ATOM     21  C   UNL     1      -1.883   9.716  16.990  0.00  0.00    +0.000 A 
BRANCH  19  22
ATOM     22  N   UNL     1      -5.038  11.450  17.938  0.00  0.00    +0.000 N 
ATOM     23  C   UNL     1      -5.958  10.949  18.834  0.00  0.00    +0.000 A 
ATOM     24  C   UNL     1      -7.146  11.588  18.560  0.00  0.00    +0.000 A 
ATOM     25  N   UNL     1      -7.003  12.452  17.516  0.00  0.00    +0.000 NA
ATOM     26  C   UNL     1      -5.736  12.348  17.159  0.00  0.00    +0.000 A 
ENDBRANCH  19  22
ENDBRANCH  15  16
ENDBRANCH   5  15
BRANCH   7  27
ATOM     27  C   UNL     1       0.858   8.859  22.209  0.00  0.00    +0.000 C 
BRANCH  27  28
ATOM     28  C   UNL     1       0.256  10.229  22.433  0.00  0.00    +0.000 A 
ATOM     29  C   UNL     1       0.731  11.340  21.696  0.00  0.00    +0.000 A 
ATOM     30  C   UNL     1      -0.032  12.505  21.591  0.00  0.00    +0.000 A 
ATOM     31  C   UNL     1      -1.268  12.500  22.195  0.00  0.00    +0.000 A 
ATOM     32  C   UNL     1      -1.692  11.456  22.988  0.00  0.00    +0.000 A 
ATOM     33  C   UNL     1      -0.934  10.327  23.174  0.00  0.00    +0.000 A 
ATOM     34  O   UNL     1      -2.984  11.610  23.393  0.00  0.00    +0.000 OA
ATOM     35  C   UNL     1      -3.384  12.634  22.462  0.00  0.00    +0.000 C 
ATOM     36  O   UNL     1      -2.262  13.412  21.992  0.00  0.00    +0.000 OA
ENDBRANCH  27  28
ENDBRANCH   7  27
TORSDOF 9
ENDMDL
MODEL 2
REMARK VINA RESULT:      -8.0      2.891      8.333
REMARK  Name = 
REMARK  12 active torsions:
REMARK  status: ('A' for Active; 'I' for Inactive)
REMARK    1  A    between atoms: C_1  and  N_2
REMARK    2  A    between atoms: N_2  and  C_3
REMARK    3  A    between atoms: N_2  and  C_4
REMARK    4  A    between atoms: C_4  and  C_5
REMARK    5  A    between atoms: C_5  and  C_6
REMARK    6  A    between atoms: C_6  and  N_7
REMARK    7  A    between atoms: N_7  and  C_8
REMARK    8  A    between atoms: C_11  and  O_12
REMARK    9  A    between atoms: O_12  and  C_13
REMARK   10  A    between atoms: C_16  and  N_17
REMARK   11  A    between atoms: C_25  and  C_26
REMARK   12  A    between atoms: C_26  and  C_27
REMARK                            x       y       z     vdW  Elec       q    Type
REMARK                         _______ _______ _______ _____ _____    ______ ____
ROOT
ATOM      1  N   UNL     1      -2.337  10.545  17.960  0.00  0.00    +0.000 N 
ATOM      2  C   UNL     1      -2.376   9.853  16.679  0.00  0.00    +0.000 C 
ATOM      3  C   UNL     1      -1.158  10.410  18.692  0.00  0.00    +0.000 A 
ATOM      4  C   UNL     1      -1.049  10.916  19.971  0.00  0.00    +0.000 A 
ATOM      5  C   UNL     1       0.149  10.732  20.614  0.00  0.00    +0.000 A 
ATOM      6  N   UNL     1       1.214  10.131  20.062  0.00  0.00    +0.000 NA
ATOM      7  C   UNL     1       1.026   9.631  18.834  0.00  0.00    +0.000 A 
ATOM      8  N   UNL     1      -0.123   9.740  18.137  0.00  0.00    +0.000 NA
ENDROOT
BRANCH   1   9
ATOM      9  C   UNL     1      -3.220  11.704  18.150  0.00  0.00    +0.000 C 
BRANCH   9  10
ATOM     10  C   UNL     1      -4.539  11.572  17.381  0.00  0.00    +0.000 C 
BRANCH  10  11
ATOM     11  C   UNL     1      -5.647  10.924  18.225  0.00  0.00    +0.000 C 
BRANCH  11  13
ATOM     12  C   UNL     1      -7.380  12.637  18.061  0.00  0.00    +0.000 C 
ATOM     13  N   UNL     1      -6.497  11.883  18.955  0.00  0.00    +0.000 NA
ATOM     14  C   UNL     1      -7.308  11.182  19.957  0.00  0.00    +0.000 C 
ENDBRANCH  11  13
ENDBRANCH  10  11
ENDBRANCH   9  10
ENDBRANCH   1   9
BRANCH   5  15
ATOM     15  O   UNL     1       0.238  11.208  21.917  0.00  0.00    +0.000 OA
BRANCH  15  16
ATOM     16  C   UNL     1      -0.710  12.118  22.327  0.00  0.00    +0.000 A 
ATOM     17  C   UNL     1      -1.817  11.609  23.004  0.00  0.00    +0.000 A 
ATOM     18  C   UNL     1      -2.821  12.470  23.465  0.00  0.00    +0.000 A 
ATOM     19  C   UNL     1      -2.723  13.852  23.245  0.00  0.00    +0.000 A 
ATOM     20  C   UNL     1      -1.598  14.358  22.585  0.00  0.00    +0.000 A 
ATOM     21  C   UNL     1      -0.588  13.499  22.157  0.00  0.00    +0.000 A 
BRANCH  19  22
ATOM     22  N   UNL     1      -3.743  14.740  23.694  0.00  0.00    +0.000 N 
ATOM     23  C   UNL     1      -3.594  15.859  24.487  0.00  0.00    +0.000 A 
ATOM     24  C   UNL     1      -4.847  16.413  24.608  0.00  0.00    +0.000 A 
ATOM     25  N   UNL     1      -5.773  15.670  23.937  0.00  0.00    +0.000 NA
ATOM     26  C   UNL     1      -5.089  14.675  23.404  0.00  0.00    +0.000 A 
ENDBRANCH  19  22
ENDBRANCH  15  16
ENDBRANCH   5  15
BRANCH   7  27
ATOM     27  C   UNL     1       2.220   8.974  18.165  0.00  0.00    +0.000 C 
BRANCH  27  28
ATOM     28  C   UNL     1       2.429   7.578  18.714  0.00  0.00    +0.000 A 
ATOM     29  C   UNL     1       2.043   7.276  20.041  0.00  0.00    +0.000 A 
ATOM     30  C   UNL     1       1.864   5.951  20.447  0.00  0.00    +0.000 A 
ATOM     31  C   UNL     1       2.036   4.975  19.492  0.00  0.00    +0.000 A 
ATOM     32  C   UNL     1       2.500   5.262  18.226  0.00  0.00    +0.000 A 
ATOM     33  C   UNL     1       2.759   6.547  17.819  0.00  0.00    +0.000 A 
ATOM     34  O   UNL     1       2.490   4.167  17.415  0.00  0.00    +0.000 OA
ATOM     35  C   UNL     1       1.632   3.320  18.203  0.00  0.00    +0.000 C 
ATOM     36  O   UNL     1       1.657   3.670  19.604  0.00  0.00    +0.000 OA
ENDBRANCH  27  28
ENDBRANCH   7  27
TORSDOF 9
ENDMDL
MODEL 3
REMARK VINA RESULT:      -7.9      3.076      5.963
REMARK  Name = 
REMARK  12 active torsions:
REMARK  status: ('A' for Active; 'I' for Inactive)
REMARK    1  A    between atoms: C_1  and  N_2
REMARK    2  A    between atoms: N_2  and  C_3
REMARK    3  A    between atoms: N_2  and  C_4
REMARK    4  A    between atoms: C_4  and  C_5
REMARK    5  A    between atoms: C_5  and  C_6
REMARK    6  A    between atoms: C_6  and  N_7
REMARK    7  A    between atoms: N_7  and  C_8
REMARK    8  A    between atoms: C_11  and  O_12
REMARK    9  A    between atoms: O_12  and  C_13
REMARK   10  A    between atoms: C_16  and  N_17
REMARK   11  A    between atoms: C_25  and  C_26
REMARK   12  A    between atoms: C_26  and  C_27
REMARK                            x       y       z     vdW  Elec       q    Type
REMARK                         _______ _______ _______ _____ _____    ______ ____
ROOT
ATOM      1  N   UNL     1       4.364   6.059  16.828  0.00  0.00    +0.000 N 
ATOM      2  C   UNL     1       4.485   4.639  17.126  0.00  0.00    +0.000 C 
ATOM      3  C   UNL     1       3.527   6.791  17.668  0.00  0.00    +0.000 A 
ATOM      4  C   UNL     1       3.237   8.115  17.412  0.00  0.00    +0.000 A 
ATOM      5  C   UNL     1       2.400   8.753  18.292  0.00  0.00    +0.000 A 
ATOM      6  N   UNL     1       1.888   8.179  19.391  0.00  0.00    +0.000 NA
ATOM      7  C   UNL     1       2.178   6.882  19.558  0.00  0.00    +0.000 A 
ATOM      8  N   UNL     1       2.969   6.169  18.731  0.00  0.00    +0.000 NA
ENDROOT
BRANCH   1   9
ATOM      9  C   UNL     1       5.457   6.709  16.093  0.00  0.00    +0.000 C 
BRANCH   9  10
ATOM     10  C   UNL     1       6.836   6.162  16.481  0.00  0.00    +0.000 C 
BRANCH  10  11
ATOM     11  C   UNL     1       7.291   5.016  15.563  0.00  0.00    +0.000 C 
BRANCH  11  13
ATOM     12  C   UNL     1       7.918   5.395  13.234  0.00  0.00    +0.000 C 
ATOM     13  N   UNL     1       6.823   5.129  14.169  0.00  0.00    +0.000 NA
ATOM     14  C   UNL     1       6.130   3.901  13.766  0.00  0.00    +0.000 C 
ENDBRANCH  11  13
ENDBRANCH  10  11
ENDBRANCH   9  10
ENDBRANCH   1   9
BRANCH   5  15
ATOM     15  O   UNL     1       2.080  10.074  18.005  0.00  0.00    +0.000 OA
BRANCH  15  16
ATOM     16  C   UNL     1       1.027  10.637  18.690  0.00  0.00    +0.000 A 
ATOM     17  C   UNL     1      -0.255  10.251  18.298  0.00  0.00    +0.000 A 
ATOM     18  C   UNL     1      -1.380  10.768  18.953  0.00  0.00    +0.000 A 
ATOM     19  C   UNL     1      -1.227  11.683  20.005  0.00  0.00    +0.000 A 
ATOM     20  C   UNL     1       0.062  12.047  20.408  0.00  0.00    +0.000 A 
ATOM     21  C   UNL     1       1.177  11.505  19.773  0.00  0.00    +0.000 A 
BRANCH  19  22
ATOM     22  N   UNL     1      -2.362  12.230  20.672  0.00  0.00    +0.000 N 
ATOM     23  C   UNL     1      -3.551  12.639  20.107  0.00  0.00    +0.000 A 
ATOM     24  C   UNL     1      -4.351  13.045  21.151  0.00  0.00    +0.000 A 
ATOM     25  N   UNL     1      -3.696  12.922  22.340  0.00  0.00    +0.000 NA
ATOM     26  C   UNL     1      -2.509  12.437  22.027  0.00  0.00    +0.000 A 
ENDBRANCH  19  22
ENDBRANCH  15  16
ENDBRANCH   5  15
BRANCH   7  27
ATOM     27  C   UNL     1       1.643   6.209  20.809  0.00  0.00    +0.000 C 
BRANCH  27  28
ATOM     28  C   UNL     1       1.725   4.703  20.673  0.00  0.00    +0.000 A 
ATOM     29  C   UNL     1       0.627   3.981  20.149  0.00  0.00    +0.000 A 
ATOM     30  C   UNL     1       0.795   2.684  19.658  0.00  0.00    +0.000 A 
ATOM     31  C   UNL     1       2.073   2.172  19.671  0.00  0.00    +0.000 A 
ATOM     32  C   UNL     1       3.124   2.838  20.264  0.00  0.00    +0.000 A 
ATOM     33  C   UNL     1       2.975   4.082  20.823  0.00  0.00    +0.000 A 
ATOM     34  O   UNL     1       4.312   2.201  20.064  0.00  0.00    +0.000 OA
ATOM     35  C   UNL     1       3.913   1.324  18.994  0.00  0.00    +0.000 C 
ATOM     36  O   UNL     1       2.494   1.057  19.009  0.00  0.00    +0.000 OA
ENDBRANCH  27  28
ENDBRANCH   7  27
TORSDOF 9
ENDMDL
MODEL 4
REMARK VINA RESULT:      -7.8      2.953      5.766
REMARK  Name = 
REMARK  12 active torsions:
REMARK  status: ('A' for Active; 'I' for Inactive)
REMARK    1  A    between atoms: C_1  and  N_2
REMARK    2  A    between atoms: N_2  and  C_3
REMARK    3  A    between atoms: N_2  and  C_4
REMARK    4  A    between atoms: C_4  and  C_5
REMARK    5  A    between atoms: C_5  and  C_6
REMARK    6  A    between atoms: C_6  and  N_7
REMARK    7  A    between atoms: N_7  and  C_8
REMARK    8  A    between atoms: C_11  and  O_12
REMARK    9  A    between atoms: O_12  and  C_13
REMARK   10  A    between atoms: C_16  and  N_17
REMARK   11  A    between atoms: C_25  and  C_26
REMARK   12  A    between atoms: C_26  and  C_27
REMARK                            x       y       z     vdW  Elec       q    Type
REMARK                         _______ _______ _______ _____ _____    ______ ____
ROOT
ATOM      1  N   UNL     1       3.990   6.197  16.871  0.00  0.00    +0.000 N 
ATOM      2  C   UNL     1       4.075   4.746  16.968  0.00  0.00    +0.000 C 
ATOM      3  C   UNL     1       3.209   6.829  17.837  0.00  0.00    +0.000 A 
ATOM      4  C   UNL     1       2.953   8.183  17.775  0.00  0.00    +0.000 A 
ATOM      5  C   UNL     1       2.171   8.717  18.769  0.00  0.00    +0.000 A 
ATOM      6  N   UNL     1       1.683   8.012  19.800  0.00  0.00    +0.000 NA
ATOM      7  C   UNL     1       1.937   6.698  19.777  0.00  0.00    +0.000 A 
ATOM      8  N   UNL     1       2.672   6.083  18.828  0.00  0.00    +0.000 NA
ENDROOT
BRANCH   1   9
ATOM      9  C   UNL     1       5.074   6.911  16.185  0.00  0.00    +0.000 C 
BRANCH   9  10
ATOM     10  C   UNL     1       6.338   7.032  17.045  0.00  0.00    +0.000 C 
BRANCH  10  11
ATOM     11  C   UNL     1       7.077   5.692  17.189  0.00  0.00    +0.000 C 
BRANCH  11  13
ATOM     12  C   UNL     1       8.250   6.420  19.203  0.00  0.00    +0.000 C 
ATOM     13  N   UNL     1       7.467   5.356  18.571  0.00  0.00    +0.000 NA
ATOM     14  C   UNL     1       6.274   5.087  19.383  0.00  0.00    +0.000 C 
ENDBRANCH  11  13
ENDBRANCH  10  11
ENDBRANCH   9  10
ENDBRANCH   1   9
BRANCH   5  15
ATOM     15  O   UNL     1       1.884  10.074  18.677  0.00  0.00    +0.000 OA
BRANCH  15  16
ATOM     16  C   UNL     1       0.558  10.442  18.655  0.00  0.00    +0.000 A 
ATOM     17  C   UNL     1      -0.238   9.864  17.666  0.00  0.00    +0.000 A 
ATOM     18  C   UNL     1      -1.601  10.177  17.583  0.00  0.00    +0.000 A 
ATOM     19  C   UNL     1      -2.176  11.079  18.490  0.00  0.00    +0.000 A 
ATOM     20  C   UNL     1      -1.377  11.637  19.493  0.00  0.00    +0.000 A 
ATOM     21  C   UNL     1      -0.029  11.297  19.590  0.00  0.00    +0.000 A 
BRANCH  19  22
ATOM     22  N   UNL     1      -3.557  11.419  18.409  0.00  0.00    +0.000 N 
ATOM     23  C   UNL     1      -4.287  12.183  19.296  0.00  0.00    +0.000 A 
ATOM     24  C   UNL     1      -5.555  12.272  18.770  0.00  0.00    +0.000 A 
ATOM     25  N   UNL     1      -5.646  11.577  17.600  0.00  0.00    +0.000 NA
ATOM     26  C   UNL     1      -4.441  11.073  17.409  0.00  0.00    +0.000 A 
ENDBRANCH  19  22
ENDBRANCH  15  16
ENDBRANCH   5  15
BRANCH   7  27
ATOM     27  C   UNL     1       1.429   5.874  20.947  0.00  0.00    +0.000 C 
BRANCH  27  28
ATOM     28  C   UNL     1       1.673   4.400  20.699  0.00  0.00    +0.000 A 
ATOM     29  C   UNL     1       0.746   3.649  19.939  0.00  0.00    +0.000 A 
ATOM     30  C   UNL     1       1.113   2.424  19.375  0.00  0.00    +0.000 A 
ATOM     31  C   UNL     1       2.415   2.016  19.559  0.00  0.00    +0.000 A 
ATOM     32  C   UNL     1       3.289   2.701  20.375  0.00  0.00    +0.000 A 
ATOM     33  C   UNL     1       2.937   3.868  21.004  0.00  0.00    +0.000 A 
ATOM     34  O   UNL     1       4.550   2.184  20.324  0.00  0.00    +0.000 OA
ATOM     35  C   UNL     1       4.412   1.388  19.132  0.00  0.00    +0.000 C 
ATOM     36  O   UNL     1       3.040   1.009  18.885  0.00  0.00    +0.000 OA
ENDBRANCH  27  28
ENDBRANCH   7  27
TORSDOF 9
ENDMDL
MODEL 5
REMARK VINA RESULT:      -7.8      2.935      8.479
REMARK  Name = 
REMARK  12 active torsions:
REMARK  status: ('A' for Active; 'I' for Inactive)
REMARK    1  A    between atoms: C_1  and  N_2
REMARK    2  A    between atoms: N_2  and  C_3
REMARK    3  A    between atoms: N_2  and  C_4
REMARK    4  A    between atoms: C_4  and  C_5
REMARK    5  A    between atoms: C_5  and  C_6
REMARK    6  A    between atoms: C_6  and  N_7
REMARK    7  A    between atoms: N_7  and  C_8
REMARK    8  A    between atoms: C_11  and  O_12
REMARK    9  A    between atoms: O_12  and  C_13
REMARK   10  A    between atoms: C_16  and  N_17
REMARK   11  A    between atoms: C_25  and  C_26
REMARK   12  A    between atoms: C_26  and  C_27
REMARK                            x       y       z     vdW  Elec       q    Type
REMARK                         _______ _______ _______ _____ _____    ______ ____
ROOT
ATOM      1  N   UNL     1      -2.578  10.482  18.056  0.00  0.00    +0.000 N 
ATOM      2  C   UNL     1      -2.669   9.843  16.751  0.00  0.00    +0.000 C 
ATOM      3  C   UNL     1      -1.328  10.440  18.672  0.00  0.00    +0.000 A 
ATOM      4  C   UNL     1      -1.149  10.901  19.960  0.00  0.00    +0.000 A 
ATOM      5  C   UNL     1       0.116  10.816  20.483  0.00  0.00    +0.000 A 
ATOM      6  N   UNL     1       1.178  10.352  19.808  0.00  0.00    +0.000 NA
ATOM      7  C   UNL     1       0.927   9.885  18.579  0.00  0.00    +0.000 A 
ATOM      8  N   UNL     1      -0.289   9.904  17.994  0.00  0.00    +0.000 NA
ENDROOT
BRANCH   1   9
ATOM      9  C   UNL     1      -3.550  11.534  18.383  0.00  0.00    +0.000 C 
BRANCH   9  10
ATOM     10  C   UNL     1      -4.790  11.491  17.483  0.00  0.00    +0.000 C 
BRANCH  10  11
ATOM     11  C   UNL     1      -5.996  10.842  18.180  0.00  0.00    +0.000 C 
BRANCH  11  13
ATOM     12  C   UNL     1      -7.319  12.712  19.027  0.00  0.00    +0.000 C 
ATOM     13  N   UNL     1      -6.474  11.566  19.372  0.00  0.00    +0.000 NA
ATOM     14  C   UNL     1      -7.224  10.660  20.249  0.00  0.00    +0.000 C 
ENDBRANCH  11  13
ENDBRANCH  10  11
ENDBRANCH   9  10
ENDBRANCH   1   9
BRANCH   5  15
ATOM     15  O   UNL     1       0.280  11.245  21.795  0.00  0.00    +0.000 OA
BRANCH  15  16
ATOM     16  C   UNL     1      -0.650  12.129  22.295  0.00  0.00    +0.000 A 
ATOM     17  C   UNL     1      -0.420  13.483  22.053  0.00  0.00    +0.000 A 
ATOM     18  C   UNL     1      -1.325  14.447  22.517  0.00  0.00    +0.000 A 
ATOM     19  C   UNL     1      -2.467  14.058  23.235  0.00  0.00    +0.000 A 
ATOM     20  C   UNL     1      -2.701  12.696  23.453  0.00  0.00    +0.000 A 
ATOM     21  C   UNL     1      -1.814  11.742  22.961  0.00  0.00    +0.000 A 
BRANCH  19  22
ATOM     22  N   UNL     1      -3.388  15.026  23.727  0.00  0.00    +0.000 N 
ATOM     23  C   UNL     1      -3.346  15.689  24.936  0.00  0.00    +0.000 A 
ATOM     24  C   UNL     1      -4.416  16.553  24.937  0.00  0.00    +0.000 A 
ATOM     25  N   UNL     1      -5.133  16.440  23.783  0.00  0.00    +0.000 NA
ATOM     26  C   UNL     1      -4.502  15.518  23.079  0.00  0.00    +0.000 A 
ENDBRANCH  19  22
ENDBRANCH  15  16
ENDBRANCH   5  15
BRANCH   7  27
ATOM     27  C   UNL     1       2.111   9.383  17.773  0.00  0.00    +0.000 C 
BRANCH  27  28
ATOM     28  C   UNL     1       2.625   8.080  18.348  0.00  0.00    +0.000 A 
ATOM     29  C   UNL     1       2.033   7.541  19.515  0.00  0.00    +0.000 A 
ATOM     30  C   UNL     1       2.207   6.195  19.846  0.00  0.00    +0.000 A 
ATOM     31  C   UNL     1       2.937   5.425  18.969  0.00  0.00    +0.000 A 
ATOM     32  C   UNL     1       3.589   5.968  17.883  0.00  0.00    +0.000 A 
ATOM     33  C   UNL     1       3.500   7.302  17.573  0.00  0.00    +0.000 A 
ATOM     34  O   UNL     1       4.155   5.013  17.094  0.00  0.00    +0.000 OA
ATOM     35  C   UNL     1       3.457   3.863  17.606  0.00  0.00    +0.000 C 
ATOM     36  O   UNL     1       3.000   4.062  18.962  0.00  0.00    +0.000 OA
ENDBRANCH  27  28
ENDBRANCH   7  27
TORSDOF 9
ENDMDL
MODEL 6
REMARK VINA RESULT:      -7.8      0.656      1.092
REMARK  Name = 
REMARK  12 active torsions:
REMARK  status: ('A' for Active; 'I' for Inactive)
REMARK    1  A    between atoms: C_1  and  N_2
REMARK    2  A    between atoms: N_2  and  C_3
REMARK    3  A    between atoms: N_2  and  C_4
REMARK    4  A    between atoms: C_4  and  C_5
REMARK    5  A    between atoms: C_5  and  C_6
REMARK    6  A    between atoms: C_6  and  N_7
REMARK    7  A    between atoms: N_7  and  C_8
REMARK    8  A    between atoms: C_11  and  O_12
REMARK    9  A    between atoms: O_12  and  C_13
REMARK   10  A    between atoms: C_16  and  N_17
REMARK   11  A    between atoms: C_25  and  C_26
REMARK   12  A    between atoms: C_26  and  C_27
REMARK                            x       y       z     vdW  Elec       q    Type
REMARK                         _______ _______ _______ _____ _____    ______ ____
ROOT
ATOM      1  N   UNL     1       3.159   6.743  18.532  0.00  0.00    +0.000 N 
ATOM      2  C   UNL     1       3.598   5.813  19.561  0.00  0.00    +0.000 C 
ATOM      3  C   UNL     1       2.249   7.719  18.937  0.00  0.00    +0.000 A 
ATOM      4  C   UNL     1       1.667   8.577  18.027  0.00  0.00    +0.000 A 
ATOM      5  C   UNL     1       0.781   9.502  18.519  0.00  0.00    +0.000 A 
ATOM      6  N   UNL     1       0.485   9.640  19.820  0.00  0.00    +0.000 NA
ATOM      7  C   UNL     1       1.055   8.750  20.643  0.00  0.00    +0.000 A 
ATOM      8  N   UNL     1       1.915   7.791  20.245  0.00  0.00    +0.000 NA
ENDROOT
BRANCH   1   9
ATOM      9  C   UNL     1       4.032   6.957  17.370  0.00  0.00    +0.000 C 
BRANCH   9  10
ATOM     10  C   UNL     1       5.243   6.017  17.362  0.00  0.00    +0.000 C 
BRANCH  10  11
ATOM     11  C   UNL     1       5.105   4.894  16.321  0.00  0.00    +0.000 C 
BRANCH  11  13
ATOM     12  C   UNL     1       7.358   4.909  15.377  0.00  0.00    +0.000 C 
ATOM     13  N   UNL     1       5.928   5.081  15.111  0.00  0.00    +0.000 NA
ATOM     14  C   UNL     1       5.514   4.138  14.066  0.00  0.00    +0.000 C 
ENDBRANCH  11  13
ENDBRANCH  10  11
ENDBRANCH   9  10
ENDBRANCH   1   9
BRANCH   5  15
ATOM     15  O   UNL     1       0.169  10.336  17.591  0.00  0.00    +0.000 OA
BRANCH  15  16
ATOM     16  C   UNL     1      -1.141  10.691  17.823  0.00  0.00    +0.000 A 
ATOM     17  C   UNL     1      -2.120   9.915  17.202  0.00  0.00    +0.000 A 
ATOM     18  C   UNL     1      -3.477  10.202  17.397  0.00  0.00    +0.000 A 
ATOM     19  C   UNL     1      -3.863  11.276  18.213  0.00  0.00    +0.000 A 
ATOM     20  C   UNL     1      -2.875  12.035  18.850  0.00  0.00    +0.000 A 
ATOM     21  C   UNL     1      -1.529  11.724  18.678  0.00  0.00    +0.000 A 
BRANCH  19  22
ATOM     22  N   UNL     1      -5.239  11.591  18.408  0.00  0.00    +0.000 N 
ATOM     23  C   UNL     1      -5.949  11.556  19.590  0.00  0.00    +0.000 A 
ATOM     24  C   UNL     1      -7.219  11.987  19.286  0.00  0.00    +0.000 A 
ATOM     25  N   UNL     1      -7.331  12.270  17.958  0.00  0.00    +0.000 NA
ATOM     26  C   UNL     1      -6.137  12.021  17.455  0.00  0.00    +0.000 A 
ENDBRANCH  19  22
ENDBRANCH  15  16
ENDBRANCH   5  15
BRANCH   7  27
ATOM     27  C   UNL     1       0.768   8.897  22.126  0.00  0.00    +0.000 C 
BRANCH  27  28
ATOM     28  C   UNL     1       0.188  10.266  22.417  0.00  0.00    +0.000 A 
ATOM     29  C   UNL     1       0.664  11.398  21.715  0.00  0.00    +0.000 A 
ATOM     30  C   UNL     1      -0.085  12.577  21.672  0.00  0.00    +0.000 A 
ATOM     31  C   UNL     1      -1.309  12.563  22.300  0.00  0.00    +0.000 A 
ATOM     32  C   UNL     1      -1.731  11.493  23.060  0.00  0.00    +0.000 A 
ATOM     33  C   UNL     1      -0.984  10.349  23.186  0.00  0.00    +0.000 A 
ATOM     34  O   UNL     1      -3.013  11.648  23.497  0.00  0.00    +0.000 OA
ATOM     35  C   UNL     1      -3.417  12.713  22.616  0.00  0.00    +0.000 C 
ATOM     36  O   UNL     1      -2.294  13.495  22.155  0.00  0.00    +0.000 OA
ENDBRANCH  27  28
ENDBRANCH   7  27
TORSDOF 9
ENDMDL
MODEL 7
REMARK VINA RESULT:      -7.7      3.708      9.223
REMARK  Name = 
REMARK  12 active torsions:
REMARK  status: ('A' for Active; 'I' for Inactive)
REMARK    1  A    between atoms: C_1  and  N_2
REMARK    2  A    between atoms: N_2  and  C_3
REMARK    3  A    between atoms: N_2  and  C_4
REMARK    4  A    between atoms: C_4  and  C_5
REMARK    5  A    between atoms: C_5  and  C_6
REMARK    6  A    between atoms: C_6  and  N_7
REMARK    7  A    between atoms: N_7  and  C_8
REMARK    8  A    between atoms: C_11  and  O_12
REMARK    9  A    between atoms: O_12  and  C_13
REMARK   10  A    between atoms: C_16  and  N_17
REMARK   11  A    between atoms: C_25  and  C_26
REMARK   12  A    between atoms: C_26  and  C_27
REMARK                            x       y       z     vdW  Elec       q    Type
REMARK                         _______ _______ _______ _____ _____    ______ ____
ROOT
ATOM      1  N   UNL     1      -1.179  13.178  22.550  0.00  0.00    +0.000 N 
ATOM      2  C   UNL     1      -0.944  14.327  23.412  0.00  0.00    +0.000 C 
ATOM      3  C   UNL     1      -0.175  12.891  21.626  0.00  0.00    +0.000 A 
ATOM      4  C   UNL     1      -0.338  11.906  20.675  0.00  0.00    +0.000 A 
ATOM      5  C   UNL     1       0.704  11.697  19.807  0.00  0.00    +0.000 A 
ATOM      6  N   UNL     1       1.868  12.362  19.857  0.00  0.00    +0.000 NA
ATOM      7  C   UNL     1       1.944  13.331  20.779  0.00  0.00    +0.000 A 
ATOM      8  N   UNL     1       0.961  13.623  21.655  0.00  0.00    +0.000 NA
ENDROOT
BRANCH   1   9
ATOM      9  C   UNL     1      -2.098  12.133  23.020  0.00  0.00    +0.000 C 
BRANCH   9  10
ATOM     10  C   UNL     1      -3.566  12.570  22.966  0.00  0.00    +0.000 C 
BRANCH  10  11
ATOM     11  C   UNL     1      -3.913  13.295  21.655  0.00  0.00    +0.000 C 
BRANCH  11  13
ATOM     12  C   UNL     1      -4.628  15.102  23.133  0.00  0.00    +0.000 C 
ATOM     13  N   UNL     1      -4.788  14.470  21.822  0.00  0.00    +0.000 NA
ATOM     14  C   UNL     1      -4.514  15.458  20.772  0.00  0.00    +0.000 C 
ENDBRANCH  11  13
ENDBRANCH  10  11
ENDBRANCH   9  10
ENDBRANCH   1   9
BRANCH   5  15
ATOM     15  O   UNL     1       0.516  10.731  18.826  0.00  0.00    +0.000 OA
BRANCH  15  16
ATOM     16  C   UNL     1       1.152   9.521  18.995  0.00  0.00    +0.000 A 
ATOM     17  C   UNL     1       1.855   9.023  17.898  0.00  0.00    +0.000 A 
ATOM     18  C   UNL     1       2.539   7.805  17.991  0.00  0.00    +0.000 A 
ATOM     19  C   UNL     1       2.519   7.072  19.188  0.00  0.00    +0.000 A 
ATOM     20  C   UNL     1       1.831   7.590  20.291  0.00  0.00    +0.000 A 
ATOM     21  C   UNL     1       1.179   8.818  20.200  0.00  0.00    +0.000 A 
BRANCH  19  22
ATOM     22  N   UNL     1       3.198   5.824  19.295  0.00  0.00    +0.000 N 
ATOM     23  C   UNL     1       4.512   5.552  18.979  0.00  0.00    +0.000 A 
ATOM     24  C   UNL     1       4.717   4.229  19.295  0.00  0.00    +0.000 A 
ATOM     25  N   UNL     1       3.574   3.664  19.777  0.00  0.00    +0.000 NA
ATOM     26  C   UNL     1       2.681   4.635  19.763  0.00  0.00    +0.000 A 
ENDBRANCH  19  22
ENDBRANCH  15  16
ENDBRANCH   5  15
BRANCH   7  27
ATOM     27  C   UNL     1       3.259  14.081  20.886  0.00  0.00    +0.000 C 
BRANCH  27  28
ATOM     28  C   UNL     1       3.325  15.179  19.845  0.00  0.00    +0.000 A 
ATOM     29  C   UNL     1       3.857  14.905  18.563  0.00  0.00    +0.000 A 
ATOM     30  C   UNL     1       3.588  15.751  17.484  0.00  0.00    +0.000 A 
ATOM     31  C   UNL     1       2.758  16.823  17.721  0.00  0.00    +0.000 A 
ATOM     32  C   UNL     1       2.316  17.141  18.987  0.00  0.00    +0.000 A 
ATOM     33  C   UNL     1       2.624  16.373  20.082  0.00  0.00    +0.000 A 
ATOM     34  O   UNL     1       1.421  18.169  18.975  0.00  0.00    +0.000 OA
ATOM     35  C   UNL     1       1.102  18.164  17.571  0.00  0.00    +0.000 C 
ATOM     36  O   UNL     1       2.165  17.601  16.772  0.00  0.00    +0.000 OA
ENDBRANCH  27  28
ENDBRANCH   7  27
TORSDOF 9
ENDMDL
MODEL 8
REMARK VINA RESULT:      -7.6      2.811      8.279
REMARK  Name = 
REMARK  12 active torsions:
REMARK  status: ('A' for Active; 'I' for Inactive)
REMARK    1  A    between atoms: C_1  and  N_2
REMARK    2  A    between atoms: N_2  and  C_3
REMARK    3  A    between atoms: N_2  and  C_4
REMARK    4  A    between atoms: C_4  and  C_5
REMARK    5  A    between atoms: C_5  and  C_6
REMARK    6  A    between atoms: C_6  and  N_7
REMARK    7  A    between atoms: N_7  and  C_8
REMARK    8  A    between atoms: C_11  and  O_12
REMARK    9  A    between atoms: O_12  and  C_13
REMARK   10  A    between atoms: C_16  and  N_17
REMARK   11  A    between atoms: C_25  and  C_26
REMARK   12  A    between atoms: C_26  and  C_27
REMARK                            x       y       z     vdW  Elec       q    Type
REMARK                         _______ _______ _______ _____ _____    ______ ____
ROOT
ATOM      1  N   UNL     1      -2.320  10.434  17.972  0.00  0.00    +0.000 N 
ATOM      2  C   UNL     1      -2.282   9.883  16.625  0.00  0.00    +0.000 C 
ATOM      3  C   UNL     1      -1.118  10.404  18.678  0.00  0.00    +0.000 A 
ATOM      4  C   UNL     1      -1.058  10.783  20.003  0.00  0.00    +0.000 A 
ATOM      5  C   UNL     1       0.168  10.718  20.617  0.00  0.00    +0.000 A 
ATOM      6  N   UNL     1       1.298  10.348  19.997  0.00  0.00    +0.000 NA
ATOM      7  C   UNL     1       1.161   9.956  18.724  0.00  0.00    +0.000 A 
ATOM      8  N   UNL     1      -0.006   9.962  18.049  0.00  0.00    +0.000 NA
ENDROOT
BRANCH   1   9
ATOM      9  C   UNL     1      -3.363  11.418  18.291  0.00  0.00    +0.000 C 
BRANCH   9  10
ATOM     10  C   UNL     1      -4.551  11.351  17.324  0.00  0.00    +0.000 C 
BRANCH  10  11
ATOM     11  C   UNL     1      -5.599  12.439  17.610  0.00  0.00    +0.000 C 
BRANCH  11  13
ATOM     12  C   UNL     1      -6.888  10.698  18.738  0.00  0.00    +0.000 C 
ATOM     13  N   UNL     1      -6.942  11.921  17.933  0.00  0.00    +0.000 NA
ATOM     14  C   UNL     1      -7.718  12.939  18.651  0.00  0.00    +0.000 C 
ENDBRANCH  11  13
ENDBRANCH  10  11
ENDBRANCH   9  10
ENDBRANCH   1   9
BRANCH   5  15
ATOM     15  O   UNL     1       0.212  11.062  21.962  0.00  0.00    +0.000 OA
BRANCH  15  16
ATOM     16  C   UNL     1      -0.746  11.935  22.427  0.00  0.00    +0.000 A 
ATOM     17  C   UNL     1      -0.522  13.292  22.197  0.00  0.00    +0.000 A 
ATOM     18  C   UNL     1      -1.455  14.244  22.628  0.00  0.00    +0.000 A 
ATOM     19  C   UNL     1      -2.620  13.841  23.298  0.00  0.00    +0.000 A 
ATOM     20  C   UNL     1      -2.848  12.476  23.504  0.00  0.00    +0.000 A 
ATOM     21  C   UNL     1      -1.931  11.533  23.046  0.00  0.00    +0.000 A 
BRANCH  19  22
ATOM     22  N   UNL     1      -3.571  14.798  23.756  0.00  0.00    +0.000 N 
ATOM     23  C   UNL     1      -3.377  15.798  24.686  0.00  0.00    +0.000 A 
ATOM     24  C   UNL     1      -4.563  16.489  24.759  0.00  0.00    +0.000 A 
ATOM     25  N   UNL     1      -5.494  15.946  23.923  0.00  0.00    +0.000 NA
ATOM     26  C   UNL     1      -4.878  14.935  23.340  0.00  0.00    +0.000 A 
ENDBRANCH  19  22
ENDBRANCH  15  16
ENDBRANCH   5  15
BRANCH   7  27
ATOM     27  C   UNL     1       2.426   9.564  17.981  0.00  0.00    +0.000 C 
BRANCH  27  28
ATOM     28  C   UNL     1       2.610   8.061  18.014  0.00  0.00    +0.000 A 
ATOM     29  C   UNL     1       3.706   7.469  17.341  0.00  0.00    +0.000 A 
ATOM     30  C   UNL     1       4.121   6.173  17.658  0.00  0.00    +0.000 A 
ATOM     31  C   UNL     1       3.447   5.531  18.672  0.00  0.00    +0.000 A 
ATOM     32  C   UNL     1       2.324   6.070  19.262  0.00  0.00    +0.000 A 
ATOM     33  C   UNL     1       1.845   7.309  18.921  0.00  0.00    +0.000 A 
ATOM     34  O   UNL     1       1.886   5.318  20.311  0.00  0.00    +0.000 OA
ATOM     35  C   UNL     1       3.062   4.512  20.510  0.00  0.00    +0.000 C 
ATOM     36  O   UNL     1       3.851   4.393  19.307  0.00  0.00    +0.000 OA
ENDBRANCH  27  28
ENDBRANCH   7  27
TORSDOF 9
ENDMDL
MODEL 9
REMARK VINA RESULT:      -7.6      3.002      8.131
REMARK  Name = 
REMARK  12 active torsions:
REMARK  status: ('A' for Active; 'I' for Inactive)
REMARK    1  A    between atoms: C_1  and  N_2
REMARK    2  A    between atoms: N_2  and  C_3
REMARK    3  A    between atoms: N_2  and  C_4
REMARK    4  A    between atoms: C_4  and  C_5
REMARK    5  A    between atoms: C_5  and  C_6
REMARK    6  A    between atoms: C_6  and  N_7
REMARK    7  A    between atoms: N_7  and  C_8
REMARK    8  A    between atoms: C_11  and  O_12
REMARK    9  A    between atoms: O_12  and  C_13
REMARK   10  A    between atoms: C_16  and  N_17
REMARK   11  A    between atoms: C_25  and  C_26
REMARK   12  A    between atoms: C_26  and  C_27
REMARK                            x       y       z     vdW  Elec       q    Type
REMARK                         _______ _______ _______ _____ _____    ______ ____
ROOT
ATOM      1  N   UNL     1      -1.835  10.487  17.659  0.00  0.00    +0.000 N 
ATOM      2  C   UNL     1      -1.994   9.711  16.437  0.00  0.00    +0.000 C 
ATOM      3  C   UNL     1      -0.671  10.248  18.388  0.00  0.00    +0.000 A 
ATOM      4  C   UNL     1      -0.467  10.829  19.622  0.00  0.00    +0.000 A 
ATOM      5  C   UNL     1       0.707  10.533  20.266  0.00  0.00    +0.000 A 
ATOM      6  N   UNL     1       1.668   9.751  19.752  0.00  0.00    +0.000 NA
ATOM      7  C   UNL     1       1.389   9.189  18.570  0.00  0.00    +0.000 A 
ATOM      8  N   UNL     1       0.252   9.402  17.878  0.00  0.00    +0.000 NA
ENDROOT
BRANCH   1   9
ATOM      9  C   UNL     1      -2.548  11.767  17.767  0.00  0.00    +0.000 C 
BRANCH   9  10
ATOM     10  C   UNL     1      -3.781  11.681  18.674  0.00  0.00    +0.000 C 
BRANCH  10  11
ATOM     11  C   UNL     1      -5.046  11.272  17.903  0.00  0.00    +0.000 C 
BRANCH  11  13
ATOM     12  C   UNL     1      -7.255  12.312  17.875  0.00  0.00    +0.000 C 
ATOM     13  N   UNL     1      -6.306  11.497  18.636  0.00  0.00    +0.000 NA
ATOM     14  C   UNL     1      -6.932  10.215  18.975  0.00  0.00    +0.000 C 
ENDBRANCH  11  13
ENDBRANCH  10  11
ENDBRANCH   9  10
ENDBRANCH   1   9
BRANCH   5  15
ATOM     15  O   UNL     1       0.887  11.090  21.527  0.00  0.00    +0.000 OA
BRANCH  15  16
ATOM     16  C   UNL     1      -0.124  11.884  22.020  0.00  0.00    +0.000 A 
ATOM     17  C   UNL     1      -0.016  13.254  21.785  0.00  0.00    +0.000 A 
ATOM     18  C   UNL     1      -1.009  14.130  22.243  0.00  0.00    +0.000 A 
ATOM     19  C   UNL     1      -2.117  13.636  22.948  0.00  0.00    +0.000 A 
ATOM     20  C   UNL     1      -2.229  12.258  23.159  0.00  0.00    +0.000 A 
ATOM     21  C   UNL     1      -1.254  11.390  22.673  0.00  0.00    +0.000 A 
BRANCH  19  22
ATOM     22  N   UNL     1      -3.128  14.515  23.434  0.00  0.00    +0.000 N 
ATOM     23  C   UNL     1      -4.480  14.473  23.163  0.00  0.00    +0.000 A 
ATOM     24  C   UNL     1      -5.049  15.489  23.894  0.00  0.00    +0.000 A 
ATOM     25  N   UNL     1      -4.100  16.173  24.595  0.00  0.00    +0.000 NA
ATOM     26  C   UNL     1      -2.962  15.575  24.299  0.00  0.00    +0.000 A 
ENDBRANCH  19  22
ENDBRANCH  15  16
ENDBRANCH   5  15
BRANCH   7  27
ATOM     27  C   UNL     1       2.469   8.325  17.942  0.00  0.00    +0.000 C 
BRANCH  27  28
ATOM     28  C   UNL     1       2.490   6.956  18.589  0.00  0.00    +0.000 A 
ATOM     29  C   UNL     1       2.295   6.831  19.985  0.00  0.00    +0.000 A 
ATOM     30  C   UNL     1       1.930   5.605  20.547  0.00  0.00    +0.000 A 
ATOM     31  C   UNL     1       1.730   4.555  19.681  0.00  0.00    +0.000 A 
ATOM     32  C   UNL     1       2.008   4.652  18.334  0.00  0.00    +0.000 A 
ATOM     33  C   UNL     1       2.441   5.821  17.762  0.00  0.00    +0.000 A 
ATOM     34  O   UNL     1       1.634   3.533  17.651  0.00  0.00    +0.000 OA
ATOM     35  C   UNL     1       0.780   2.943  18.649  0.00  0.00    +0.000 C 
ATOM     36  O   UNL     1       1.124   3.371  19.984  0.00  0.00    +0.000 OA
ENDBRANCH  27  28
ENDBRANCH   7  27
TORSDOF 9
ENDMDL
