MODEL 1
REMARK VINA RESULT:      -7.5      0.000      0.000
REMARK  Name = 
REMARK  2 active torsions:
REMARK  status: ('A' for Active; 'I' for Inactive)
REMARK    1  A    between atoms: C_2  and  C_13
REMARK    2  A    between atoms: N_3  and  C_4
REMARK                            x       y       z     vdW  Elec       q    Type
REMARK                         _______ _______ _______ _____ _____    ______ ____
ROOT
ATOM      1  O   UNL     1       6.539   5.187  19.802  0.00  0.00    +0.000 OA
ATOM      2  C   UNL     1       6.469   4.614  18.726  0.00  0.00    +0.000 C 
ATOM      3  N   UNL     1       5.543   3.528  18.517  0.00  0.00    +0.000 N 
ATOM      4  H   UNL     1       5.504   3.105  17.601  0.00  0.00    +0.000 HD
ENDROOT
BRANCH   3   5
ATOM      5  C   UNL     1       4.688   3.027  19.489  0.00  0.00    +0.000 A 
ATOM      6  C   UNL     1       4.931   2.145  20.520  0.00  0.00    +0.000 A 
ATOM      7  N   UNL     1       3.800   1.941  21.275  0.00  0.00    +0.000 NA
ATOM      8  C   UNL     1       2.861   2.674  20.718  0.00  0.00    +0.000 A 
ATOM      9  N   UNL     1       3.356   3.337  19.622  0.00  0.00    +0.000 N 
ATOM     10  C   UNL     1       2.564   4.227  18.796  0.00  0.00    +0.000 C 
ATOM     11  C   UNL     1       1.062   4.007  18.973  0.00  0.00    +0.000 C 
ATOM     12  C   UNL     1       0.706   3.932  20.457  0.00  0.00    +0.000 C 
ATOM     13  C   UNL     1       1.427   2.763  21.130  0.00  0.00    +0.000 C 
ENDBRANCH   3   5
BRANCH   2  14
ATOM     14  C   UNL     1       7.278   4.962  17.484  0.00  0.00    +0.000 C 
ATOM     15  C   UNL     1       7.435   6.479  17.350  0.00  0.00    +0.000 C 
ATOM     16  C   UNL     1       6.139   7.128  16.872  0.00  0.00    +0.000 C 
ATOM     17  N   UNL     1       5.740   6.578  15.586  0.00  0.00    +0.000 NA
ATOM     18  C   UNL     1       5.507   5.139  15.639  0.00  0.00    +0.000 C 
ATOM     19  C   UNL     1       6.698   4.358  16.197  0.00  0.00    +0.000 C 
ATOM     20  H   UNL     1       6.436   6.798  14.872  0.00  0.00    +0.000 HD
ENDBRANCH   2  14
TORSDOF 2
ENDMDL
MODEL 2
REMARK VINA RESULT:      -7.3      1.909      2.380
REMARK  Name = 
REMARK  2 active torsions:
REMARK  status: ('A' for Active; 'I' for Inactive)
REMARK    1  A    between atoms: C_2  and  C_13
REMARK    2  A    between atoms: N_3  and  C_4
REMARK                            x       y       z     vdW  Elec       q    Type
REMARK                         _______ _______ _______ _____ _____    ______ ____
ROOT
ATOM      1  O   UNL     1       4.700   5.292  16.441  0.00  0.00    +0.000 OA
ATOM      2  C   UNL     1       5.616   4.694  16.986  0.00  0.00    +0.000 C 
ATOM      3  N   UNL     1       5.360   3.590  17.878  0.00  0.00    +0.000 N 
ATOM      4  H   UNL     1       6.152   3.111  18.282  0.00  0.00    +0.000 HD
ENDROOT
BRANCH   3   5
ATOM      5  C   UNL     1       4.095   3.128  18.213  0.00  0.00    +0.000 A 
ATOM      6  C   UNL     1       3.438   1.977  17.837  0.00  0.00    +0.000 A 
ATOM      7  N   UNL     1       2.199   1.895  18.430  0.00  0.00    +0.000 NA
ATOM      8  C   UNL     1       2.078   2.985  19.157  0.00  0.00    +0.000 A 
ATOM      9  N   UNL     1       3.201   3.767  19.041  0.00  0.00    +0.000 N 
ATOM     10  C   UNL     1       3.372   5.034  19.724  0.00  0.00    +0.000 C 
ATOM     11  C   UNL     1       2.046   5.624  20.201  0.00  0.00    +0.000 C 
ATOM     12  C   UNL     1       1.213   4.557  20.910  0.00  0.00    +0.000 C 
ATOM     13  C   UNL     1       0.890   3.401  19.961  0.00  0.00    +0.000 C 
ENDBRANCH   3   5
BRANCH   2  14
ATOM     14  C   UNL     1       7.098   4.979  16.790  0.00  0.00    +0.000 C 
ATOM     15  C   UNL     1       7.889   4.603  18.046  0.00  0.00    +0.000 C 
ATOM     16  C   UNL     1       7.685   5.630  19.155  0.00  0.00    +0.000 C 
ATOM     17  N   UNL     1       8.103   6.950  18.709  0.00  0.00    +0.000 NA
ATOM     18  C   UNL     1       7.351   7.415  17.549  0.00  0.00    +0.000 C 
ATOM     19  C   UNL     1       7.385   6.430  16.378  0.00  0.00    +0.000 C 
ATOM     20  H   UNL     1       9.104   6.959  18.510  0.00  0.00    +0.000 HD
ENDBRANCH   2  14
TORSDOF 2
ENDMDL
MODEL 3
REMARK VINA RESULT:      -7.3      1.717      6.106
REMARK  Name = 
REMARK  2 active torsions:
REMARK  status: ('A' for Active; 'I' for Inactive)
REMARK    1  A    between atoms: C_2  and  C_13
REMARK    2  A    between atoms: N_3  and  C_4
REMARK                            x       y       z     vdW  Elec       q    Type
REMARK                         _______ _______ _______ _____ _____    ______ ____
ROOT
ATOM      1  O   UNL     1       2.263   5.840  18.429  0.00  0.00    +0.000 OA
ATOM      2  C   UNL     1       2.614   4.674  18.336  0.00  0.00    +0.000 C 
ATOM      3  N   UNL     1       3.870   4.318  17.724  0.00  0.00    +0.000 N 
ATOM      4  H   UNL     1       4.127   3.342  17.696  0.00  0.00    +0.000 HD
ENDROOT
BRANCH   3   5
ATOM      5  C   UNL     1       4.763   5.229  17.177  0.00  0.00    +0.000 A 
ATOM      6  C   UNL     1       4.750   5.864  15.953  0.00  0.00    +0.000 A 
ATOM      7  N   UNL     1       5.819   6.720  15.827  0.00  0.00    +0.000 NA
ATOM      8  C   UNL     1       6.497   6.614  16.949  0.00  0.00    +0.000 A 
ATOM      9  N   UNL     1       5.897   5.708  17.789  0.00  0.00    +0.000 N 
ATOM     10  C   UNL     1       6.405   5.373  19.104  0.00  0.00    +0.000 C 
ATOM     11  C   UNL     1       7.873   5.758  19.279  0.00  0.00    +0.000 C 
ATOM     12  C   UNL     1       8.113   7.183  18.781  0.00  0.00    +0.000 C 
ATOM     13  C   UNL     1       7.778   7.302  17.293  0.00  0.00    +0.000 C 
ENDBRANCH   3   5
BRANCH   2  14
ATOM     14  C   UNL     1       1.839   3.473  18.861  0.00  0.00    +0.000 C 
ATOM     15  C   UNL     1       1.002   3.863  20.082  0.00  0.00    +0.000 C 
ATOM     16  C   UNL     1       1.877   4.028  21.321  0.00  0.00    +0.000 C 
ATOM     17  N   UNL     1       2.589   2.793  21.609  0.00  0.00    +0.000 NA
ATOM     18  C   UNL     1       3.464   2.381  20.516  0.00  0.00    +0.000 C 
ATOM     19  C   UNL     1       2.735   2.267  19.175  0.00  0.00    +0.000 C 
ATOM     20  H   UNL     1       1.932   2.046  21.837  0.00  0.00    +0.000 HD
ENDBRANCH   2  14
TORSDOF 2
ENDMDL
MODEL 4
REMARK VINA RESULT:      -7.1      1.616      6.146
REMARK  Name = 
REMARK  2 active torsions:
REMARK  status: ('A' for Active; 'I' for Inactive)
REMARK    1  A    between atoms: C_2  and  C_13
REMARK    2  A    between atoms: N_3  and  C_4
REMARK                            x       y       z     vdW  Elec       q    Type
REMARK                         _______ _______ _______ _____ _____    ______ ____
ROOT
ATOM      1  O   UNL     1       3.644   4.985  19.685  0.00  0.00    +0.000 OA
ATOM      2  C   UNL     1       3.833   3.865  19.236  0.00  0.00    +0.000 C 
ATOM      3  N   UNL     1       4.661   3.656  18.073  0.00  0.00    +0.000 N 
ATOM      4  H   UNL     1       4.808   2.708  17.757  0.00  0.00    +0.000 HD
ENDROOT
BRANCH   3   5
ATOM      5  C   UNL     1       5.283   4.671  17.360  0.00  0.00    +0.000 A 
ATOM      6  C   UNL     1       5.075   5.109  16.069  0.00  0.00    +0.000 A 
ATOM      7  N   UNL     1       5.895   6.172  15.768  0.00  0.00    +0.000 NA
ATOM      8  C   UNL     1       6.613   6.388  16.849  0.00  0.00    +0.000 A 
ATOM      9  N   UNL     1       6.282   5.488  17.833  0.00  0.00    +0.000 N 
ATOM     10  C   UNL     1       6.898   5.470  19.145  0.00  0.00    +0.000 C 
ATOM     11  C   UNL     1       8.230   6.217  19.175  0.00  0.00    +0.000 C 
ATOM     12  C   UNL     1       8.095   7.575  18.488  0.00  0.00    +0.000 C 
ATOM     13  C   UNL     1       7.694   7.405  17.021  0.00  0.00    +0.000 C 
ENDBRANCH   3   5
BRANCH   2  14
ATOM     14  C   UNL     1       3.285   2.572  19.824  0.00  0.00    +0.000 C 
ATOM     15  C   UNL     1       2.300   1.913  18.854  0.00  0.00    +0.000 C 
ATOM     16  C   UNL     1       0.964   2.649  18.840  0.00  0.00    +0.000 C 
ATOM     17  N   UNL     1       0.379   2.665  20.172  0.00  0.00    +0.000 NA
ATOM     18  C   UNL     1       1.228   3.335  21.150  0.00  0.00    +0.000 C 
ATOM     19  C   UNL     1       2.646   2.761  21.207  0.00  0.00    +0.000 C 
ATOM     20  H   UNL     1       0.165   1.716  20.479  0.00  0.00    +0.000 HD
ENDBRANCH   2  14
TORSDOF 2
ENDMDL
MODEL 5
REMARK VINA RESULT:      -7.1      2.039      2.899
REMARK  Name = 
REMARK  2 active torsions:
REMARK  status: ('A' for Active; 'I' for Inactive)
REMARK    1  A    between atoms: C_2  and  C_13
REMARK    2  A    between atoms: N_3  and  C_4
REMARK                            x       y       z     vdW  Elec       q    Type
REMARK                         _______ _______ _______ _____ _____    ______ ____
ROOT
ATOM      1  O   UNL     1       4.056   6.986  16.844  0.00  0.00    +0.000 OA
ATOM      2  C   UNL     1       5.024   6.542  17.442  0.00  0.00    +0.000 C 
ATOM      3  N   UNL     1       4.866   5.754  18.639  0.00  0.00    +0.000 N 
ATOM      4  H   UNL     1       5.697   5.387  19.081  0.00  0.00    +0.000 HD
ENDROOT
BRANCH   3   5
ATOM      5  C   UNL     1       3.644   5.454  19.226  0.00  0.00    +0.000 A 
ATOM      6  C   UNL     1       2.842   6.213  20.052  0.00  0.00    +0.000 A 
ATOM      7  N   UNL     1       1.691   5.537  20.383  0.00  0.00    +0.000 NA
ATOM      8  C   UNL     1       1.777   4.369  19.783  0.00  0.00    +0.000 A 
ATOM      9  N   UNL     1       2.954   4.274  19.083  0.00  0.00    +0.000 N 
ATOM     10  C   UNL     1       3.340   3.107  18.314  0.00  0.00    +0.000 C 
ATOM     11  C   UNL     1       2.559   1.857  18.718  0.00  0.00    +0.000 C 
ATOM     12  C   UNL     1       1.066   2.169  18.810  0.00  0.00    +0.000 C 
ATOM     13  C   UNL     1       0.799   3.242  19.868  0.00  0.00    +0.000 C 
ENDBRANCH   3   5
BRANCH   2  14
ATOM     14  C   UNL     1       6.477   6.706  17.018  0.00  0.00    +0.000 C 
ATOM     15  C   UNL     1       6.787   5.825  15.805  0.00  0.00    +0.000 C 
ATOM     16  C   UNL     1       6.914   4.358  16.205  0.00  0.00    +0.000 C 
ATOM     17  N   UNL     1       7.966   4.191  17.195  0.00  0.00    +0.000 NA
ATOM     18  C   UNL     1       7.717   4.950  18.415  0.00  0.00    +0.000 C 
ATOM     19  C   UNL     1       7.472   6.438  18.156  0.00  0.00    +0.000 C 
ATOM     20  H   UNL     1       8.872   4.444  16.799  0.00  0.00    +0.000 HD
ENDBRANCH   2  14
TORSDOF 2
ENDMDL
MODEL 6
REMARK VINA RESULT:      -7.0      1.740      5.933
REMARK  Name = 
REMARK  2 active torsions:
REMARK  status: ('A' for Active; 'I' for Inactive)
REMARK    1  A    between atoms: C_2  and  C_13
REMARK    2  A    between atoms: N_3  and  C_4
REMARK                            x       y       z     vdW  Elec       q    Type
REMARK                         _______ _______ _______ _____ _____    ______ ____
ROOT
ATOM      1  O   UNL     1       3.649   5.262  19.315  0.00  0.00    +0.000 OA
ATOM      2  C   UNL     1       3.999   4.102  19.474  0.00  0.00    +0.000 C 
ATOM      3  N   UNL     1       5.223   3.606  18.894  0.00  0.00    +0.000 N 
ATOM      4  H   UNL     1       5.482   2.647  19.078  0.00  0.00    +0.000 HD
ENDROOT
BRANCH   3   5
ATOM      5  C   UNL     1       6.081   4.360  18.106  0.00  0.00    +0.000 A 
ATOM      6  C   UNL     1       7.077   5.242  18.467  0.00  0.00    +0.000 A 
ATOM      7  N   UNL     1       7.712   5.753  17.359  0.00  0.00    +0.000 NA
ATOM      8  C   UNL     1       7.114   5.209  16.321  0.00  0.00    +0.000 A 
ATOM      9  N   UNL     1       6.109   4.369  16.732  0.00  0.00    +0.000 N 
ATOM     10  C   UNL     1       5.266   3.618  15.822  0.00  0.00    +0.000 C 
ATOM     11  C   UNL     1       5.291   4.184  14.402  0.00  0.00    +0.000 C 
ATOM     12  C   UNL     1       6.729   4.452  13.960  0.00  0.00    +0.000 C 
ATOM     13  C   UNL     1       7.397   5.478  14.878  0.00  0.00    +0.000 C 
ENDBRANCH   3   5
BRANCH   2  14
ATOM     14  C   UNL     1       3.259   3.060  20.300  0.00  0.00    +0.000 C 
ATOM     15  C   UNL     1       2.664   1.978  19.394  0.00  0.00    +0.000 C 
ATOM     16  C   UNL     1       1.430   2.491  18.659  0.00  0.00    +0.000 C 
ATOM     17  N   UNL     1       0.416   2.924  19.607  0.00  0.00    +0.000 NA
ATOM     18  C   UNL     1       0.881   4.003  20.472  0.00  0.00    +0.000 C 
ATOM     19  C   UNL     1       2.179   3.665  21.209  0.00  0.00    +0.000 C 
ATOM     20  H   UNL     1       0.092   2.136  20.169  0.00  0.00    +0.000 HD
ENDBRANCH   2  14
TORSDOF 2
ENDMDL
MODEL 7
REMARK VINA RESULT:      -6.9      1.379      2.184
REMARK  Name = 
REMARK  2 active torsions:
REMARK  status: ('A' for Active; 'I' for Inactive)
REMARK    1  A    between atoms: C_2  and  C_13
REMARK    2  A    between atoms: N_3  and  C_4
REMARK                            x       y       z     vdW  Elec       q    Type
REMARK                         _______ _______ _______ _____ _____    ______ ____
ROOT
ATOM      1  O   UNL     1       5.038   5.710  19.330  0.00  0.00    +0.000 OA
ATOM      2  C   UNL     1       5.605   4.860  18.660  0.00  0.00    +0.000 C 
ATOM      3  N   UNL     1       4.872   3.777  18.052  0.00  0.00    +0.000 N 
ATOM      4  H   UNL     1       5.383   3.116  17.484  0.00  0.00    +0.000 HD
ENDROOT
BRANCH   3   5
ATOM      5  C   UNL     1       3.504   3.583  18.184  0.00  0.00    +0.000 A 
ATOM      6  C   UNL     1       2.507   3.591  17.231  0.00  0.00    +0.000 A 
ATOM      7  N   UNL     1       1.282   3.322  17.794  0.00  0.00    +0.000 NA
ATOM      8  C   UNL     1       1.506   3.160  19.080  0.00  0.00    +0.000 A 
ATOM      9  N   UNL     1       2.840   3.326  19.360  0.00  0.00    +0.000 N 
ATOM     10  C   UNL     1       3.402   3.209  20.690  0.00  0.00    +0.000 C 
ATOM     11  C   UNL     1       2.345   3.339  21.785  0.00  0.00    +0.000 C 
ATOM     12  C   UNL     1       1.133   2.467  21.462  0.00  0.00    +0.000 C 
ATOM     13  C   UNL     1       0.488   2.900  20.143  0.00  0.00    +0.000 C 
ENDBRANCH   3   5
BRANCH   2  14
ATOM     14  C   UNL     1       7.093   4.833  18.341  0.00  0.00    +0.000 C 
ATOM     15  C   UNL     1       7.732   6.194  18.632  0.00  0.00    +0.000 C 
ATOM     16  C   UNL     1       7.368   7.215  17.559  0.00  0.00    +0.000 C 
ATOM     17  N   UNL     1       7.807   6.756  16.251  0.00  0.00    +0.000 NA
ATOM     18  C   UNL     1       7.193   5.490  15.865  0.00  0.00    +0.000 C 
ATOM     19  C   UNL     1       7.395   4.384  16.904  0.00  0.00    +0.000 C 
ATOM     20  H   UNL     1       8.824   6.680  16.221  0.00  0.00    +0.000 HD
ENDBRANCH   2  14
TORSDOF 2
ENDMDL
MODEL 8
REMARK VINA RESULT:      -6.8      2.002      2.632
REMARK  Name = 
REMARK  2 active torsions:
REMARK  status: ('A' for Active; 'I' for Inactive)
REMARK    1  A    between atoms: C_2  and  C_13
REMARK    2  A    between atoms: N_3  and  C_4
REMARK                            x       y       z     vdW  Elec       q    Type
REMARK                         _______ _______ _______ _____ _____    ______ ____
ROOT
ATOM      1  O   UNL     1       5.686   5.245  18.958  0.00  0.00    +0.000 OA
ATOM      2  C   UNL     1       5.197   5.947  18.085  0.00  0.00    +0.000 C 
ATOM      3  N   UNL     1       3.781   6.219  18.053  0.00  0.00    +0.000 N 
ATOM      4  H   UNL     1       3.430   6.827  17.327  0.00  0.00    +0.000 HD
ENDROOT
BRANCH   3   5
ATOM      5  C   UNL     1       2.862   5.711  18.960  0.00  0.00    +0.000 A 
ATOM      6  C   UNL     1       2.310   6.285  20.085  0.00  0.00    +0.000 A 
ATOM      7  N   UNL     1       1.410   5.435  20.685  0.00  0.00    +0.000 NA
ATOM      8  C   UNL     1       1.408   4.342  19.954  0.00  0.00    +0.000 A 
ATOM      9  N   UNL     1       2.287   4.463  18.906  0.00  0.00    +0.000 N 
ATOM     10  C   UNL     1       2.510   3.425  17.919  0.00  0.00    +0.000 C 
ATOM     11  C   UNL     1       2.039   2.052  18.399  0.00  0.00    +0.000 C 
ATOM     12  C   UNL     1       0.639   2.151  19.003  0.00  0.00    +0.000 C 
ATOM     13  C   UNL     1       0.634   3.090  20.212  0.00  0.00    +0.000 C 
ENDBRANCH   3   5
BRANCH   2  14
ATOM     14  C   UNL     1       5.969   6.643  16.973  0.00  0.00    +0.000 C 
ATOM     15  C   UNL     1       5.221   6.525  15.643  0.00  0.00    +0.000 C 
ATOM     16  C   UNL     1       5.350   5.122  15.059  0.00  0.00    +0.000 C 
ATOM     17  N   UNL     1       6.749   4.786  14.847  0.00  0.00    +0.000 NA
ATOM     18  C   UNL     1       7.526   4.811  16.081  0.00  0.00    +0.000 C 
ATOM     19  C   UNL     1       7.413   6.139  16.835  0.00  0.00    +0.000 C 
ATOM     20  H   UNL     1       7.165   5.409  14.154  0.00  0.00    +0.000 HD
ENDBRANCH   2  14
TORSDOF 2
ENDMDL
MODEL 9
REMARK VINA RESULT:      -6.8      1.328      1.343
REMARK  Name = 
REMARK  2 active torsions:
REMARK  status: ('A' for Active; 'I' for Inactive)
REMARK    1  A    between atoms: C_2  and  C_13
REMARK    2  A    between atoms: N_3  and  C_4
REMARK                            x       y       z     vdW  Elec       q    Type
REMARK                         _______ _______ _______ _____ _____    ______ ____
ROOT
ATOM      1  O   UNL     1       6.360   4.270  19.281  0.00  0.00    +0.000 OA
ATOM      2  C   UNL     1       6.143   4.418  18.088  0.00  0.00    +0.000 C 
ATOM      3  N   UNL     1       4.974   3.845  17.466  0.00  0.00    +0.000 N 
ATOM      4  H   UNL     1       4.826   4.019  16.482  0.00  0.00    +0.000 HD
ENDROOT
BRANCH   3   5
ATOM      5  C   UNL     1       4.028   3.077  18.129  0.00  0.00    +0.000 A 
ATOM      6  C   UNL     1       3.707   1.743  17.990  0.00  0.00    +0.000 A 
ATOM      7  N   UNL     1       2.721   1.376  18.875  0.00  0.00    +0.000 NA
ATOM      8  C   UNL     1       2.421   2.464  19.549  0.00  0.00    +0.000 A 
ATOM      9  N   UNL     1       3.182   3.522  19.116  0.00  0.00    +0.000 N 
ATOM     10  C   UNL     1       3.085   4.860  19.666  0.00  0.00    +0.000 C 
ATOM     11  C   UNL     1       1.778   5.087  20.425  0.00  0.00    +0.000 C 
ATOM     12  C   UNL     1       1.505   3.921  21.375  0.00  0.00    +0.000 C 
ATOM     13  C   UNL     1       1.368   2.609  20.599  0.00  0.00    +0.000 C 
ENDBRANCH   3   5
BRANCH   2  14
ATOM     14  C   UNL     1       7.004   5.222  17.125  0.00  0.00    +0.000 C 
ATOM     15  C   UNL     1       6.717   6.719  17.266  0.00  0.00    +0.000 C 
ATOM     16  C   UNL     1       5.385   7.089  16.619  0.00  0.00    +0.000 C 
ATOM     17  N   UNL     1       5.391   6.738  15.208  0.00  0.00    +0.000 NA
ATOM     18  C   UNL     1       5.596   5.312  14.984  0.00  0.00    +0.000 C 
ATOM     19  C   UNL     1       6.857   4.773  15.664  0.00  0.00    +0.000 C 
ATOM     20  H   UNL     1       6.097   7.280  14.708  0.00  0.00    +0.000 HD
ENDBRANCH   2  14
TORSDOF 2
ENDMDL
