MODEL 1
REMARK VINA RESULT:      -7.1      0.000      0.000
REMARK  Name = 
REMARK  5 active torsions:
REMARK  status: ('A' for Active; 'I' for Inactive)
REMARK    1  A    between atoms: C_1  and  C_2
REMARK    2  A    between atoms: C_2  and  C_4
REMARK    3  A    between atoms: C_6  and  N_7
REMARK    4  A    between atoms: C_10  and  S_11
REMARK    5  A    between atoms: S_11  and  C_12
REMARK                            x       y       z     vdW  Elec       q    Type
REMARK                         _______ _______ _______ _____ _____    ______ ____
ROOT
ATOM      1  C   UNL     1       6.495   4.603  15.325  0.00  0.00    +0.000 A 
ATOM      2  C   UNL     1       7.209   5.043  16.420  0.00  0.00    +0.000 A 
ATOM      3  C   UNL     1       6.532   4.795  17.673  0.00  0.00    +0.000 A 
ATOM      4  C   UNL     1       5.298   4.194  17.471  0.00  0.00    +0.000 A 
ATOM      5  S   UNL     1       5.024   3.904  15.802  0.00  0.00    +0.000 S 
ENDROOT
BRANCH   1   7
ATOM      6  C   UNL     1       6.252   3.713  12.939  0.00  0.00    +0.000 C 
ATOM      7  C   UNL     1       6.896   4.668  13.920  0.00  0.00    +0.000 C 
ATOM      8  O   UNL     1       7.724   5.486  13.518  0.00  0.00    +0.000 OA
ENDBRANCH   1   7
BRANCH   3   9
ATOM      9  N   UNL     1       7.126   5.135  18.951  0.00  0.00    +0.000 N 
ATOM     10  O   UNL     1       8.331   4.882  19.083  0.00  0.00    +0.000 OA
ATOM     11  O   UNL     1       6.414   5.659  19.813  0.00  0.00    +0.000 OA
ENDBRANCH   3   9
BRANCH   4  12
ATOM     12  S   UNL     1       4.095   3.585  18.615  0.00  0.00    +0.000 S 
BRANCH  12  13
ATOM     13  C   UNL     1       3.183   5.090  18.955  0.00  0.00    +0.000 A 
ATOM     14  C   UNL     1       3.328   6.136  18.030  0.00  0.00    +0.000 A 
ATOM     15  C   UNL     1       2.745   7.386  18.256  0.00  0.00    +0.000 A 
ATOM     16  C   UNL     1       2.010   7.606  19.417  0.00  0.00    +0.000 A 
ATOM     17 CL   UNL     1       1.317   9.153  19.708  0.00  0.00    +0.000 Cl
ATOM     18  C   UNL     1       1.851   6.589  20.351  0.00  0.00    +0.000 A 
ATOM     19  C   UNL     1       2.444   5.338  20.130  0.00  0.00    +0.000 A 
ATOM     20 CL   UNL     1       2.258   4.165  21.386  0.00  0.00    +0.000 Cl
ENDBRANCH  12  13
ENDBRANCH   4  12
TORSDOF 4
ENDMDL
MODEL 2
REMARK VINA RESULT:      -7.1      1.854      2.668
REMARK  Name = 
REMARK  5 active torsions:
REMARK  status: ('A' for Active; 'I' for Inactive)
REMARK    1  A    between atoms: C_1  and  C_2
REMARK    2  A    between atoms: C_2  and  C_4
REMARK    3  A    between atoms: C_6  and  N_7
REMARK    4  A    between atoms: C_10  and  S_11
REMARK    5  A    between atoms: S_11  and  C_12
REMARK                            x       y       z     vdW  Elec       q    Type
REMARK                         _______ _______ _______ _____ _____    ______ ____
ROOT
ATOM      1  C   UNL     1       6.637   5.275  15.345  0.00  0.00    +0.000 A 
ATOM      2  C   UNL     1       7.031   4.821  16.587  0.00  0.00    +0.000 A 
ATOM      3  C   UNL     1       6.183   5.292  17.658  0.00  0.00    +0.000 A 
ATOM      4  C   UNL     1       5.180   6.124  17.180  0.00  0.00    +0.000 A 
ATOM      5  S   UNL     1       5.263   6.263  15.472  0.00  0.00    +0.000 S 
ENDROOT
BRANCH   1   7
ATOM      6  C   UNL     1       6.616   3.904  13.187  0.00  0.00    +0.000 C 
ATOM      7  C   UNL     1       7.248   4.971  14.053  0.00  0.00    +0.000 C 
ATOM      8  O   UNL     1       8.246   5.569  13.649  0.00  0.00    +0.000 OA
ENDBRANCH   1   7
BRANCH   3   9
ATOM      9  N   UNL     1       6.389   4.895  19.037  0.00  0.00    +0.000 N 
ATOM     10  O   UNL     1       5.803   3.870  19.408  0.00  0.00    +0.000 OA
ATOM     11  O   UNL     1       7.133   5.581  19.744  0.00  0.00    +0.000 OA
ENDBRANCH   3   9
BRANCH   4  12
ATOM     12  S   UNL     1       3.820   6.902  17.999  0.00  0.00    +0.000 S 
BRANCH  12  13
ATOM     13  C   UNL     1       2.858   5.462  18.463  0.00  0.00    +0.000 A 
ATOM     14  C   UNL     1       2.875   4.379  17.570  0.00  0.00    +0.000 A 
ATOM     15  C   UNL     1       2.077   3.252  17.786  0.00  0.00    +0.000 A 
ATOM     16  C   UNL     1       1.247   3.196  18.900  0.00  0.00    +0.000 A 
ATOM     17 CL   UNL     1       0.243   1.821  19.150  0.00  0.00    +0.000 Cl
ATOM     18  C   UNL     1       1.208   4.254  19.802  0.00  0.00    +0.000 A 
ATOM     19  C   UNL     1       2.000   5.390  19.580  0.00  0.00    +0.000 A 
ATOM     20 CL   UNL     1       1.823   6.685  20.711  0.00  0.00    +0.000 Cl
ENDBRANCH  12  13
ENDBRANCH   4  12
TORSDOF 4
ENDMDL
MODEL 3
REMARK VINA RESULT:      -7.0      1.110      1.250
REMARK  Name = 
REMARK  5 active torsions:
REMARK  status: ('A' for Active; 'I' for Inactive)
REMARK    1  A    between atoms: C_1  and  C_2
REMARK    2  A    between atoms: C_2  and  C_4
REMARK    3  A    between atoms: C_6  and  N_7
REMARK    4  A    between atoms: C_10  and  S_11
REMARK    5  A    between atoms: S_11  and  C_12
REMARK                            x       y       z     vdW  Elec       q    Type
REMARK                         _______ _______ _______ _____ _____    ______ ____
ROOT
ATOM      1  C   UNL     1       6.248   4.580  15.508  0.00  0.00    +0.000 A 
ATOM      2  C   UNL     1       6.630   4.623  16.833  0.00  0.00    +0.000 A 
ATOM      3  C   UNL     1       5.558   4.286  17.742  0.00  0.00    +0.000 A 
ATOM      4  C   UNL     1       4.378   4.026  17.059  0.00  0.00    +0.000 A 
ATOM      5  S   UNL     1       4.614   4.144  15.364  0.00  0.00    +0.000 S 
ENDROOT
BRANCH   1   7
ATOM      6  C   UNL     1       6.746   4.128  13.040  0.00  0.00    +0.000 C 
ATOM      7  C   UNL     1       7.082   4.835  14.335  0.00  0.00    +0.000 C 
ATOM      8  O   UNL     1       8.032   5.619  14.371  0.00  0.00    +0.000 OA
ENDBRANCH   1   7
BRANCH   3   9
ATOM      9  N   UNL     1       5.754   4.222  19.177  0.00  0.00    +0.000 N 
ATOM     10  O   UNL     1       5.321   3.212  19.748  0.00  0.00    +0.000 OA
ATOM     11  O   UNL     1       6.342   5.153  19.735  0.00  0.00    +0.000 OA
ENDBRANCH   3   9
BRANCH   4  12
ATOM     12  S   UNL     1       2.795   3.482  17.628  0.00  0.00    +0.000 S 
BRANCH  12  13
ATOM     13  C   UNL     1       2.321   4.881  18.645  0.00  0.00    +0.000 A 
ATOM     14  C   UNL     1       2.609   6.156  18.135  0.00  0.00    +0.000 A 
ATOM     15  C   UNL     1       2.377   7.307  18.893  0.00  0.00    +0.000 A 
ATOM     16  C   UNL     1       1.855   7.195  20.178  0.00  0.00    +0.000 A 
ATOM     17 CL   UNL     1       1.596   8.609  21.121  0.00  0.00    +0.000 Cl
ATOM     18  C   UNL     1       1.561   5.944  20.710  0.00  0.00    +0.000 A 
ATOM     19  C   UNL     1       1.804   4.789  19.954  0.00  0.00    +0.000 A 
ATOM     20 CL   UNL     1       1.483   3.278  20.731  0.00  0.00    +0.000 Cl
ENDBRANCH  12  13
ENDBRANCH   4  12
TORSDOF 4
ENDMDL
MODEL 4
REMARK VINA RESULT:      -7.0      4.060      6.239
REMARK  Name = 
REMARK  5 active torsions:
REMARK  status: ('A' for Active; 'I' for Inactive)
REMARK    1  A    between atoms: C_1  and  C_2
REMARK    2  A    between atoms: C_2  and  C_4
REMARK    3  A    between atoms: C_6  and  N_7
REMARK    4  A    between atoms: C_10  and  S_11
REMARK    5  A    between atoms: S_11  and  C_12
REMARK                            x       y       z     vdW  Elec       q    Type
REMARK                         _______ _______ _______ _____ _____    ______ ____
ROOT
ATOM      1  C   UNL     1       2.245   6.871  19.669  0.00  0.00    +0.000 A 
ATOM      2  C   UNL     1       1.610   5.920  20.440  0.00  0.00    +0.000 A 
ATOM      3  C   UNL     1       2.313   4.657  20.472  0.00  0.00    +0.000 A 
ATOM      4  C   UNL     1       3.456   4.693  19.685  0.00  0.00    +0.000 A 
ATOM      5  S   UNL     1       3.668   6.246  18.987  0.00  0.00    +0.000 S 
ENDROOT
BRANCH   1   7
ATOM      6  C   UNL     1       2.035   8.859  18.073  0.00  0.00    +0.000 C 
ATOM      7  C   UNL     1       1.827   8.254  19.444  0.00  0.00    +0.000 C 
ATOM      8  O   UNL     1       1.299   8.926  20.332  0.00  0.00    +0.000 OA
ENDBRANCH   1   7
BRANCH   3   9
ATOM      9  N   UNL     1       1.846   3.534  21.261  0.00  0.00    +0.000 N 
ATOM     10  O   UNL     1       2.421   3.343  22.341  0.00  0.00    +0.000 OA
ATOM     11  O   UNL     1       0.911   2.854  20.826  0.00  0.00    +0.000 OA
ENDBRANCH   3   9
BRANCH   4  12
ATOM     12  S   UNL     1       4.731   3.498  19.423  0.00  0.00    +0.000 S 
BRANCH  12  13
ATOM     13  C   UNL     1       5.446   4.120  17.902  0.00  0.00    +0.000 A 
ATOM     14  C   UNL     1       4.868   3.672  16.704  0.00  0.00    +0.000 A 
ATOM     15  C   UNL     1       5.416   4.014  15.465  0.00  0.00    +0.000 A 
ATOM     16  C   UNL     1       6.557   4.808  15.409  0.00  0.00    +0.000 A 
ATOM     17 CL   UNL     1       7.248   5.204  13.884  0.00  0.00    +0.000 Cl
ATOM     18  C   UNL     1       7.152   5.266  16.578  0.00  0.00    +0.000 A 
ATOM     19  C   UNL     1       6.609   4.915  17.823  0.00  0.00    +0.000 A 
ATOM     20 CL   UNL     1       7.466   5.464  19.220  0.00  0.00    +0.000 Cl
ENDBRANCH  12  13
ENDBRANCH   4  12
TORSDOF 4
ENDMDL
MODEL 5
REMARK VINA RESULT:      -7.0      2.016      2.858
REMARK  Name = 
REMARK  5 active torsions:
REMARK  status: ('A' for Active; 'I' for Inactive)
REMARK    1  A    between atoms: C_1  and  C_2
REMARK    2  A    between atoms: C_2  and  C_4
REMARK    3  A    between atoms: C_6  and  N_7
REMARK    4  A    between atoms: C_10  and  S_11
REMARK    5  A    between atoms: S_11  and  C_12
REMARK                            x       y       z     vdW  Elec       q    Type
REMARK                         _______ _______ _______ _____ _____    ______ ____
ROOT
ATOM      1  C   UNL     1       6.322   5.131  15.406  0.00  0.00    +0.000 A 
ATOM      2  C   UNL     1       6.624   4.640  16.660  0.00  0.00    +0.000 A 
ATOM      3  C   UNL     1       5.752   5.152  17.693  0.00  0.00    +0.000 A 
ATOM      4  C   UNL     1       4.828   6.050  17.177  0.00  0.00    +0.000 A 
ATOM      5  S   UNL     1       5.006   6.202  15.477  0.00  0.00    +0.000 S 
ENDROOT
BRANCH   1   7
ATOM      6  C   UNL     1       6.352   3.751  13.253  0.00  0.00    +0.000 C 
ATOM      7  C   UNL     1       6.979   4.803  14.143  0.00  0.00    +0.000 C 
ATOM      8  O   UNL     1       8.011   5.369  13.780  0.00  0.00    +0.000 OA
ENDBRANCH   1   7
BRANCH   3   9
ATOM      9  N   UNL     1       5.862   4.729  19.075  0.00  0.00    +0.000 N 
ATOM     10  O   UNL     1       6.341   5.552  19.866  0.00  0.00    +0.000 OA
ATOM     11  O   UNL     1       5.468   3.600  19.381  0.00  0.00    +0.000 OA
ENDBRANCH   3   9
BRANCH   4  12
ATOM     12  S   UNL     1       3.478   6.902  17.936  0.00  0.00    +0.000 S 
BRANCH  12  13
ATOM     13  C   UNL     1       2.774   5.578  18.919  0.00  0.00    +0.000 A 
ATOM     14  C   UNL     1       2.698   5.793  20.303  0.00  0.00    +0.000 A 
ATOM     15  C   UNL     1       2.264   4.785  21.168  0.00  0.00    +0.000 A 
ATOM     16  C   UNL     1       1.903   3.543  20.657  0.00  0.00    +0.000 A 
ATOM     17 CL   UNL     1       1.396   2.294  21.725  0.00  0.00    +0.000 Cl
ATOM     18  C   UNL     1       1.970   3.300  19.290  0.00  0.00    +0.000 A 
ATOM     19  C   UNL     1       2.415   4.308  18.422  0.00  0.00    +0.000 A 
ATOM     20 CL   UNL     1       2.541   3.885  16.750  0.00  0.00    +0.000 Cl
ENDBRANCH  12  13
ENDBRANCH   4  12
TORSDOF 4
ENDMDL
MODEL 6
REMARK VINA RESULT:      -6.8      1.027      1.111
REMARK  Name = 
REMARK  5 active torsions:
REMARK  status: ('A' for Active; 'I' for Inactive)
REMARK    1  A    between atoms: C_1  and  C_2
REMARK    2  A    between atoms: C_2  and  C_4
REMARK    3  A    between atoms: C_6  and  N_7
REMARK    4  A    between atoms: C_10  and  S_11
REMARK    5  A    between atoms: S_11  and  C_12
REMARK                            x       y       z     vdW  Elec       q    Type
REMARK                         _______ _______ _______ _____ _____    ______ ____
ROOT
ATOM      1  C   UNL     1       6.550   4.581  15.119  0.00  0.00    +0.000 A 
ATOM      2  C   UNL     1       7.338   5.316  15.980  0.00  0.00    +0.000 A 
ATOM      3  C   UNL     1       6.852   5.302  17.342  0.00  0.00    +0.000 A 
ATOM      4  C   UNL     1       5.679   4.569  17.453  0.00  0.00    +0.000 A 
ATOM      5  S   UNL     1       5.238   3.887  15.942  0.00  0.00    +0.000 S 
ENDROOT
BRANCH   1   7
ATOM      6  C   UNL     1       7.779   5.221  12.969  0.00  0.00    +0.000 C 
ATOM      7  C   UNL     1       6.765   4.360  13.690  0.00  0.00    +0.000 C 
ATOM      8  O   UNL     1       6.160   3.485  13.069  0.00  0.00    +0.000 OA
ENDBRANCH   1   7
BRANCH   3   9
ATOM      9  N   UNL     1       7.556   5.971  18.419  0.00  0.00    +0.000 N 
ATOM     10  O   UNL     1       7.752   5.306  19.445  0.00  0.00    +0.000 OA
ATOM     11  O   UNL     1       7.924   7.137  18.250  0.00  0.00    +0.000 OA
ENDBRANCH   3   9
BRANCH   4  12
ATOM     12  S   UNL     1       4.703   4.135  18.862  0.00  0.00    +0.000 S 
BRANCH  12  13
ATOM     13  C   UNL     1       3.594   5.542  18.929  0.00  0.00    +0.000 A 
ATOM     14  C   UNL     1       3.784   6.541  17.962  0.00  0.00    +0.000 A 
ATOM     15  C   UNL     1       3.043   7.726  17.992  0.00  0.00    +0.000 A 
ATOM     16  C   UNL     1       2.101   7.927  18.995  0.00  0.00    +0.000 A 
ATOM     17 CL   UNL     1       1.210   9.398  19.047  0.00  0.00    +0.000 Cl
ATOM     18  C   UNL     1       1.891   6.956  19.967  0.00  0.00    +0.000 A 
ATOM     19  C   UNL     1       2.642   5.772  19.945  0.00  0.00    +0.000 A 
ATOM     20 CL   UNL     1       2.367   4.661  21.241  0.00  0.00    +0.000 Cl
ENDBRANCH  12  13
ENDBRANCH   4  12
TORSDOF 4
ENDMDL
MODEL 7
REMARK VINA RESULT:      -6.8      0.935      1.076
REMARK  Name = 
REMARK  5 active torsions:
REMARK  status: ('A' for Active; 'I' for Inactive)
REMARK    1  A    between atoms: C_1  and  C_2
REMARK    2  A    between atoms: C_2  and  C_4
REMARK    3  A    between atoms: C_6  and  N_7
REMARK    4  A    between atoms: C_10  and  S_11
REMARK    5  A    between atoms: S_11  and  C_12
REMARK                            x       y       z     vdW  Elec       q    Type
REMARK                         _______ _______ _______ _____ _____    ______ ____
ROOT
ATOM      1  C   UNL     1       6.250   4.319  14.681  0.00  0.00    +0.000 A 
ATOM      2  C   UNL     1       7.136   4.986  15.502  0.00  0.00    +0.000 A 
ATOM      3  C   UNL     1       6.721   5.003  16.887  0.00  0.00    +0.000 A 
ATOM      4  C   UNL     1       5.501   4.363  17.057  0.00  0.00    +0.000 A 
ATOM      5  S   UNL     1       4.931   3.726  15.570  0.00  0.00    +0.000 S 
ENDROOT
BRANCH   1   7
ATOM      6  C   UNL     1       5.222   3.436  12.512  0.00  0.00    +0.000 C 
ATOM      7  C   UNL     1       6.374   4.090  13.243  0.00  0.00    +0.000 C 
ATOM      8  O   UNL     1       7.377   4.431  12.614  0.00  0.00    +0.000 OA
ENDBRANCH   1   7
BRANCH   3   9
ATOM      9  N   UNL     1       7.529   5.608  17.927  0.00  0.00    +0.000 N 
ATOM     10  O   UNL     1       7.623   6.843  17.903  0.00  0.00    +0.000 OA
ATOM     11  O   UNL     1       8.055   4.874  18.769  0.00  0.00    +0.000 OA
ENDBRANCH   3   9
BRANCH   4  12
ATOM     12  S   UNL     1       4.567   3.999  18.514  0.00  0.00    +0.000 S 
BRANCH  12  13
ATOM     13  C   UNL     1       3.563   5.479  18.629  0.00  0.00    +0.000 A 
ATOM     14  C   UNL     1       3.799   6.477  17.671  0.00  0.00    +0.000 A 
ATOM     15  C   UNL     1       3.144   7.710  17.735  0.00  0.00    +0.000 A 
ATOM     16  C   UNL     1       2.245   7.963  18.766  0.00  0.00    +0.000 A 
ATOM     17 CL   UNL     1       1.461   9.491  18.861  0.00  0.00    +0.000 Cl
ATOM     18  C   UNL     1       1.991   6.994  19.730  0.00  0.00    +0.000 A 
ATOM     19  C   UNL     1       2.656   5.760  19.672  0.00  0.00    +0.000 A 
ATOM     20 CL   UNL     1       2.336   4.652  20.960  0.00  0.00    +0.000 Cl
ENDBRANCH  12  13
ENDBRANCH   4  12
TORSDOF 4
ENDMDL
MODEL 8
REMARK VINA RESULT:      -6.7      1.836      2.639
REMARK  Name = 
REMARK  5 active torsions:
REMARK  status: ('A' for Active; 'I' for Inactive)
REMARK    1  A    between atoms: C_1  and  C_2
REMARK    2  A    between atoms: C_2  and  C_4
REMARK    3  A    between atoms: C_6  and  N_7
REMARK    4  A    between atoms: C_10  and  S_11
REMARK    5  A    between atoms: S_11  and  C_12
REMARK                            x       y       z     vdW  Elec       q    Type
REMARK                         _______ _______ _______ _____ _____    ______ ____
ROOT
ATOM      1  C   UNL     1       6.567   4.816  14.553  0.00  0.00    +0.000 A 
ATOM      2  C   UNL     1       7.162   4.371  15.715  0.00  0.00    +0.000 A 
ATOM      3  C   UNL     1       6.564   4.928  16.907  0.00  0.00    +0.000 A 
ATOM      4  C   UNL     1       5.541   5.812  16.593  0.00  0.00    +0.000 A 
ATOM      5  S   UNL     1       5.305   5.898  14.896  0.00  0.00    +0.000 S 
ENDROOT
BRANCH   1   7
ATOM      6  C   UNL     1       6.069   3.369  12.503  0.00  0.00    +0.000 C 
ATOM      7  C   UNL     1       6.901   4.435  13.182  0.00  0.00    +0.000 C 
ATOM      8  O   UNL     1       7.825   4.969  12.566  0.00  0.00    +0.000 OA
ENDBRANCH   1   7
BRANCH   3   9
ATOM      9  N   UNL     1       7.004   4.558  18.237  0.00  0.00    +0.000 N 
ATOM     10  O   UNL     1       8.218   4.656  18.462  0.00  0.00    +0.000 OA
ATOM     11  O   UNL     1       6.160   4.186  19.057  0.00  0.00    +0.000 OA
ENDBRANCH   3   9
BRANCH   4  12
ATOM     12  S   UNL     1       4.411   6.703  17.621  0.00  0.00    +0.000 S 
BRANCH  12  13
ATOM     13  C   UNL     1       3.310   5.376  18.113  0.00  0.00    +0.000 A 
ATOM     14  C   UNL     1       3.326   4.218  17.321  0.00  0.00    +0.000 A 
ATOM     15  C   UNL     1       2.433   3.170  17.555  0.00  0.00    +0.000 A 
ATOM     16  C   UNL     1       1.506   3.269  18.587  0.00  0.00    +0.000 A 
ATOM     17 CL   UNL     1       0.387   1.991  18.857  0.00  0.00    +0.000 Cl
ATOM     18  C   UNL     1       1.466   4.405  19.389  0.00  0.00    +0.000 A 
ATOM     19  C   UNL     1       2.355   5.462  19.147  0.00  0.00    +0.000 A 
ATOM     20 CL   UNL     1       2.174   6.863  20.143  0.00  0.00    +0.000 Cl
ENDBRANCH  12  13
ENDBRANCH   4  12
TORSDOF 4
ENDMDL
MODEL 9
REMARK VINA RESULT:      -6.6      2.754      3.708
REMARK  Name = 
REMARK  5 active torsions:
REMARK  status: ('A' for Active; 'I' for Inactive)
REMARK    1  A    between atoms: C_1  and  C_2
REMARK    2  A    between atoms: C_2  and  C_4
REMARK    3  A    between atoms: C_6  and  N_7
REMARK    4  A    between atoms: C_10  and  S_11
REMARK    5  A    between atoms: S_11  and  C_12
REMARK                            x       y       z     vdW  Elec       q    Type
REMARK                         _______ _______ _______ _____ _____    ______ ____
ROOT
ATOM      1  C   UNL     1       5.589   4.458  17.774  0.00  0.00    +0.000 A 
ATOM      2  C   UNL     1       4.510   3.781  17.244  0.00  0.00    +0.000 A 
ATOM      3  C   UNL     1       3.289   3.990  17.988  0.00  0.00    +0.000 A 
ATOM      4  C   UNL     1       3.502   4.808  19.090  0.00  0.00    +0.000 A 
ATOM      5  S   UNL     1       5.134   5.331  19.157  0.00  0.00    +0.000 S 
ENDROOT
BRANCH   1   7
ATOM      6  C   UNL     1       7.165   4.659  15.770  0.00  0.00    +0.000 C 
ATOM      7  C   UNL     1       6.956   4.491  17.259  0.00  0.00    +0.000 C 
ATOM      8  O   UNL     1       7.934   4.403  18.004  0.00  0.00    +0.000 OA
ENDBRANCH   1   7
BRANCH   3   9
ATOM      9  N   UNL     1       2.026   3.411  17.577  0.00  0.00    +0.000 N 
ATOM     10  O   UNL     1       1.945   2.176  17.622  0.00  0.00    +0.000 OA
ATOM     11  O   UNL     1       1.115   4.167  17.226  0.00  0.00    +0.000 OA
ENDBRANCH   3   9
BRANCH   4  12
ATOM     12  S   UNL     1       2.381   5.471  20.285  0.00  0.00    +0.000 S 
BRANCH  12  13
ATOM     13  C   UNL     1       2.092   7.097  19.586  0.00  0.00    +0.000 A 
ATOM     14  C   UNL     1       2.591   7.324  18.294  0.00  0.00    +0.000 A 
ATOM     15  C   UNL     1       2.511   8.587  17.701  0.00  0.00    +0.000 A 
ATOM     16  C   UNL     1       1.933   9.643  18.398  0.00  0.00    +0.000 A 
ATOM     17 CL   UNL     1       1.861  11.204  17.678  0.00  0.00    +0.000 Cl
ATOM     18  C   UNL     1       1.431   9.448  19.679  0.00  0.00    +0.000 A 
ATOM     19  C   UNL     1       1.520   8.184  20.279  0.00  0.00    +0.000 A 
ATOM     20 CL   UNL     1       0.942   8.059  21.904  0.00  0.00    +0.000 Cl
ENDBRANCH  12  13
ENDBRANCH   4  12
TORSDOF 4
ENDMDL
