MODEL 1
REMARK VINA RESULT:      -6.3      0.000      0.000
REMARK  Name = 
REMARK  4 active torsions:
REMARK  status: ('A' for Active; 'I' for Inactive)
REMARK    1  A    between atoms: O_1  and  C_2
REMARK    2  A    between atoms: C_2  and  CA_3
REMARK    3  A    between atoms: CA_9  and  C_10
REMARK    4  A    between atoms: C_10  and  O_11
REMARK                            x       y       z     vdW  Elec       q    Type
REMARK                         _______ _______ _______ _____ _____    ______ ____
ROOT
ATOM      1  CA  UNL     1       7.241   5.035  18.165  0.00  0.00    +0.000 C 
ATOM      2  C   UNL     1       6.614   5.761  16.980  0.00  0.00    +0.000 C 
ATOM      3  C   UNL     1       5.253   6.344  17.313  0.00  0.00    +0.000 C 
ATOM      4  N   UNL     1       4.379   5.380  17.999  0.00  0.00    +0.000 NA
ATOM      5  C   UNL     1       2.922   5.524  17.837  0.00  0.00    +0.000 C 
ATOM      6  C   UNL     1       2.144   4.257  18.156  0.00  0.00    +0.000 C 
ATOM      7  CA  UNL     1       2.634   3.691  19.481  0.00  0.00    +0.000 C 
ATOM      8  N   UNL     1       4.080   3.439  19.342  0.00  0.00    +0.000 NA
ATOM      9  C   UNL     1       4.935   4.565  19.068  0.00  0.00    +0.000 C 
ATOM     10  N   UNL     1       6.263   4.100  18.756  0.00  0.00    +0.000 NA
ATOM     11  H   UNL     1       4.400   2.474  19.362  0.00  0.00    +0.000 HD
ATOM     12  H   UNL     1       6.554   3.162  19.001  0.00  0.00    +0.000 HD
ENDROOT
BRANCH   1  13
ATOM     13  C   UNL     1       7.840   5.974  19.231  0.00  0.00    +0.000 C 
BRANCH  13  14
ATOM     14  O   UNL     1       8.037   5.295  20.468  0.00  0.00    +0.000 OA
ATOM     15  H   UNL     1       7.171   4.922  20.728  0.00  0.00    +0.000 HD
ENDBRANCH  13  14
ENDBRANCH   1  13
BRANCH   7  16
ATOM     16  C   UNL     1       1.906   2.399  19.872  0.00  0.00    +0.000 C 
BRANCH  16  17
ATOM     17  O   UNL     1       1.823   1.542  18.735  0.00  0.00    +0.000 OA
ATOM     18  H   UNL     1       1.552   0.659  19.055  0.00  0.00    +0.000 HD
ENDBRANCH  16  17
ENDBRANCH   7  16
TORSDOF 4
ENDMDL
MODEL 2
REMARK VINA RESULT:      -6.2      1.057      1.057
REMARK  Name = 
REMARK  4 active torsions:
REMARK  status: ('A' for Active; 'I' for Inactive)
REMARK    1  A    between atoms: O_1  and  C_2
REMARK    2  A    between atoms: C_2  and  CA_3
REMARK    3  A    between atoms: CA_9  and  C_10
REMARK    4  A    between atoms: C_10  and  O_11
REMARK                            x       y       z     vdW  Elec       q    Type
REMARK                         _______ _______ _______ _____ _____    ______ ____
ROOT
ATOM      1  CA  UNL     1       6.882   4.830  18.128  0.00  0.00    +0.000 C 
ATOM      2  C   UNL     1       6.162   5.403  16.912  0.00  0.00    +0.000 C 
ATOM      3  C   UNL     1       4.844   6.060  17.276  0.00  0.00    +0.000 C 
ATOM      4  N   UNL     1       4.021   5.221  18.160  0.00  0.00    +0.000 NA
ATOM      5  C   UNL     1       2.557   5.378  18.104  0.00  0.00    +0.000 C 
ATOM      6  C   UNL     1       1.794   4.185  18.661  0.00  0.00    +0.000 C 
ATOM      7  CA  UNL     1       2.391   3.794  20.005  0.00  0.00    +0.000 C 
ATOM      8  N   UNL     1       3.816   3.490  19.780  0.00  0.00    +0.000 NA
ATOM      9  C   UNL     1       4.658   4.546  19.280  0.00  0.00    +0.000 C 
ATOM     10  N   UNL     1       5.948   4.009  18.923  0.00  0.00    +0.000 NA
ATOM     11  H   UNL     1       4.124   2.529  19.906  0.00  0.00    +0.000 HD
ATOM     12  H   UNL     1       6.247   3.107  19.271  0.00  0.00    +0.000 HD
ENDROOT
BRANCH   1  13
ATOM     13  C   UNL     1       7.584   5.891  18.999  0.00  0.00    +0.000 C 
BRANCH  13  14
ATOM     14  O   UNL     1       7.819   5.407  20.317  0.00  0.00    +0.000 OA
ATOM     15  H   UNL     1       8.731   5.665  20.556  0.00  0.00    +0.000 HD
ENDBRANCH  13  14
ENDBRANCH   1  13
BRANCH   7  16
ATOM     16  C   UNL     1       1.684   2.586  20.632  0.00  0.00    +0.000 C 
BRANCH  16  17
ATOM     17  O   UNL     1       1.725   2.701  22.053  0.00  0.00    +0.000 OA
ATOM     18  H   UNL     1       1.764   1.795  22.418  0.00  0.00    +0.000 HD
ENDBRANCH  16  17
ENDBRANCH   7  16
TORSDOF 4
ENDMDL
MODEL 3
REMARK VINA RESULT:      -6.1      1.779      1.823
REMARK  Name = 
REMARK  4 active torsions:
REMARK  status: ('A' for Active; 'I' for Inactive)
REMARK    1  A    between atoms: O_1  and  C_2
REMARK    2  A    between atoms: C_2  and  CA_3
REMARK    3  A    between atoms: CA_9  and  C_10
REMARK    4  A    between atoms: C_10  and  O_11
REMARK                            x       y       z     vdW  Elec       q    Type
REMARK                         _______ _______ _______ _____ _____    ______ ____
ROOT
ATOM      1  CA  UNL     1       7.090   4.661  17.646  0.00  0.00    +0.000 C 
ATOM      2  C   UNL     1       6.557   4.225  16.285  0.00  0.00    +0.000 C 
ATOM      3  C   UNL     1       5.072   4.493  16.133  0.00  0.00    +0.000 C 
ATOM      4  N   UNL     1       4.293   4.035  17.294  0.00  0.00    +0.000 NA
ATOM      5  C   UNL     1       2.889   3.643  17.080  0.00  0.00    +0.000 C 
ATOM      6  C   UNL     1       2.329   2.755  18.181  0.00  0.00    +0.000 C 
ATOM      7  CA  UNL     1       2.674   3.360  19.534  0.00  0.00    +0.000 C 
ATOM      8  N   UNL     1       4.142   3.476  19.602  0.00  0.00    +0.000 NA
ATOM      9  C   UNL     1       4.796   4.314  18.630  0.00  0.00    +0.000 C 
ATOM     10  N   UNL     1       6.224   4.133  18.718  0.00  0.00    +0.000 NA
ATOM     11  H   UNL     1       4.635   2.895  20.275  0.00  0.00    +0.000 HD
ATOM     12  H   UNL     1       6.643   3.713  19.537  0.00  0.00    +0.000 HD
ENDROOT
BRANCH   1  13
ATOM     13  C   UNL     1       7.293   6.184  17.781  0.00  0.00    +0.000 C 
BRANCH  13  14
ATOM     14  O   UNL     1       7.673   6.769  16.539  0.00  0.00    +0.000 OA
ATOM     15  H   UNL     1       8.327   7.466  16.743  0.00  0.00    +0.000 HD
ENDBRANCH  13  14
ENDBRANCH   1  13
BRANCH   7  16
ATOM     16  C   UNL     1       2.153   2.517  20.704  0.00  0.00    +0.000 C 
BRANCH  16  17
ATOM     17  O   UNL     1       0.836   2.944  21.044  0.00  0.00    +0.000 OA
ATOM     18  H   UNL     1       0.691   3.812  20.618  0.00  0.00    +0.000 HD
ENDBRANCH  16  17
ENDBRANCH   7  16
TORSDOF 4
ENDMDL
MODEL 4
REMARK VINA RESULT:      -6.1      1.665      1.762
REMARK  Name = 
REMARK  4 active torsions:
REMARK  status: ('A' for Active; 'I' for Inactive)
REMARK    1  A    between atoms: O_1  and  C_2
REMARK    2  A    between atoms: C_2  and  CA_3
REMARK    3  A    between atoms: CA_9  and  C_10
REMARK    4  A    between atoms: C_10  and  O_11
REMARK                            x       y       z     vdW  Elec       q    Type
REMARK                         _______ _______ _______ _____ _____    ______ ____
ROOT
ATOM      1  CA  UNL     1       5.964   4.534  16.915  0.00  0.00    +0.000 C 
ATOM      2  C   UNL     1       5.016   5.605  16.388  0.00  0.00    +0.000 C 
ATOM      3  C   UNL     1       4.352   6.389  17.504  0.00  0.00    +0.000 C 
ATOM      4  N   UNL     1       3.802   5.519  18.556  0.00  0.00    +0.000 NA
ATOM      5  C   UNL     1       2.646   6.006  19.329  0.00  0.00    +0.000 C 
ATOM      6  C   UNL     1       1.867   4.900  20.023  0.00  0.00    +0.000 C 
ATOM      7  CA  UNL     1       2.841   3.983  20.749  0.00  0.00    +0.000 C 
ATOM      8  N   UNL     1       3.781   3.457  19.743  0.00  0.00    +0.000 NA
ATOM      9  C   UNL     1       4.603   4.402  19.032  0.00  0.00    +0.000 C 
ATOM     10  N   UNL     1       5.290   3.733  17.955  0.00  0.00    +0.000 NA
ATOM     11  H   UNL     1       3.748   2.462  19.535  0.00  0.00    +0.000 HD
ATOM     12  H   UNL     1       5.375   2.725  17.943  0.00  0.00    +0.000 HD
ENDROOT
BRANCH   1  13
ATOM     13  C   UNL     1       7.317   5.082  17.412  0.00  0.00    +0.000 C 
BRANCH  13  14
ATOM     14  O   UNL     1       8.226   4.028  17.711  0.00  0.00    +0.000 OA
ATOM     15  H   UNL     1       8.592   4.212  18.599  0.00  0.00    +0.000 HD
ENDBRANCH  13  14
ENDBRANCH   1  13
BRANCH   7  16
ATOM     16  C   UNL     1       2.133   2.828  21.469  0.00  0.00    +0.000 C 
BRANCH  16  17
ATOM     17  O   UNL     1       0.741   2.864  21.163  0.00  0.00    +0.000 OA
ATOM     18  H   UNL     1       0.641   2.594  20.229  0.00  0.00    +0.000 HD
ENDBRANCH  16  17
ENDBRANCH   7  16
TORSDOF 4
ENDMDL
MODEL 5
REMARK VINA RESULT:      -6.0      1.477      4.941
REMARK  Name = 
REMARK  4 active torsions:
REMARK  status: ('A' for Active; 'I' for Inactive)
REMARK    1  A    between atoms: O_1  and  C_2
REMARK    2  A    between atoms: C_2  and  CA_3
REMARK    3  A    between atoms: CA_9  and  C_10
REMARK    4  A    between atoms: C_10  and  O_11
REMARK                            x       y       z     vdW  Elec       q    Type
REMARK                         _______ _______ _______ _____ _____    ______ ____
ROOT
ATOM      1  CA  UNL     1       1.730   4.066  19.841  0.00  0.00    +0.000 C 
ATOM      2  C   UNL     1       1.464   4.029  18.340  0.00  0.00    +0.000 C 
ATOM      3  C   UNL     1       2.618   3.427  17.562  0.00  0.00    +0.000 C 
ATOM      4  N   UNL     1       3.920   3.985  17.960  0.00  0.00    +0.000 NA
ATOM      5  C   UNL     1       5.002   4.009  16.960  0.00  0.00    +0.000 C 
ATOM      6  C   UNL     1       6.106   5.005  17.280  0.00  0.00    +0.000 C 
ATOM      7  CA  UNL     1       6.520   4.841  18.735  0.00  0.00    +0.000 C 
ATOM      8  N   UNL     1       5.317   5.056  19.561  0.00  0.00    +0.000 NA
ATOM      9  C   UNL     1       4.206   4.159  19.375  0.00  0.00    +0.000 C 
ATOM     10  N   UNL     1       3.061   4.650  20.101  0.00  0.00    +0.000 NA
ATOM     11  H   UNL     1       5.292   5.876  20.162  0.00  0.00    +0.000 HD
ATOM     12  H   UNL     1       3.169   5.339  20.834  0.00  0.00    +0.000 HD
ENDROOT
BRANCH   1  13
ATOM     13  C   UNL     1       1.566   2.702  20.541  0.00  0.00    +0.000 C 
BRANCH  13  14
ATOM     14  O   UNL     1       1.965   2.768  21.906  0.00  0.00    +0.000 OA
ATOM     15  H   UNL     1       1.649   3.626  22.253  0.00  0.00    +0.000 HD
ENDBRANCH  13  14
ENDBRANCH   1  13
BRANCH   7  16
ATOM     16  C   UNL     1       7.626   5.821  19.145  0.00  0.00    +0.000 C 
BRANCH  16  17
ATOM     17  O   UNL     1       8.071   5.505  20.463  0.00  0.00    +0.000 OA
ATOM     18  H   UNL     1       9.011   5.244  20.398  0.00  0.00    +0.000 HD
ENDBRANCH  16  17
ENDBRANCH   7  16
TORSDOF 4
ENDMDL
MODEL 6
REMARK VINA RESULT:      -6.0      1.451      1.572
REMARK  Name = 
REMARK  4 active torsions:
REMARK  status: ('A' for Active; 'I' for Inactive)
REMARK    1  A    between atoms: O_1  and  C_2
REMARK    2  A    between atoms: C_2  and  CA_3
REMARK    3  A    between atoms: CA_9  and  C_10
REMARK    4  A    between atoms: C_10  and  O_11
REMARK                            x       y       z     vdW  Elec       q    Type
REMARK                         _______ _______ _______ _____ _____    ______ ____
ROOT
ATOM      1  CA  UNL     1       6.311   4.714  16.303  0.00  0.00    +0.000 C 
ATOM      2  C   UNL     1       5.452   5.876  15.816  0.00  0.00    +0.000 C 
ATOM      3  C   UNL     1       4.472   6.353  16.871  0.00  0.00    +0.000 C 
ATOM      4  N   UNL     1       3.739   5.245  17.503  0.00  0.00    +0.000 NA
ATOM      5  C   UNL     1       2.393   5.517  18.038  0.00  0.00    +0.000 C 
ATOM      6  C   UNL     1       1.545   4.268  18.219  0.00  0.00    +0.000 C 
ATOM      7  CA  UNL     1       2.367   3.206  18.936  0.00  0.00    +0.000 C 
ATOM      8  N   UNL     1       3.567   2.953  18.117  0.00  0.00    +0.000 NA
ATOM      9  C   UNL     1       4.471   4.051  17.893  0.00  0.00    +0.000 C 
ATOM     10  N   UNL     1       5.454   3.675  16.908  0.00  0.00    +0.000 NA
ATOM     11  H   UNL     1       3.659   2.041  17.678  0.00  0.00    +0.000 HD
ATOM     12  H   UNL     1       5.612   2.702  16.680  0.00  0.00    +0.000 HD
ENDROOT
BRANCH   1  13
ATOM     13  C   UNL     1       7.450   5.132  17.254  0.00  0.00    +0.000 C 
BRANCH  13  14
ATOM     14  O   UNL     1       8.067   3.997  17.854  0.00  0.00    +0.000 OA
ATOM     15  H   UNL     1       7.422   3.624  18.486  0.00  0.00    +0.000 HD
ENDBRANCH  13  14
ENDBRANCH   1  13
BRANCH   7  16
ATOM     16  C   UNL     1       1.586   1.904  19.149  0.00  0.00    +0.000 C 
BRANCH  16  17
ATOM     17  O   UNL     1       0.368   1.958  18.408  0.00  0.00    +0.000 OA
ATOM     18  H   UNL     1       0.209   1.066  18.042  0.00  0.00    +0.000 HD
ENDBRANCH  16  17
ENDBRANCH   7  16
TORSDOF 4
ENDMDL
MODEL 7
REMARK VINA RESULT:      -6.0      2.063      2.174
REMARK  Name = 
REMARK  4 active torsions:
REMARK  status: ('A' for Active; 'I' for Inactive)
REMARK    1  A    between atoms: O_1  and  C_2
REMARK    2  A    between atoms: C_2  and  CA_3
REMARK    3  A    between atoms: CA_9  and  C_10
REMARK    4  A    between atoms: C_10  and  O_11
REMARK                            x       y       z     vdW  Elec       q    Type
REMARK                         _______ _______ _______ _____ _____    ______ ____
ROOT
ATOM      1  CA  UNL     1       7.384   5.054  16.933  0.00  0.00    +0.000 C 
ATOM      2  C   UNL     1       6.602   4.551  15.724  0.00  0.00    +0.000 C 
ATOM      3  C   UNL     1       5.106   4.522  15.974  0.00  0.00    +0.000 C 
ATOM      4  N   UNL     1       4.760   3.892  17.257  0.00  0.00    +0.000 NA
ATOM      5  C   UNL     1       3.448   3.233  17.378  0.00  0.00    +0.000 C 
ATOM      6  C   UNL     1       3.372   2.228  18.516  0.00  0.00    +0.000 C 
ATOM      7  CA  UNL     1       3.942   2.859  19.779  0.00  0.00    +0.000 C 
ATOM      8  N   UNL     1       5.328   3.263  19.480  0.00  0.00    +0.000 NA
ATOM      9  C   UNL     1       5.536   4.236  18.439  0.00  0.00    +0.000 C 
ATOM     10  N   UNL     1       6.944   4.341  18.148  0.00  0.00    +0.000 NA
ATOM     11  H   UNL     1       6.080   2.776  19.962  0.00  0.00    +0.000 HD
ATOM     12  H   UNL     1       7.634   3.994  18.801  0.00  0.00    +0.000 HD
ENDROOT
BRANCH   1  13
ATOM     13  C   UNL     1       7.327   6.583  17.124  0.00  0.00    +0.000 C 
BRANCH  13  14
ATOM     14  O   UNL     1       7.924   6.974  18.357  0.00  0.00    +0.000 OA
ATOM     15  H   UNL     1       8.605   7.642  18.144  0.00  0.00    +0.000 HD
ENDBRANCH  13  14
ENDBRANCH   1  13
BRANCH   7  16
ATOM     16  C   UNL     1       3.914   1.902  20.977  0.00  0.00    +0.000 C 
BRANCH  16  17
ATOM     17  O   UNL     1       5.248   1.514  21.301  0.00  0.00    +0.000 OA
ATOM     18  H   UNL     1       5.411   0.648  20.879  0.00  0.00    +0.000 HD
ENDBRANCH  16  17
ENDBRANCH   7  16
TORSDOF 4
ENDMDL
MODEL 8
REMARK VINA RESULT:      -5.9      1.689      4.857
REMARK  Name = 
REMARK  4 active torsions:
REMARK  status: ('A' for Active; 'I' for Inactive)
REMARK    1  A    between atoms: O_1  and  C_2
REMARK    2  A    between atoms: C_2  and  CA_3
REMARK    3  A    between atoms: CA_9  and  C_10
REMARK    4  A    between atoms: C_10  and  O_11
REMARK                            x       y       z     vdW  Elec       q    Type
REMARK                         _______ _______ _______ _____ _____    ______ ____
ROOT
ATOM      1  CA  UNL     1       2.801   3.360  20.505  0.00  0.00    +0.000 C 
ATOM      2  C   UNL     1       2.456   4.835  20.684  0.00  0.00    +0.000 C 
ATOM      3  C   UNL     1       2.487   5.599  19.374  0.00  0.00    +0.000 C 
ATOM      4  N   UNL     1       3.699   5.323  18.587  0.00  0.00    +0.000 NA
ATOM      5  C   UNL     1       4.189   6.370  17.673  0.00  0.00    +0.000 C 
ATOM      6  C   UNL     1       5.651   6.207  17.287  0.00  0.00    +0.000 C 
ATOM      7  CA  UNL     1       5.902   4.764  16.875  0.00  0.00    +0.000 C 
ATOM      8  N   UNL     1       5.527   3.910  18.017  0.00  0.00    +0.000 NA
ATOM      9  C   UNL     1       4.158   3.949  18.464  0.00  0.00    +0.000 C 
ATOM     10  N   UNL     1       4.034   3.226  19.706  0.00  0.00    +0.000 NA
ATOM     11  H   UNL     1       6.266   3.398  18.491  0.00  0.00    +0.000 HD
ATOM     12  H   UNL     1       4.751   2.575  19.999  0.00  0.00    +0.000 HD
ENDROOT
BRANCH   1  13
ATOM     13  C   UNL     1       1.652   2.515  19.919  0.00  0.00    +0.000 C 
BRANCH  13  14
ATOM     14  O   UNL     1       0.381   3.022  20.313  0.00  0.00    +0.000 OA
ATOM     15  H   UNL     1       0.546   3.856  20.795  0.00  0.00    +0.000 HD
ENDBRANCH  13  14
ENDBRANCH   1  13
BRANCH   7  16
ATOM     16  C   UNL     1       7.362   4.511  16.481  0.00  0.00    +0.000 C 
BRANCH  16  17
ATOM     17  O   UNL     1       8.092   4.080  17.628  0.00  0.00    +0.000 OA
ATOM     18  H   UNL     1       8.927   3.685  17.310  0.00  0.00    +0.000 HD
ENDBRANCH  16  17
ENDBRANCH   7  16
TORSDOF 4
ENDMDL
MODEL 9
REMARK VINA RESULT:      -5.8      0.764      4.971
REMARK  Name = 
REMARK  4 active torsions:
REMARK  status: ('A' for Active; 'I' for Inactive)
REMARK    1  A    between atoms: O_1  and  C_2
REMARK    2  A    between atoms: C_2  and  CA_3
REMARK    3  A    between atoms: CA_9  and  C_10
REMARK    4  A    between atoms: C_10  and  O_11
REMARK                            x       y       z     vdW  Elec       q    Type
REMARK                         _______ _______ _______ _____ _____    ______ ____
ROOT
ATOM      1  CA  UNL     1       2.329   3.358  19.740  0.00  0.00    +0.000 C 
ATOM      2  C   UNL     1       1.674   4.386  18.823  0.00  0.00    +0.000 C 
ATOM      3  C   UNL     1       2.513   4.685  17.596  0.00  0.00    +0.000 C 
ATOM      4  N   UNL     1       3.925   4.939  17.925  0.00  0.00    +0.000 NA
ATOM      5  C   UNL     1       4.701   5.814  17.030  0.00  0.00    +0.000 C 
ATOM      6  C   UNL     1       5.948   6.396  17.678  0.00  0.00    +0.000 C 
ATOM      7  CA  UNL     1       6.712   5.284  18.382  0.00  0.00    +0.000 C 
ATOM      8  N   UNL     1       5.798   4.682  19.370  0.00  0.00    +0.000 NA
ATOM      9  C   UNL     1       4.590   4.068  18.881  0.00  0.00    +0.000 C 
ATOM     10  N   UNL     1       3.734   3.733  19.992  0.00  0.00    +0.000 NA
ATOM     11  H   UNL     1       6.017   4.800  20.355  0.00  0.00    +0.000 HD
ATOM     12  H   UNL     1       4.103   3.683  20.933  0.00  0.00    +0.000 HD
ENDROOT
BRANCH   1  13
ATOM     13  C   UNL     1       2.214   1.905  19.236  0.00  0.00    +0.000 C 
BRANCH  13  14
ATOM     14  O   UNL     1       0.960   1.674  18.602  0.00  0.00    +0.000 OA
ATOM     15  H   UNL     1       0.275   1.732  19.297  0.00  0.00    +0.000 HD
ENDBRANCH  13  14
ENDBRANCH   1  13
BRANCH   7  16
ATOM     16  C   UNL     1       7.982   5.791  19.075  0.00  0.00    +0.000 C 
BRANCH  16  17
ATOM     17  O   UNL     1       7.937   5.441  20.457  0.00  0.00    +0.000 OA
ATOM     18  H   UNL     1       7.980   6.272  20.969  0.00  0.00    +0.000 HD
ENDBRANCH  16  17
ENDBRANCH   7  16
TORSDOF 4
ENDMDL
