MODEL 1
REMARK VINA RESULT:      -8.0      0.000      0.000
REMARK  Name = 
REMARK  3 active torsions:
REMARK  status: ('A' for Active; 'I' for Inactive)
REMARK    1  A    between atoms: N_11  and  C_12
REMARK    2  A    between atoms: C_12  and  C_13
REMARK    3  A    between atoms: C_13  and  N_14
REMARK                            x       y       z     vdW  Elec       q    Type
REMARK                         _______ _______ _______ _____ _____    ______ ____
ROOT
ATOM      1  C   UNL     1       4.080   3.378  16.749  0.00  0.00    +0.000 C 
ENDROOT
BRANCH   1  12
ATOM      2  O   UNL     1       5.663   3.480  19.270  0.00  0.00    +0.000 OA
ATOM      3  C   UNL     1       5.741   4.310  18.384  0.00  0.00    +0.000 C 
ATOM      4  C   UNL     1       6.642   5.468  18.405  0.00  0.00    +0.000 A 
ATOM      5  C   UNL     1       7.589   5.869  19.331  0.00  0.00    +0.000 A 
ATOM      6  C   UNL     1       8.317   7.033  19.048  0.00  0.00    +0.000 A 
ATOM      7  C   UNL     1       8.084   7.760  17.861  0.00  0.00    +0.000 A 
ATOM      8  C   UNL     1       7.123   7.335  16.940  0.00  0.00    +0.000 A 
ATOM      9  C   UNL     1       6.421   6.183  17.244  0.00  0.00    +0.000 A 
ATOM     10  C   UNL     1       5.389   5.481  16.480  0.00  0.00    +0.000 C 
ATOM     11  O   UNL     1       4.968   5.857  15.407  0.00  0.00    +0.000 OA
ATOM     12  N   UNL     1       5.046   4.372  17.207  0.00  0.00    +0.000 N 
ENDBRANCH   1  12
BRANCH   1  13
ATOM     13  C   UNL     1       2.631   3.743  17.108  0.00  0.00    +0.000 C 
BRANCH  13  14
ATOM     14  N   UNL     1       2.417   3.995  18.541  0.00  0.00    +0.000 N 
ATOM     15  C   UNL     1       2.293   2.912  19.406  0.00  0.00    +0.000 C 
ATOM     16  O   UNL     1       2.389   1.739  19.043  0.00  0.00    +0.000 OA
ATOM     17  C   UNL     1       2.116   3.268  20.882  0.00  0.00    +0.000 C 
ATOM     18  O   UNL     1       1.501   4.492  21.223  0.00  0.00    +0.000 OA
ATOM     19  C   UNL     1       1.815   5.511  20.365  0.00  0.00    +0.000 A 
ATOM     20  C   UNL     1       1.592   6.796  20.868  0.00  0.00    +0.000 A 
ATOM     21  C   UNL     1       1.835   7.910  20.071  0.00  0.00    +0.000 A 
ATOM     22  C   UNL     1       2.293   7.736  18.769  0.00  0.00    +0.000 A 
ATOM     23  C   UNL     1       2.504   6.450  18.261  0.00  0.00    +0.000 A 
ATOM     24  C   UNL     1       2.262   5.317  19.049  0.00  0.00    +0.000 A 
ENDBRANCH  13  14
ENDBRANCH   1  13
TORSDOF 3
ENDMDL
MODEL 2
REMARK VINA RESULT:      -7.9      0.196      1.789
REMARK  Name = 
REMARK  3 active torsions:
REMARK  status: ('A' for Active; 'I' for Inactive)
REMARK    1  A    between atoms: N_11  and  C_12
REMARK    2  A    between atoms: C_12  and  C_13
REMARK    3  A    between atoms: C_13  and  N_14
REMARK                            x       y       z     vdW  Elec       q    Type
REMARK                         _______ _______ _______ _____ _____    ______ ____
ROOT
ATOM      1  C   UNL     1       4.178   3.249  16.806  0.00  0.00    +0.000 C 
ENDROOT
BRANCH   1  12
ATOM      2  O   UNL     1       5.150   5.520  15.142  0.00  0.00    +0.000 OA
ATOM      3  C   UNL     1       5.530   5.296  16.276  0.00  0.00    +0.000 C 
ATOM      4  C   UNL     1       6.498   6.121  17.007  0.00  0.00    +0.000 A 
ATOM      5  C   UNL     1       7.148   7.290  16.655  0.00  0.00    +0.000 A 
ATOM      6  C   UNL     1       8.014   7.858  17.601  0.00  0.00    +0.000 A 
ATOM      7  C   UNL     1       8.207   7.250  18.860  0.00  0.00    +0.000 A 
ATOM      8  C   UNL     1       7.539   6.069  19.194  0.00  0.00    +0.000 A 
ATOM      9  C   UNL     1       6.690   5.532  18.243  0.00  0.00    +0.000 A 
ATOM     10  C   UNL     1       5.842   4.341  18.304  0.00  0.00    +0.000 C 
ATOM     11  O   UNL     1       5.783   3.602  19.262  0.00  0.00    +0.000 OA
ATOM     12  N   UNL     1       5.171   4.274  17.113  0.00  0.00    +0.000 N 
ENDBRANCH   1  12
BRANCH   1  13
ATOM     13  C   UNL     1       2.740   3.701  17.107  0.00  0.00    +0.000 C 
BRANCH  13  14
ATOM     14  N   UNL     1       2.486   3.973  18.530  0.00  0.00    +0.000 N 
ATOM     15  C   UNL     1       2.326   2.902  19.404  0.00  0.00    +0.000 C 
ATOM     16  O   UNL     1       2.421   1.723  19.058  0.00  0.00    +0.000 OA
ATOM     17  C   UNL     1       2.109   3.277  20.869  0.00  0.00    +0.000 C 
ATOM     18  O   UNL     1       1.496   4.511  21.178  0.00  0.00    +0.000 OA
ATOM     19  C   UNL     1       1.845   5.516  20.317  0.00  0.00    +0.000 A 
ATOM     20  C   UNL     1       1.620   6.809  20.798  0.00  0.00    +0.000 A 
ATOM     21  C   UNL     1       1.897   7.911  19.996  0.00  0.00    +0.000 A 
ATOM     22  C   UNL     1       2.392   7.717  18.710  0.00  0.00    +0.000 A 
ATOM     23  C   UNL     1       2.605   6.423  18.224  0.00  0.00    +0.000 A 
ATOM     24  C   UNL     1       2.329   5.302  19.017  0.00  0.00    +0.000 A 
ENDBRANCH  13  14
ENDBRANCH   1  13
TORSDOF 3
ENDMDL
MODEL 3
REMARK VINA RESULT:      -7.4      1.679      5.853
REMARK  Name = 
REMARK  3 active torsions:
REMARK  status: ('A' for Active; 'I' for Inactive)
REMARK    1  A    between atoms: N_11  and  C_12
REMARK    2  A    between atoms: C_12  and  C_13
REMARK    3  A    between atoms: C_13  and  N_14
REMARK                            x       y       z     vdW  Elec       q    Type
REMARK                         _______ _______ _______ _____ _____    ______ ____
ROOT
ATOM      1  C   UNL     1       3.647   3.886  18.409  0.00  0.00    +0.000 C 
ENDROOT
BRANCH   1  12
ATOM      2  O   UNL     1       3.612   6.473  16.933  0.00  0.00    +0.000 OA
ATOM      3  C   UNL     1       3.126   6.313  18.037  0.00  0.00    +0.000 C 
ATOM      4  C   UNL     1       2.425   7.354  18.796  0.00  0.00    +0.000 A 
ATOM      5  C   UNL     1       2.119   8.665  18.476  0.00  0.00    +0.000 A 
ATOM      6  C   UNL     1       1.407   9.412  19.426  0.00  0.00    +0.000 A 
ATOM      7  C   UNL     1       1.024   8.839  20.657  0.00  0.00    +0.000 A 
ATOM      8  C   UNL     1       1.344   7.513  20.958  0.00  0.00    +0.000 A 
ATOM      9  C   UNL     1       2.045   6.798  20.003  0.00  0.00    +0.000 A 
ATOM     10  C   UNL     1       2.493   5.405  20.011  0.00  0.00    +0.000 C 
ATOM     11  O   UNL     1       2.313   4.643  20.935  0.00  0.00    +0.000 OA
ATOM     12  N   UNL     1       3.109   5.183  18.809  0.00  0.00    +0.000 N 
ENDBRANCH   1  12
BRANCH   1  13
ATOM     13  C   UNL     1       5.099   3.674  18.864  0.00  0.00    +0.000 C 
BRANCH  13  14
ATOM     14  N   UNL     1       6.074   4.523  18.162  0.00  0.00    +0.000 N 
ATOM     15  C   UNL     1       6.818   5.443  18.894  0.00  0.00    +0.000 C 
ATOM     16  O   UNL     1       6.735   5.566  20.116  0.00  0.00    +0.000 OA
ATOM     17  C   UNL     1       7.836   6.252  18.089  0.00  0.00    +0.000 C 
ATOM     18  O   UNL     1       7.585   6.504  16.723  0.00  0.00    +0.000 OA
ATOM     19  C   UNL     1       6.967   5.462  16.087  0.00  0.00    +0.000 A 
ATOM     20  C   UNL     1       7.072   5.476  14.693  0.00  0.00    +0.000 A 
ATOM     21  C   UNL     1       6.449   4.489  13.935  0.00  0.00    +0.000 A 
ATOM     22  C   UNL     1       5.715   3.494  14.574  0.00  0.00    +0.000 A 
ATOM     23  C   UNL     1       5.599   3.488  15.968  0.00  0.00    +0.000 A 
ATOM     24  C   UNL     1       6.218   4.475  16.746  0.00  0.00    +0.000 A 
ENDBRANCH  13  14
ENDBRANCH   1  13
TORSDOF 3
ENDMDL
MODEL 4
REMARK VINA RESULT:      -7.2      1.061      2.091
REMARK  Name = 
REMARK  3 active torsions:
REMARK  status: ('A' for Active; 'I' for Inactive)
REMARK    1  A    between atoms: N_11  and  C_12
REMARK    2  A    between atoms: C_12  and  C_13
REMARK    3  A    between atoms: C_13  and  N_14
REMARK                            x       y       z     vdW  Elec       q    Type
REMARK                         _______ _______ _______ _____ _____    ______ ____
ROOT
ATOM      1  C   UNL     1       5.275   3.872  16.440  0.00  0.00    +0.000 C 
ENDROOT
BRANCH   1  12
ATOM      2  O   UNL     1       5.161   6.673  15.434  0.00  0.00    +0.000 OA
ATOM      3  C   UNL     1       5.884   6.305  16.342  0.00  0.00    +0.000 C 
ATOM      4  C   UNL     1       6.783   7.183  17.097  0.00  0.00    +0.000 A 
ATOM      5  C   UNL     1       7.004   8.547  17.019  0.00  0.00    +0.000 A 
ATOM      6  C   UNL     1       7.931   9.104  17.910  0.00  0.00    +0.000 A 
ATOM      7  C   UNL     1       8.609   8.295  18.847  0.00  0.00    +0.000 A 
ATOM      8  C   UNL     1       8.369   6.919  18.909  0.00  0.00    +0.000 A 
ATOM      9  C   UNL     1       7.448   6.397  18.019  0.00  0.00    +0.000 A 
ATOM     10  C   UNL     1       6.970   5.023  17.858  0.00  0.00    +0.000 C 
ATOM     11  O   UNL     1       7.361   4.089  18.523  0.00  0.00    +0.000 OA
ATOM     12  N   UNL     1       6.032   5.047  16.861  0.00  0.00    +0.000 N 
ENDBRANCH   1  12
BRANCH   1  13
ATOM     13  C   UNL     1       3.761   4.029  16.652  0.00  0.00    +0.000 C 
BRANCH  13  14
ATOM     14  N   UNL     1       3.340   3.909  18.057  0.00  0.00    +0.000 N 
ATOM     15  C   UNL     1       3.333   2.653  18.654  0.00  0.00    +0.000 C 
ATOM     16  O   UNL     1       3.696   1.626  18.081  0.00  0.00    +0.000 OA
ATOM     17  C   UNL     1       2.922   2.629  20.126  0.00  0.00    +0.000 C 
ATOM     18  O   UNL     1       2.045   3.624  20.610  0.00  0.00    +0.000 OA
ATOM     19  C   UNL     1       2.249   4.848  20.035  0.00  0.00    +0.000 A 
ATOM     20  C   UNL     1       1.723   5.931  20.747  0.00  0.00    +0.000 A 
ATOM     21  C   UNL     1       1.833   7.221  20.240  0.00  0.00    +0.000 A 
ATOM     22  C   UNL     1       2.462   7.427  19.016  0.00  0.00    +0.000 A 
ATOM     23  C   UNL     1       2.976   6.343  18.296  0.00  0.00    +0.000 A 
ATOM     24  C   UNL     1       2.873   5.036  18.791  0.00  0.00    +0.000 A 
ENDBRANCH  13  14
ENDBRANCH   1  13
TORSDOF 3
ENDMDL
MODEL 5
REMARK VINA RESULT:      -7.2      1.660      5.594
REMARK  Name = 
REMARK  3 active torsions:
REMARK  status: ('A' for Active; 'I' for Inactive)
REMARK    1  A    between atoms: N_11  and  C_12
REMARK    2  A    between atoms: C_12  and  C_13
REMARK    3  A    between atoms: C_13  and  N_14
REMARK                            x       y       z     vdW  Elec       q    Type
REMARK                         _______ _______ _______ _____ _____    ______ ____
ROOT
ATOM      1  C   UNL     1       3.726   3.791  18.428  0.00  0.00    +0.000 C 
ENDROOT
BRANCH   1  12
ATOM      2  O   UNL     1       2.232   4.453  20.918  0.00  0.00    +0.000 OA
ATOM      3  C   UNL     1       2.436   5.245  20.016  0.00  0.00    +0.000 C 
ATOM      4  C   UNL     1       2.008   6.647  20.028  0.00  0.00    +0.000 A 
ATOM      5  C   UNL     1       1.354   7.393  20.992  0.00  0.00    +0.000 A 
ATOM      6  C   UNL     1       1.100   8.742  20.705  0.00  0.00    +0.000 A 
ATOM      7  C   UNL     1       1.500   9.306  19.475  0.00  0.00    +0.000 A 
ATOM      8  C   UNL     1       2.160   8.533  18.515  0.00  0.00    +0.000 A 
ATOM      9  C   UNL     1       2.399   7.207  18.826  0.00  0.00    +0.000 A 
ATOM     10  C   UNL     1       3.082   6.168  18.054  0.00  0.00    +0.000 C 
ATOM     11  O   UNL     1       3.547   6.343  16.949  0.00  0.00    +0.000 OA
ATOM     12  N   UNL     1       3.083   5.039  18.828  0.00  0.00    +0.000 N 
ENDBRANCH   1  12
BRANCH   1  13
ATOM     13  C   UNL     1       5.175   3.678  18.928  0.00  0.00    +0.000 C 
BRANCH  13  14
ATOM     14  N   UNL     1       6.124   4.536  18.201  0.00  0.00    +0.000 N 
ATOM     15  C   UNL     1       6.873   5.467  18.914  0.00  0.00    +0.000 C 
ATOM     16  O   UNL     1       6.814   5.593  20.137  0.00  0.00    +0.000 OA
ATOM     17  C   UNL     1       7.863   6.285  18.085  0.00  0.00    +0.000 C 
ATOM     18  O   UNL     1       7.580   6.529  16.723  0.00  0.00    +0.000 OA
ATOM     19  C   UNL     1       6.961   5.477  16.104  0.00  0.00    +0.000 A 
ATOM     20  C   UNL     1       7.036   5.487  14.708  0.00  0.00    +0.000 A 
ATOM     21  C   UNL     1       6.408   4.490  13.968  0.00  0.00    +0.000 A 
ATOM     22  C   UNL     1       5.700   3.489  14.625  0.00  0.00    +0.000 A 
ATOM     23  C   UNL     1       5.614   3.486  16.021  0.00  0.00    +0.000 A 
ATOM     24  C   UNL     1       6.238   4.484  16.783  0.00  0.00    +0.000 A 
ENDBRANCH  13  14
ENDBRANCH   1  13
TORSDOF 3
ENDMDL
MODEL 6
REMARK VINA RESULT:      -7.2      3.027      6.741
REMARK  Name = 
REMARK  3 active torsions:
REMARK  status: ('A' for Active; 'I' for Inactive)
REMARK    1  A    between atoms: N_11  and  C_12
REMARK    2  A    between atoms: C_12  and  C_13
REMARK    3  A    between atoms: C_13  and  N_14
REMARK                            x       y       z     vdW  Elec       q    Type
REMARK                         _______ _______ _______ _____ _____    ______ ____
ROOT
ATOM      1  C   UNL     1       2.089   7.944  18.652  0.00  0.00    +0.000 C 
ENDROOT
BRANCH   1  12
ATOM      2  O   UNL     1       1.323  10.819  18.513  0.00  0.00    +0.000 OA
ATOM      3  C   UNL     1       1.079  10.094  19.460  0.00  0.00    +0.000 C 
ATOM      4  C   UNL     1       0.347  10.513  20.661  0.00  0.00    +0.000 A 
ATOM      5  C   UNL     1      -0.244  11.719  20.994  0.00  0.00    +0.000 A 
ATOM      6  C   UNL     1      -0.898  11.798  22.231  0.00  0.00    +0.000 A 
ATOM      7  C   UNL     1      -0.945  10.685  23.096  0.00  0.00    +0.000 A 
ATOM      8  C   UNL     1      -0.341   9.476  22.739  0.00  0.00    +0.000 A 
ATOM      9  C   UNL     1       0.296   9.425  21.512  0.00  0.00    +0.000 A 
ATOM     10  C   UNL     1       0.984   8.314  20.854  0.00  0.00    +0.000 C 
ATOM     11  O   UNL     1       1.113   7.214  21.344  0.00  0.00    +0.000 OA
ATOM     12  N   UNL     1       1.406   8.777  19.637  0.00  0.00    +0.000 N 
ENDBRANCH   1  12
BRANCH   1  13
ATOM     13  C   UNL     1       3.184   7.061  19.273  0.00  0.00    +0.000 C 
BRANCH  13  14
ATOM     14  N   UNL     1       3.497   5.858  18.487  0.00  0.00    +0.000 N 
ATOM     15  C   UNL     1       4.496   5.925  17.520  0.00  0.00    +0.000 C 
ATOM     16  O   UNL     1       5.167   6.935  17.306  0.00  0.00    +0.000 OA
ATOM     17  C   UNL     1       4.782   4.617  16.782  0.00  0.00    +0.000 C 
ATOM     18  O   UNL     1       3.744   3.673  16.632  0.00  0.00    +0.000 OA
ATOM     19  C   UNL     1       2.909   3.613  17.714  0.00  0.00    +0.000 A 
ATOM     20  C   UNL     1       2.145   2.445  17.806  0.00  0.00    +0.000 A 
ATOM     21  C   UNL     1       1.230   2.289  18.842  0.00  0.00    +0.000 A 
ATOM     22  C   UNL     1       1.074   3.305  19.780  0.00  0.00    +0.000 A 
ATOM     23  C   UNL     1       1.829   4.478  19.681  0.00  0.00    +0.000 A 
ATOM     24  C   UNL     1       2.754   4.654  18.643  0.00  0.00    +0.000 A 
ENDBRANCH  13  14
ENDBRANCH   1  13
TORSDOF 3
ENDMDL
MODEL 7
REMARK VINA RESULT:      -7.1      3.012      6.505
REMARK  Name = 
REMARK  3 active torsions:
REMARK  status: ('A' for Active; 'I' for Inactive)
REMARK    1  A    between atoms: N_11  and  C_12
REMARK    2  A    between atoms: C_12  and  C_13
REMARK    3  A    between atoms: C_13  and  N_14
REMARK                            x       y       z     vdW  Elec       q    Type
REMARK                         _______ _______ _______ _____ _____    ______ ____
ROOT
ATOM      1  C   UNL     1       2.140   7.949  18.641  0.00  0.00    +0.000 C 
ENDROOT
BRANCH   1  12
ATOM      2  O   UNL     1       1.100   7.160  21.319  0.00  0.00    +0.000 OA
ATOM      3  C   UNL     1       0.952   8.265  20.829  0.00  0.00    +0.000 C 
ATOM      4  C   UNL     1       0.268   9.382  21.490  0.00  0.00    +0.000 A 
ATOM      5  C   UNL     1      -0.303   9.487  22.746  0.00  0.00    +0.000 A 
ATOM      6  C   UNL     1      -0.871  10.720  23.096  0.00  0.00    +0.000 A 
ATOM      7  C   UNL     1      -0.856  11.805  22.194  0.00  0.00    +0.000 A 
ATOM      8  C   UNL     1      -0.272  11.676  20.930  0.00  0.00    +0.000 A 
ATOM      9  C   UNL     1       0.282  10.449  20.612  0.00  0.00    +0.000 A 
ATOM     10  C   UNL     1       0.979  10.018  19.399  0.00  0.00    +0.000 C 
ATOM     11  O   UNL     1       1.158  10.728  18.434  0.00  0.00    +0.000 OA
ATOM     12  N   UNL     1       1.363   8.721  19.606  0.00  0.00    +0.000 N 
ENDBRANCH   1  12
BRANCH   1  13
ATOM     13  C   UNL     1       3.180   7.034  19.307  0.00  0.00    +0.000 C 
BRANCH  13  14
ATOM     14  N   UNL     1       3.506   5.832  18.524  0.00  0.00    +0.000 N 
ATOM     15  C   UNL     1       4.529   5.898  17.583  0.00  0.00    +0.000 C 
ATOM     16  O   UNL     1       5.211   6.905  17.390  0.00  0.00    +0.000 OA
ATOM     17  C   UNL     1       4.827   4.592  16.846  0.00  0.00    +0.000 C 
ATOM     18  O   UNL     1       3.787   3.654  16.665  0.00  0.00    +0.000 OA
ATOM     19  C   UNL     1       2.925   3.594  17.725  0.00  0.00    +0.000 A 
ATOM     20  C   UNL     1       2.152   2.431  17.792  0.00  0.00    +0.000 A 
ATOM     21  C   UNL     1       1.210   2.275  18.804  0.00  0.00    +0.000 A 
ATOM     22  C   UNL     1       1.036   3.287  19.743  0.00  0.00    +0.000 A 
ATOM     23  C   UNL     1       1.800   4.457  19.668  0.00  0.00    +0.000 A 
ATOM     24  C   UNL     1       2.752   4.632  18.655  0.00  0.00    +0.000 A 
ENDBRANCH  13  14
ENDBRANCH   1  13
TORSDOF 3
ENDMDL
MODEL 8
REMARK VINA RESULT:      -7.1      2.947      6.391
REMARK  Name = 
REMARK  3 active torsions:
REMARK  status: ('A' for Active; 'I' for Inactive)
REMARK    1  A    between atoms: N_11  and  C_12
REMARK    2  A    between atoms: C_12  and  C_13
REMARK    3  A    between atoms: C_13  and  N_14
REMARK                            x       y       z     vdW  Elec       q    Type
REMARK                         _______ _______ _______ _____ _____    ______ ____
ROOT
ATOM      1  C   UNL     1       2.331   8.280  18.489  0.00  0.00    +0.000 C 
ENDROOT
BRANCH   1  12
ATOM      2  O   UNL     1       1.907   7.551  21.346  0.00  0.00    +0.000 OA
ATOM      3  C   UNL     1       1.350   8.479  20.791  0.00  0.00    +0.000 C 
ATOM      4  C   UNL     1       0.411   9.397  21.445  0.00  0.00    +0.000 A 
ATOM      5  C   UNL     1      -0.023   9.475  22.756  0.00  0.00    +0.000 A 
ATOM      6  C   UNL     1      -0.926  10.498  23.079  0.00  0.00    +0.000 A 
ATOM      7  C   UNL     1      -1.369  11.407  22.095  0.00  0.00    +0.000 A 
ATOM      8  C   UNL     1      -0.916  11.310  20.776  0.00  0.00    +0.000 A 
ATOM      9  C   UNL     1      -0.025  10.292  20.487  0.00  0.00    +0.000 A 
ATOM     10  C   UNL     1       0.639   9.953  19.227  0.00  0.00    +0.000 C 
ATOM     11  O   UNL     1       0.468  10.554  18.189  0.00  0.00    +0.000 OA
ATOM     12  N   UNL     1       1.451   8.882  19.486  0.00  0.00    +0.000 N 
ENDBRANCH   1  12
BRANCH   1  13
ATOM     13  C   UNL     1       1.946   6.830  18.150  0.00  0.00    +0.000 C 
BRANCH  13  14
ATOM     14  N   UNL     1       2.985   5.844  18.484  0.00  0.00    +0.000 N 
ATOM     15  C   UNL     1       4.217   5.918  17.840  0.00  0.00    +0.000 C 
ATOM     16  O   UNL     1       4.505   6.793  17.023  0.00  0.00    +0.000 OA
ATOM     17  C   UNL     1       5.249   4.880  18.279  0.00  0.00    +0.000 C 
ATOM     18  O   UNL     1       4.803   3.632  18.767  0.00  0.00    +0.000 OA
ATOM     19  C   UNL     1       3.651   3.720  19.499  0.00  0.00    +0.000 A 
ATOM     20  C   UNL     1       3.398   2.628  20.335  0.00  0.00    +0.000 A 
ATOM     21  C   UNL     1       2.235   2.587  21.097  0.00  0.00    +0.000 A 
ATOM     22  C   UNL     1       1.322   3.634  21.016  0.00  0.00    +0.000 A 
ATOM     23  C   UNL     1       1.568   4.720  20.169  0.00  0.00    +0.000 A 
ATOM     24  C   UNL     1       2.733   4.777  19.392  0.00  0.00    +0.000 A 
ENDBRANCH  13  14
ENDBRANCH   1  13
TORSDOF 3
ENDMDL
MODEL 9
REMARK VINA RESULT:      -7.0      2.669      6.099
REMARK  Name = 
REMARK  3 active torsions:
REMARK  status: ('A' for Active; 'I' for Inactive)
REMARK    1  A    between atoms: N_11  and  C_12
REMARK    2  A    between atoms: C_12  and  C_13
REMARK    3  A    between atoms: C_13  and  N_14
REMARK                            x       y       z     vdW  Elec       q    Type
REMARK                         _______ _______ _______ _____ _____    ______ ____
ROOT
ATOM      1  C   UNL     1       2.578   7.712  18.519  0.00  0.00    +0.000 C 
ENDROOT
BRANCH   1  12
ATOM      2  O   UNL     1       1.814   7.028  21.316  0.00  0.00    +0.000 OA
ATOM      3  C   UNL     1       1.436   8.027  20.732  0.00  0.00    +0.000 C 
ATOM      4  C   UNL     1       0.575   9.059  21.320  0.00  0.00    +0.000 A 
ATOM      5  C   UNL     1       0.043   9.186  22.591  0.00  0.00    +0.000 A 
ATOM      6  C   UNL     1      -0.739  10.320  22.854  0.00  0.00    +0.000 A 
ATOM      7  C   UNL     1      -0.969  11.286  21.852  0.00  0.00    +0.000 A 
ATOM      8  C   UNL     1      -0.420  11.137  20.575  0.00  0.00    +0.000 A 
ATOM      9  C   UNL     1       0.348  10.011  20.344  0.00  0.00    +0.000 A 
ATOM     10  C   UNL     1       1.068   9.593  19.140  0.00  0.00    +0.000 C 
ATOM     11  O   UNL     1       1.069  10.218  18.103  0.00  0.00    +0.000 OA
ATOM     12  N   UNL     1       1.704   8.421  19.448  0.00  0.00    +0.000 N 
ENDBRANCH   1  12
BRANCH   1  13
ATOM     13  C   UNL     1       2.121   6.269  18.250  0.00  0.00    +0.000 C 
BRANCH  13  14
ATOM     14  N   UNL     1       3.158   5.258  18.506  0.00  0.00    +0.000 N 
ATOM     15  C   UNL     1       2.910   4.258  19.441  0.00  0.00    +0.000 C 
ATOM     16  O   UNL     1       1.846   4.147  20.051  0.00  0.00    +0.000 OA
ATOM     17  C   UNL     1       4.025   3.227  19.611  0.00  0.00    +0.000 C 
ATOM     18  O   UNL     1       5.359   3.612  19.355  0.00  0.00    +0.000 OA
ATOM     19  C   UNL     1       5.476   4.498  18.319  0.00  0.00    +0.000 A 
ATOM     20  C   UNL     1       6.754   4.586  17.758  0.00  0.00    +0.000 A 
ATOM     21  C   UNL     1       7.003   5.484  16.725  0.00  0.00    +0.000 A 
ATOM     22  C   UNL     1       5.975   6.298  16.260  0.00  0.00    +0.000 A 
ATOM     23  C   UNL     1       4.700   6.220  16.829  0.00  0.00    +0.000 A 
ATOM     24  C   UNL     1       4.431   5.323  17.872  0.00  0.00    +0.000 A 
ENDBRANCH  13  14
ENDBRANCH   1  13
TORSDOF 3
ENDMDL
