MODEL 1
REMARK VINA RESULT:      -8.7      0.000      0.000
REMARK  Name = 
REMARK  10 active torsions:
REMARK  status: ('A' for Active; 'I' for Inactive)
REMARK    1  A    between atoms: C_1  and  O_2
REMARK    2  A    between atoms: O_2  and  C_3
REMARK    3  A    between atoms: C_7  and  C_8
REMARK    4  A    between atoms: C_14  and  C_15
REMARK    5  A    between atoms: C_17  and  O_18
REMARK    6  A    between atoms: O_18  and  C_19
REMARK    7  A    between atoms: C_20  and  O_21
REMARK    8  A    between atoms: O_21  and  C_22
REMARK    9  A    between atoms: C_23  and  O_24
REMARK   10  A    between atoms: O_24  and  C_25
REMARK                            x       y       z     vdW  Elec       q    Type
REMARK                         _______ _______ _______ _____ _____    ______ ____
ROOT
ATOM      1  C   UNL     1       2.057   6.527  19.728  0.00  0.00    +0.000 A 
ATOM      2  C   UNL     1       1.526   5.533  20.567  0.00  0.00    +0.000 A 
ATOM      3  N   UNL     1       1.783   4.197  20.530  0.00  0.00    +0.000 NA
ATOM      4  C   UNL     1       2.686   3.878  19.588  0.00  0.00    +0.000 A 
ATOM      5  N   UNL     1       3.154   2.633  19.300  0.00  0.00    +0.000 N 
ATOM      6  N   UNL     1       4.082   2.610  18.323  0.00  0.00    +0.000 NA
ATOM      7  C   UNL     1       4.225   3.903  17.975  0.00  0.00    +0.000 A 
ATOM      8  C   UNL     1       3.325   4.733  18.711  0.00  0.00    +0.000 A 
ATOM      9  C   UNL     1       2.970   6.092  18.757  0.00  0.00    +0.000 A 
ATOM     10  H   UNL     1       2.877   1.765  19.741  0.00  0.00    +0.000 HD
ENDROOT
BRANCH   1  15
ATOM     11  C   UNL     1       0.903   9.836  21.196  0.00  0.00    +0.000 A 
ATOM     12  C   UNL     1       0.905  10.653  20.068  0.00  0.00    +0.000 A 
ATOM     13  C   UNL     1       1.288  10.144  18.829  0.00  0.00    +0.000 A 
ATOM     14  C   UNL     1       1.677   8.808  18.720  0.00  0.00    +0.000 A 
ATOM     15  C   UNL     1       1.676   7.951  19.836  0.00  0.00    +0.000 A 
ATOM     16  C   UNL     1       1.277   8.496  21.071  0.00  0.00    +0.000 A 
BRANCH  11  18
ATOM     17  C   UNL     1      -0.245   9.654  23.265  0.00  0.00    +0.000 C 
ATOM     18  O   UNL     1       0.513  10.445  22.357  0.00  0.00    +0.000 OA
ENDBRANCH  11  18
ENDBRANCH   1  15
BRANCH   7  19
ATOM     19  C   UNL     1       5.206   4.321  16.972  0.00  0.00    +0.000 A 
ATOM     20  C   UNL     1       6.057   5.394  17.227  0.00  0.00    +0.000 A 
ATOM     21  C   UNL     1       7.014   5.782  16.284  0.00  0.00    +0.000 A 
ATOM     22  C   UNL     1       7.108   5.105  15.046  0.00  0.00    +0.000 A 
ATOM     23  C   UNL     1       6.234   4.036  14.770  0.00  0.00    +0.000 A 
ATOM     24  C   UNL     1       5.292   3.665  15.738  0.00  0.00    +0.000 A 
BRANCH  21  25
ATOM     25  O   UNL     1       7.886   6.826  16.497  0.00  0.00    +0.000 OA
ATOM     26  C   UNL     1       7.567   7.693  17.582  0.00  0.00    +0.000 C 
ENDBRANCH  21  25
BRANCH  22  27
ATOM     27  O   UNL     1       8.034   5.622  14.167  0.00  0.00    +0.000 OA
ATOM     28  C   UNL     1       7.791   5.432  12.780  0.00  0.00    +0.000 C 
ENDBRANCH  22  27
BRANCH  23  29
ATOM     29  O   UNL     1       6.309   3.422  13.545  0.00  0.00    +0.000 OA
ATOM     30  C   UNL     1       5.142   3.382  12.733  0.00  0.00    +0.000 C 
ENDBRANCH  23  29
ENDBRANCH   7  19
TORSDOF 6
ENDMDL
MODEL 2
REMARK VINA RESULT:      -8.3      3.144      8.971
REMARK  Name = 
REMARK  10 active torsions:
REMARK  status: ('A' for Active; 'I' for Inactive)
REMARK    1  A    between atoms: C_1  and  O_2
REMARK    2  A    between atoms: O_2  and  C_3
REMARK    3  A    between atoms: C_7  and  C_8
REMARK    4  A    between atoms: C_14  and  C_15
REMARK    5  A    between atoms: C_17  and  O_18
REMARK    6  A    between atoms: O_18  and  C_19
REMARK    7  A    between atoms: C_20  and  O_21
REMARK    8  A    between atoms: O_21  and  C_22
REMARK    9  A    between atoms: C_23  and  O_24
REMARK   10  A    between atoms: O_24  and  C_25
REMARK                            x       y       z     vdW  Elec       q    Type
REMARK                         _______ _______ _______ _____ _____    ______ ____
ROOT
ATOM      1  C   UNL     1       6.116   4.299  13.917  0.00  0.00    +0.000 A 
ATOM      2  C   UNL     1       7.349   4.969  13.855  0.00  0.00    +0.000 A 
ATOM      3  N   UNL     1       7.906   5.764  14.810  0.00  0.00    +0.000 NA
ATOM      4  C   UNL     1       7.152   5.829  15.921  0.00  0.00    +0.000 A 
ATOM      5  N   UNL     1       7.430   6.535  17.051  0.00  0.00    +0.000 N 
ATOM      6  N   UNL     1       6.510   6.393  18.025  0.00  0.00    +0.000 NA
ATOM      7  C   UNL     1       5.604   5.546  17.500  0.00  0.00    +0.000 A 
ATOM      8  C   UNL     1       5.941   5.206  16.154  0.00  0.00    +0.000 A 
ATOM      9  C   UNL     1       5.389   4.451  15.106  0.00  0.00    +0.000 A 
ATOM     10  H   UNL     1       8.235   7.128  17.212  0.00  0.00    +0.000 HD
ENDROOT
BRANCH   1  15
ATOM     11  C   UNL     1       5.821   1.582  11.277  0.00  0.00    +0.000 A 
ATOM     12  C   UNL     1       4.637   1.944  10.640  0.00  0.00    +0.000 A 
ATOM     13  C   UNL     1       3.922   3.062  11.065  0.00  0.00    +0.000 A 
ATOM     14  C   UNL     1       4.392   3.819  12.138  0.00  0.00    +0.000 A 
ATOM     15  C   UNL     1       5.590   3.489  12.798  0.00  0.00    +0.000 A 
ATOM     16  C   UNL     1       6.292   2.358  12.339  0.00  0.00    +0.000 A 
BRANCH  11  18
ATOM     17  C   UNL     1       5.994  -0.785  11.296  0.00  0.00    +0.000 C 
ATOM     18  O   UNL     1       6.434   0.466  10.777  0.00  0.00    +0.000 OA
ENDBRANCH  11  18
ENDBRANCH   1  15
BRANCH   7  19
ATOM     19  C   UNL     1       4.457   5.076  18.278  0.00  0.00    +0.000 A 
ATOM     20  C   UNL     1       4.123   3.723  18.289  0.00  0.00    +0.000 A 
ATOM     21  C   UNL     1       3.045   3.263  19.050  0.00  0.00    +0.000 A 
ATOM     22  C   UNL     1       2.262   4.173  19.797  0.00  0.00    +0.000 A 
ATOM     23  C   UNL     1       2.576   5.546  19.771  0.00  0.00    +0.000 A 
ATOM     24  C   UNL     1       3.667   5.975  19.005  0.00  0.00    +0.000 A 
BRANCH  21  25
ATOM     25  O   UNL     1       2.686   1.934  19.104  0.00  0.00    +0.000 OA
ATOM     26  C   UNL     1       3.643   1.010  18.595  0.00  0.00    +0.000 C 
ENDBRANCH  21  25
BRANCH  22  27
ATOM     27  O   UNL     1       1.182   3.618  20.447  0.00  0.00    +0.000 OA
ATOM     28  C   UNL     1       1.433   2.961  21.682  0.00  0.00    +0.000 C 
ENDBRANCH  22  27
BRANCH  23  29
ATOM     29  O   UNL     1       1.776   6.419  20.463  0.00  0.00    +0.000 OA
ATOM     30  C   UNL     1       1.863   7.806  20.159  0.00  0.00    +0.000 C 
ENDBRANCH  23  29
ENDBRANCH   7  19
TORSDOF 6
ENDMDL
MODEL 3
REMARK VINA RESULT:      -8.3      4.312      6.690
REMARK  Name = 
REMARK  10 active torsions:
REMARK  status: ('A' for Active; 'I' for Inactive)
REMARK    1  A    between atoms: C_1  and  O_2
REMARK    2  A    between atoms: O_2  and  C_3
REMARK    3  A    between atoms: C_7  and  C_8
REMARK    4  A    between atoms: C_14  and  C_15
REMARK    5  A    between atoms: C_17  and  O_18
REMARK    6  A    between atoms: O_18  and  C_19
REMARK    7  A    between atoms: C_20  and  O_21
REMARK    8  A    between atoms: O_21  and  C_22
REMARK    9  A    between atoms: C_23  and  O_24
REMARK   10  A    between atoms: O_24  and  C_25
REMARK                            x       y       z     vdW  Elec       q    Type
REMARK                         _______ _______ _______ _____ _____    ______ ____
ROOT
ATOM      1  C   UNL     1      -1.434  10.658  19.202  0.00  0.00    +0.000 A 
ATOM      2  C   UNL     1      -1.309  11.617  20.221  0.00  0.00    +0.000 A 
ATOM      3  N   UNL     1      -0.521  11.548  21.328  0.00  0.00    +0.000 NA
ATOM      4  C   UNL     1       0.220  10.427  21.356  0.00  0.00    +0.000 A 
ATOM      5  N   UNL     1       1.105  10.062  22.324  0.00  0.00    +0.000 N 
ATOM      6  N   UNL     1       1.735   8.897  22.077  0.00  0.00    +0.000 NA
ATOM      7  C   UNL     1       1.239   8.500  20.890  0.00  0.00    +0.000 A 
ATOM      8  C   UNL     1       0.242   9.409  20.423  0.00  0.00    +0.000 A 
ATOM      9  C   UNL     1      -0.641   9.510  19.334  0.00  0.00    +0.000 A 
ATOM     10  H   UNL     1       1.320  10.573  23.171  0.00  0.00    +0.000 HD
ENDROOT
BRANCH   1  15
ATOM     11  C   UNL     1      -2.858  10.489  15.684  0.00  0.00    +0.000 A 
ATOM     12  C   UNL     1      -4.070  11.157  15.844  0.00  0.00    +0.000 A 
ATOM     13  C   UNL     1      -4.438  11.658  17.091  0.00  0.00    +0.000 A 
ATOM     14  C   UNL     1      -3.591  11.484  18.186  0.00  0.00    +0.000 A 
ATOM     15  C   UNL     1      -2.355  10.824  18.058  0.00  0.00    +0.000 A 
ATOM     16  C   UNL     1      -2.010  10.336  16.783  0.00  0.00    +0.000 A 
BRANCH  11  18
ATOM     17  C   UNL     1      -3.710  10.014  13.520  0.00  0.00    +0.000 C 
ATOM     18  O   UNL     1      -2.605  10.038  14.417  0.00  0.00    +0.000 OA
ENDBRANCH  11  18
ENDBRANCH   1  15
BRANCH   7  19
ATOM     19  C   UNL     1       1.723   7.289  20.227  0.00  0.00    +0.000 A 
ATOM     20  C   UNL     1       2.492   7.381  19.068  0.00  0.00    +0.000 A 
ATOM     21  C   UNL     1       2.979   6.230  18.443  0.00  0.00    +0.000 A 
ATOM     22  C   UNL     1       2.671   4.952  18.967  0.00  0.00    +0.000 A 
ATOM     23  C   UNL     1       1.873   4.848  20.123  0.00  0.00    +0.000 A 
ATOM     24  C   UNL     1       1.407   6.021  20.731  0.00  0.00    +0.000 A 
BRANCH  21  25
ATOM     25  O   UNL     1       3.755   6.272  17.306  0.00  0.00    +0.000 OA
ATOM     26  C   UNL     1       5.074   6.784  17.471  0.00  0.00    +0.000 C 
ENDBRANCH  21  25
BRANCH  22  27
ATOM     27  O   UNL     1       3.141   3.889  18.228  0.00  0.00    +0.000 OA
ATOM     28  C   UNL     1       4.329   3.256  18.681  0.00  0.00    +0.000 C 
ENDBRANCH  22  27
BRANCH  23  29
ATOM     29  O   UNL     1       1.546   3.600  20.588  0.00  0.00    +0.000 OA
ATOM     30  C   UNL     1       2.210   3.113  21.749  0.00  0.00    +0.000 C 
ENDBRANCH  23  29
ENDBRANCH   7  19
TORSDOF 6
ENDMDL
MODEL 4
REMARK VINA RESULT:      -8.3      0.978      1.638
REMARK  Name = 
REMARK  10 active torsions:
REMARK  status: ('A' for Active; 'I' for Inactive)
REMARK    1  A    between atoms: C_1  and  O_2
REMARK    2  A    between atoms: O_2  and  C_3
REMARK    3  A    between atoms: C_7  and  C_8
REMARK    4  A    between atoms: C_14  and  C_15
REMARK    5  A    between atoms: C_17  and  O_18
REMARK    6  A    between atoms: O_18  and  C_19
REMARK    7  A    between atoms: C_20  and  O_21
REMARK    8  A    between atoms: O_21  and  C_22
REMARK    9  A    between atoms: C_23  and  O_24
REMARK   10  A    between atoms: O_24  and  C_25
REMARK                            x       y       z     vdW  Elec       q    Type
REMARK                         _______ _______ _______ _____ _____    ______ ____
ROOT
ATOM      1  C   UNL     1       2.053   6.115  19.707  0.00  0.00    +0.000 A 
ATOM      2  C   UNL     1       1.496   5.061  20.448  0.00  0.00    +0.000 A 
ATOM      3  N   UNL     1       1.722   3.728  20.289  0.00  0.00    +0.000 NA
ATOM      4  C   UNL     1       2.622   3.477  19.324  0.00  0.00    +0.000 A 
ATOM      5  N   UNL     1       3.064   2.253  18.923  0.00  0.00    +0.000 N 
ATOM      6  N   UNL     1       3.996   2.299  17.952  0.00  0.00    +0.000 NA
ATOM      7  C   UNL     1       4.170   3.615  17.725  0.00  0.00    +0.000 A 
ATOM      8  C   UNL     1       3.286   4.394  18.532  0.00  0.00    +0.000 A 
ATOM      9  C   UNL     1       2.961   5.751  18.702  0.00  0.00    +0.000 A 
ATOM     10  H   UNL     1       2.764   1.355  19.281  0.00  0.00    +0.000 HD
ENDROOT
BRANCH   1  15
ATOM     11  C   UNL     1       1.540   9.834  19.126  0.00  0.00    +0.000 A 
ATOM     12  C   UNL     1       1.087  10.249  20.376  0.00  0.00    +0.000 A 
ATOM     13  C   UNL     1       0.936   9.329  21.411  0.00  0.00    +0.000 A 
ATOM     14  C   UNL     1       1.235   7.984  21.191  0.00  0.00    +0.000 A 
ATOM     15  C   UNL     1       1.705   7.532  19.944  0.00  0.00    +0.000 A 
ATOM     16  C   UNL     1       1.853   8.489  18.923  0.00  0.00    +0.000 A 
BRANCH  11  18
ATOM     17  C   UNL     1       1.936  12.130  18.672  0.00  0.00    +0.000 C 
ATOM     18  O   UNL     1       1.645  10.824  18.186  0.00  0.00    +0.000 OA
ENDBRANCH  11  18
ENDBRANCH   1  15
BRANCH   7  19
ATOM     19  C   UNL     1       5.166   4.101  16.769  0.00  0.00    +0.000 A 
ATOM     20  C   UNL     1       5.985   5.180  17.095  0.00  0.00    +0.000 A 
ATOM     21  C   UNL     1       6.955   5.634  16.197  0.00  0.00    +0.000 A 
ATOM     22  C   UNL     1       7.097   5.017  14.932  0.00  0.00    +0.000 A 
ATOM     23  C   UNL     1       6.257   3.941  14.584  0.00  0.00    +0.000 A 
ATOM     24  C   UNL     1       5.299   3.505  15.509  0.00  0.00    +0.000 A 
BRANCH  21  25
ATOM     25  O   UNL     1       7.797   6.686  16.480  0.00  0.00    +0.000 OA
ATOM     26  C   UNL     1       7.510   7.409  17.673  0.00  0.00    +0.000 C 
ENDBRANCH  21  25
BRANCH  22  27
ATOM     27  O   UNL     1       8.033   5.594  14.102  0.00  0.00    +0.000 OA
ATOM     28  C   UNL     1       7.792   5.527  12.703  0.00  0.00    +0.000 C 
ENDBRANCH  22  27
BRANCH  23  29
ATOM     29  O   UNL     1       6.378   3.387  13.335  0.00  0.00    +0.000 OA
ATOM     30  C   UNL     1       5.239   3.380  12.482  0.00  0.00    +0.000 C 
ENDBRANCH  23  29
ENDBRANCH   7  19
TORSDOF 6
ENDMDL
MODEL 5
REMARK VINA RESULT:      -8.3      4.331      6.558
REMARK  Name = 
REMARK  10 active torsions:
REMARK  status: ('A' for Active; 'I' for Inactive)
REMARK    1  A    between atoms: C_1  and  O_2
REMARK    2  A    between atoms: O_2  and  C_3
REMARK    3  A    between atoms: C_7  and  C_8
REMARK    4  A    between atoms: C_14  and  C_15
REMARK    5  A    between atoms: C_17  and  O_18
REMARK    6  A    between atoms: O_18  and  C_19
REMARK    7  A    between atoms: C_20  and  O_21
REMARK    8  A    between atoms: O_21  and  C_22
REMARK    9  A    between atoms: C_23  and  O_24
REMARK   10  A    between atoms: O_24  and  C_25
REMARK                            x       y       z     vdW  Elec       q    Type
REMARK                         _______ _______ _______ _____ _____    ______ ____
ROOT
ATOM      1  C   UNL     1      -1.374  10.580  19.109  0.00  0.00    +0.000 A 
ATOM      2  C   UNL     1      -1.236  11.567  20.098  0.00  0.00    +0.000 A 
ATOM      3  N   UNL     1      -0.451  11.520  21.209  0.00  0.00    +0.000 NA
ATOM      4  C   UNL     1       0.273  10.390  21.273  0.00  0.00    +0.000 A 
ATOM      5  N   UNL     1       1.151  10.041  22.253  0.00  0.00    +0.000 N 
ATOM      6  N   UNL     1       1.764   8.860  22.043  0.00  0.00    +0.000 NA
ATOM      7  C   UNL     1       1.264   8.434  20.867  0.00  0.00    +0.000 A 
ATOM      8  C   UNL     1       0.281   9.343  20.370  0.00  0.00    +0.000 A 
ATOM      9  C   UNL     1      -0.598   9.424  19.277  0.00  0.00    +0.000 A 
ATOM     10  H   UNL     1       1.372  10.573  23.085  0.00  0.00    +0.000 HD
ENDROOT
BRANCH   1  15
ATOM     11  C   UNL     1      -4.352  11.633  16.999  0.00  0.00    +0.000 A 
ATOM     12  C   UNL     1      -4.080  10.987  15.795  0.00  0.00    +0.000 A 
ATOM     13  C   UNL     1      -2.928  10.216  15.655  0.00  0.00    +0.000 A 
ATOM     14  C   UNL     1      -2.041  10.095  16.725  0.00  0.00    +0.000 A 
ATOM     15  C   UNL     1      -2.290  10.724  17.958  0.00  0.00    +0.000 A 
ATOM     16  C   UNL     1      -3.466  11.490  18.068  0.00  0.00    +0.000 A 
BRANCH  11  18
ATOM     17  C   UNL     1      -6.574  11.846  17.807  0.00  0.00    +0.000 C 
ATOM     18  O   UNL     1      -5.509  12.365  17.019  0.00  0.00    +0.000 OA
ENDBRANCH  11  18
ENDBRANCH   1  15
BRANCH   7  19
ATOM     19  C   UNL     1       1.731   7.196  20.242  0.00  0.00    +0.000 A 
ATOM     20  C   UNL     1       2.501   7.242  19.081  0.00  0.00    +0.000 A 
ATOM     21  C   UNL     1       2.972   6.065  18.492  0.00  0.00    +0.000 A 
ATOM     22  C   UNL     1       2.646   4.809  19.055  0.00  0.00    +0.000 A 
ATOM     23  C   UNL     1       1.847   4.752  20.214  0.00  0.00    +0.000 A 
ATOM     24  C   UNL     1       1.397   5.949  20.785  0.00  0.00    +0.000 A 
BRANCH  21  25
ATOM     25  O   UNL     1       3.747   6.061  17.355  0.00  0.00    +0.000 OA
ATOM     26  C   UNL     1       4.996   6.740  17.450  0.00  0.00    +0.000 C 
ENDBRANCH  21  25
BRANCH  22  27
ATOM     27  O   UNL     1       3.101   3.717  18.349  0.00  0.00    +0.000 OA
ATOM     28  C   UNL     1       4.313   3.118  18.786  0.00  0.00    +0.000 C 
ENDBRANCH  22  27
BRANCH  23  29
ATOM     29  O   UNL     1       1.503   3.523  20.717  0.00  0.00    +0.000 OA
ATOM     30  C   UNL     1       2.242   3.011  21.820  0.00  0.00    +0.000 C 
ENDBRANCH  23  29
ENDBRANCH   7  19
TORSDOF 6
ENDMDL
MODEL 6
REMARK VINA RESULT:      -8.3      4.350      6.557
REMARK  Name = 
REMARK  10 active torsions:
REMARK  status: ('A' for Active; 'I' for Inactive)
REMARK    1  A    between atoms: C_1  and  O_2
REMARK    2  A    between atoms: O_2  and  C_3
REMARK    3  A    between atoms: C_7  and  C_8
REMARK    4  A    between atoms: C_14  and  C_15
REMARK    5  A    between atoms: C_17  and  O_18
REMARK    6  A    between atoms: O_18  and  C_19
REMARK    7  A    between atoms: C_20  and  O_21
REMARK    8  A    between atoms: O_21  and  C_22
REMARK    9  A    between atoms: C_23  and  O_24
REMARK   10  A    between atoms: O_24  and  C_25
REMARK                            x       y       z     vdW  Elec       q    Type
REMARK                         _______ _______ _______ _____ _____    ______ ____
ROOT
ATOM      1  C   UNL     1      -1.501  10.571  19.063  0.00  0.00    +0.000 A 
ATOM      2  C   UNL     1      -1.522  11.497  20.119  0.00  0.00    +0.000 A 
ATOM      3  N   UNL     1      -0.807  11.447  21.276  0.00  0.00    +0.000 NA
ATOM      4  C   UNL     1       0.017  10.387  21.320  0.00  0.00    +0.000 A 
ATOM      5  N   UNL     1       0.861  10.055  22.335  0.00  0.00    +0.000 N 
ATOM      6  N   UNL     1       1.597   8.952  22.095  0.00  0.00    +0.000 NA
ATOM      7  C   UNL     1       1.216   8.564  20.864  0.00  0.00    +0.000 A 
ATOM      8  C   UNL     1       0.183   9.410  20.357  0.00  0.00    +0.000 A 
ATOM      9  C   UNL     1      -0.630   9.483  19.213  0.00  0.00    +0.000 A 
ATOM     10  H   UNL     1       0.977  10.548  23.211  0.00  0.00    +0.000 HD
ENDROOT
BRANCH   1  15
ATOM     11  C   UNL     1      -4.384  11.569  16.799  0.00  0.00    +0.000 A 
ATOM     12  C   UNL     1      -4.021  10.956  15.603  0.00  0.00    +0.000 A 
ATOM     13  C   UNL     1      -2.838  10.225  15.517  0.00  0.00    +0.000 A 
ATOM     14  C   UNL     1      -2.011  10.111  16.635  0.00  0.00    +0.000 A 
ATOM     15  C   UNL     1      -2.353  10.708  17.863  0.00  0.00    +0.000 A 
ATOM     16  C   UNL     1      -3.558  11.434  17.917  0.00  0.00    +0.000 A 
BRANCH  11  18
ATOM     17  C   UNL     1      -6.472  12.023  17.832  0.00  0.00    +0.000 C 
ATOM     18  O   UNL     1      -5.564  12.262  16.764  0.00  0.00    +0.000 OA
ENDBRANCH  11  18
ENDBRANCH   1  15
BRANCH   7  19
ATOM     19  C   UNL     1       1.838   7.419  20.197  0.00  0.00    +0.000 A 
ATOM     20  C   UNL     1       1.787   6.154  20.778  0.00  0.00    +0.000 A 
ATOM     21  C   UNL     1       2.357   5.052  20.134  0.00  0.00    +0.000 A 
ATOM     22  C   UNL     1       3.019   5.216  18.895  0.00  0.00    +0.000 A 
ATOM     23  C   UNL     1       3.098   6.496  18.313  0.00  0.00    +0.000 A 
ATOM     24  C   UNL     1       2.510   7.579  18.978  0.00  0.00    +0.000 A 
BRANCH  21  25
ATOM     25  O   UNL     1       2.319   3.780  20.662  0.00  0.00    +0.000 OA
ATOM     26  C   UNL     1       1.040   3.153  20.681  0.00  0.00    +0.000 C 
ENDBRANCH  21  25
BRANCH  22  27
ATOM     27  O   UNL     1       3.607   4.076  18.392  0.00  0.00    +0.000 OA
ATOM     28  C   UNL     1       2.913   3.388  17.360  0.00  0.00    +0.000 C 
ENDBRANCH  22  27
BRANCH  23  29
ATOM     29  O   UNL     1       3.785   6.643  17.134  0.00  0.00    +0.000 OA
ATOM     30  C   UNL     1       5.190   6.862  17.190  0.00  0.00    +0.000 C 
ENDBRANCH  23  29
ENDBRANCH   7  19
TORSDOF 6
ENDMDL
MODEL 7
REMARK VINA RESULT:      -8.3      4.346      6.735
REMARK  Name = 
REMARK  10 active torsions:
REMARK  status: ('A' for Active; 'I' for Inactive)
REMARK    1  A    between atoms: C_1  and  O_2
REMARK    2  A    between atoms: O_2  and  C_3
REMARK    3  A    between atoms: C_7  and  C_8
REMARK    4  A    between atoms: C_14  and  C_15
REMARK    5  A    between atoms: C_17  and  O_18
REMARK    6  A    between atoms: O_18  and  C_19
REMARK    7  A    between atoms: C_20  and  O_21
REMARK    8  A    between atoms: O_21  and  C_22
REMARK    9  A    between atoms: C_23  and  O_24
REMARK   10  A    between atoms: O_24  and  C_25
REMARK                            x       y       z     vdW  Elec       q    Type
REMARK                         _______ _______ _______ _____ _____    ______ ____
ROOT
ATOM      1  C   UNL     1      -1.473  10.653  19.152  0.00  0.00    +0.000 A 
ATOM      2  C   UNL     1      -1.375  11.608  20.178  0.00  0.00    +0.000 A 
ATOM      3  N   UNL     1      -0.603  11.541  21.297  0.00  0.00    +0.000 NA
ATOM      4  C   UNL     1       0.150  10.430  21.331  0.00  0.00    +0.000 A 
ATOM      5  N   UNL     1       1.024  10.070  22.310  0.00  0.00    +0.000 N 
ATOM      6  N   UNL     1       1.671   8.913  22.067  0.00  0.00    +0.000 NA
ATOM      7  C   UNL     1       1.199   8.517  20.870  0.00  0.00    +0.000 A 
ATOM      8  C   UNL     1       0.198   9.416  20.392  0.00  0.00    +0.000 A 
ATOM      9  C   UNL     1      -0.669   9.513  19.290  0.00  0.00    +0.000 A 
ATOM     10  H   UNL     1       1.219  10.578  23.163  0.00  0.00    +0.000 HD
ENDROOT
BRANCH   1  15
ATOM     11  C   UNL     1      -2.836  10.495  15.610  0.00  0.00    +0.000 A 
ATOM     12  C   UNL     1      -4.062  11.140  15.756  0.00  0.00    +0.000 A 
ATOM     13  C   UNL     1      -4.460  11.621  17.002  0.00  0.00    +0.000 A 
ATOM     14  C   UNL     1      -3.627  11.451  18.109  0.00  0.00    +0.000 A 
ATOM     15  C   UNL     1      -2.378  10.814  17.994  0.00  0.00    +0.000 A 
ATOM     16  C   UNL     1      -2.004  10.346  16.721  0.00  0.00    +0.000 A 
BRANCH  11  18
ATOM     17  C   UNL     1      -3.661   9.924  13.459  0.00  0.00    +0.000 C 
ATOM     18  O   UNL     1      -2.554  10.062  14.342  0.00  0.00    +0.000 OA
ENDBRANCH  11  18
ENDBRANCH   1  15
BRANCH   7  19
ATOM     19  C   UNL     1       1.707   7.315  20.208  0.00  0.00    +0.000 A 
ATOM     20  C   UNL     1       1.433   6.054  20.734  0.00  0.00    +0.000 A 
ATOM     21  C   UNL     1       1.893   4.900  20.092  0.00  0.00    +0.000 A 
ATOM     22  C   UNL     1       2.669   5.003  18.914  0.00  0.00    +0.000 A 
ATOM     23  C   UNL     1       2.973   6.274  18.390  0.00  0.00    +0.000 A 
ATOM     24  C   UNL     1       2.490   7.411  19.051  0.00  0.00    +0.000 A 
BRANCH  21  25
ATOM     25  O   UNL     1       1.635   3.633  20.566  0.00  0.00    +0.000 OA
ATOM     26  C   UNL     1       2.306   3.269  21.768  0.00  0.00    +0.000 C 
ENDBRANCH  21  25
BRANCH  22  27
ATOM     27  O   UNL     1       3.130   3.806  18.413  0.00  0.00    +0.000 OA
ATOM     28  C   UNL     1       2.480   3.291  17.258  0.00  0.00    +0.000 C 
ENDBRANCH  22  27
BRANCH  23  29
ATOM     29  O   UNL     1       3.766   6.355  17.274  0.00  0.00    +0.000 OA
ATOM     30  C   UNL     1       5.141   6.680  17.441  0.00  0.00    +0.000 C 
ENDBRANCH  23  29
ENDBRANCH   7  19
TORSDOF 6
ENDMDL
MODEL 8
REMARK VINA RESULT:      -8.3      3.196      8.522
REMARK  Name = 
REMARK  10 active torsions:
REMARK  status: ('A' for Active; 'I' for Inactive)
REMARK    1  A    between atoms: C_1  and  O_2
REMARK    2  A    between atoms: O_2  and  C_3
REMARK    3  A    between atoms: C_7  and  C_8
REMARK    4  A    between atoms: C_14  and  C_15
REMARK    5  A    between atoms: C_17  and  O_18
REMARK    6  A    between atoms: O_18  and  C_19
REMARK    7  A    between atoms: C_20  and  O_21
REMARK    8  A    between atoms: O_21  and  C_22
REMARK    9  A    between atoms: C_23  and  O_24
REMARK   10  A    between atoms: O_24  and  C_25
REMARK                            x       y       z     vdW  Elec       q    Type
REMARK                         _______ _______ _______ _____ _____    ______ ____
ROOT
ATOM      1  C   UNL     1       6.209   4.237  13.770  0.00  0.00    +0.000 A 
ATOM      2  C   UNL     1       7.429   4.929  13.715  0.00  0.00    +0.000 A 
ATOM      3  N   UNL     1       7.958   5.747  14.667  0.00  0.00    +0.000 NA
ATOM      4  C   UNL     1       7.189   5.813  15.766  0.00  0.00    +0.000 A 
ATOM      5  N   UNL     1       7.438   6.539  16.890  0.00  0.00    +0.000 N 
ATOM      6  N   UNL     1       6.508   6.392  17.853  0.00  0.00    +0.000 NA
ATOM      7  C   UNL     1       5.625   5.523  17.328  0.00  0.00    +0.000 A 
ATOM      8  C   UNL     1       5.987   5.170  15.992  0.00  0.00    +0.000 A 
ATOM      9  C   UNL     1       5.463   4.391  14.947  0.00  0.00    +0.000 A 
ATOM     10  H   UNL     1       8.230   7.149  17.053  0.00  0.00    +0.000 HD
ENDROOT
BRANCH   1  15
ATOM     11  C   UNL     1       4.015   2.942  10.951  0.00  0.00    +0.000 A 
ATOM     12  C   UNL     1       4.719   1.808  10.552  0.00  0.00    +0.000 A 
ATOM     13  C   UNL     1       5.910   1.460  11.184  0.00  0.00    +0.000 A 
ATOM     14  C   UNL     1       6.404   2.256  12.219  0.00  0.00    +0.000 A 
ATOM     15  C   UNL     1       5.713   3.402  12.655  0.00  0.00    +0.000 A 
ATOM     16  C   UNL     1       4.509   3.721  11.999  0.00  0.00    +0.000 A 
BRANCH  11  18
ATOM     17  C   UNL     1       2.812   4.403   9.519  0.00  0.00    +0.000 C 
ATOM     18  O   UNL     1       2.862   3.186  10.256  0.00  0.00    +0.000 OA
ENDBRANCH  11  18
ENDBRANCH   1  15
BRANCH   7  19
ATOM     19  C   UNL     1       4.477   5.041  18.097  0.00  0.00    +0.000 A 
ATOM     20  C   UNL     1       3.746   5.920  18.894  0.00  0.00    +0.000 A 
ATOM     21  C   UNL     1       2.633   5.472  19.611  0.00  0.00    +0.000 A 
ATOM     22  C   UNL     1       2.252   4.111  19.557  0.00  0.00    +0.000 A 
ATOM     23  C   UNL     1       3.000   3.210  18.775  0.00  0.00    +0.000 A 
ATOM     24  C   UNL     1       4.106   3.691  18.061  0.00  0.00    +0.000 A 
BRANCH  21  25
ATOM     25  O   UNL     1       1.872   6.306  20.400  0.00  0.00    +0.000 OA
ATOM     26  C   UNL     1       1.916   7.690  20.065  0.00  0.00    +0.000 C 
ENDBRANCH  21  25
BRANCH  22  27
ATOM     27  O   UNL     1       1.188   3.770  20.362  0.00  0.00    +0.000 OA
ATOM     28  C   UNL     1       1.477   3.052  21.554  0.00  0.00    +0.000 C 
ENDBRANCH  22  27
BRANCH  23  29
ATOM     29  O   UNL     1       2.644   1.886  18.772  0.00  0.00    +0.000 OA
ATOM     30  C   UNL     1       3.663   0.909  18.590  0.00  0.00    +0.000 C 
ENDBRANCH  23  29
ENDBRANCH   7  19
TORSDOF 6
ENDMDL
MODEL 9
REMARK VINA RESULT:      -8.3      3.131      8.753
REMARK  Name = 
REMARK  10 active torsions:
REMARK  status: ('A' for Active; 'I' for Inactive)
REMARK    1  A    between atoms: C_1  and  O_2
REMARK    2  A    between atoms: O_2  and  C_3
REMARK    3  A    between atoms: C_7  and  C_8
REMARK    4  A    between atoms: C_14  and  C_15
REMARK    5  A    between atoms: C_17  and  O_18
REMARK    6  A    between atoms: O_18  and  C_19
REMARK    7  A    between atoms: C_20  and  O_21
REMARK    8  A    between atoms: O_21  and  C_22
REMARK    9  A    between atoms: C_23  and  O_24
REMARK   10  A    between atoms: O_24  and  C_25
REMARK                            x       y       z     vdW  Elec       q    Type
REMARK                         _______ _______ _______ _____ _____    ______ ____
ROOT
ATOM      1  C   UNL     1       6.127   4.293  13.874  0.00  0.00    +0.000 A 
ATOM      2  C   UNL     1       7.364   4.956  13.822  0.00  0.00    +0.000 A 
ATOM      3  N   UNL     1       7.920   5.745  14.782  0.00  0.00    +0.000 NA
ATOM      4  C   UNL     1       7.160   5.811  15.888  0.00  0.00    +0.000 A 
ATOM      5  N   UNL     1       7.435   6.513  17.022  0.00  0.00    +0.000 N 
ATOM      6  N   UNL     1       6.508   6.373  17.990  0.00  0.00    +0.000 NA
ATOM      7  C   UNL     1       5.601   5.533  17.457  0.00  0.00    +0.000 A 
ATOM      8  C   UNL     1       5.944   5.194  16.113  0.00  0.00    +0.000 A 
ATOM      9  C   UNL     1       5.394   4.445  15.059  0.00  0.00    +0.000 A 
ATOM     10  H   UNL     1       8.242   7.100  17.189  0.00  0.00    +0.000 HD
ENDROOT
BRANCH   1  15
ATOM     11  C   UNL     1       5.822   1.572  11.239  0.00  0.00    +0.000 A 
ATOM     12  C   UNL     1       4.655   1.954  10.582  0.00  0.00    +0.000 A 
ATOM     13  C   UNL     1       3.954   3.086  10.993  0.00  0.00    +0.000 A 
ATOM     14  C   UNL     1       4.422   3.838  12.071  0.00  0.00    +0.000 A 
ATOM     15  C   UNL     1       5.604   3.488  12.750  0.00  0.00    +0.000 A 
ATOM     16  C   UNL     1       6.291   2.343  12.305  0.00  0.00    +0.000 A 
BRANCH  11  18
ATOM     17  C   UNL     1       5.996  -0.793  11.314  0.00  0.00    +0.000 C 
ATOM     18  O   UNL     1       6.422   0.443  10.752  0.00  0.00    +0.000 OA
ENDBRANCH  11  18
ENDBRANCH   1  15
BRANCH   7  19
ATOM     19  C   UNL     1       4.447   5.067  18.227  0.00  0.00    +0.000 A 
ATOM     20  C   UNL     1       3.740   5.951  19.039  0.00  0.00    +0.000 A 
ATOM     21  C   UNL     1       2.622   5.519  19.758  0.00  0.00    +0.000 A 
ATOM     22  C   UNL     1       2.211   4.167  19.689  0.00  0.00    +0.000 A 
ATOM     23  C   UNL     1       2.935   3.260  18.890  0.00  0.00    +0.000 A 
ATOM     24  C   UNL     1       4.046   3.726  18.176  0.00  0.00    +0.000 A 
BRANCH  21  25
ATOM     25  O   UNL     1       1.883   6.359  20.561  0.00  0.00    +0.000 OA
ATOM     26  C   UNL     1       1.870   7.732  20.181  0.00  0.00    +0.000 C 
ENDBRANCH  21  25
BRANCH  22  27
ATOM     27  O   UNL     1       1.144   3.839  20.495  0.00  0.00    +0.000 OA
ATOM     28  C   UNL     1       1.415   3.042  21.640  0.00  0.00    +0.000 C 
ENDBRANCH  22  27
BRANCH  23  29
ATOM     29  O   UNL     1       2.549   1.944  18.873  0.00  0.00    +0.000 OA
ATOM     30  C   UNL     1       3.559   0.941  18.892  0.00  0.00    +0.000 C 
ENDBRANCH  23  29
ENDBRANCH   7  19
TORSDOF 6
ENDMDL
