MODEL 1
REMARK VINA RESULT:      -5.1      0.000      0.000
REMARK  Name = 
REMARK  5 active torsions:
REMARK  status: ('A' for Active; 'I' for Inactive)
REMARK    1  A    between atoms: C_1  and  C_2
REMARK    2  A    between atoms: C_2  and  N_3
REMARK    3  A    between atoms: N_3  and  C_4
REMARK    4  A    between atoms: C_9  and  C_10
REMARK    5  A    between atoms: C_10  and  N_11
REMARK                            x       y       z     vdW  Elec       q    Type
REMARK                         _______ _______ _______ _____ _____    ______ ____
ROOT
ATOM      1  C   UNL     1       4.564   4.229  18.409  0.00  0.00    +0.000 A 
ATOM      2  C   UNL     1       4.080   5.516  18.077  0.00  0.00    +0.000 A 
ATOM      3  C   UNL     1       2.725   5.744  17.851  0.00  0.00    +0.000 A 
ATOM      4  C   UNL     1       1.817   4.697  17.948  0.00  0.00    +0.000 A 
ATOM      5  C   UNL     1       2.263   3.419  18.274  0.00  0.00    +0.000 A 
ATOM      6  C   UNL     1       3.624   3.157  18.517  0.00  0.00    +0.000 A 
ENDROOT
BRANCH   1   7
ATOM      7  N   UNL     1       5.970   4.024  18.622  0.00  0.00    +0.000 N 
ATOM      8  H   UNL     1       6.299   3.353  19.322  0.00  0.00    +0.000 HD
BRANCH   7  10
ATOM      9  C   UNL     1       7.703   5.758  18.744  0.00  0.00    +0.000 C 
ATOM     10  C   UNL     1       7.008   4.711  17.873  0.00  0.00    +0.000 C 
ENDBRANCH   7  10
ENDBRANCH   1   7
BRANCH   6  11
ATOM     11  C   UNL     1       3.987   1.717  18.823  0.00  0.00    +0.000 C 
BRANCH  11  12
ATOM     12  N   UNL     1       4.930   1.653  19.936  0.00  0.00    +0.000 NA
ATOM     13  H   UNL     1       4.413   1.776  20.837  0.00  0.00    +0.000 HD
ATOM     14  H   UNL     1       5.618   2.436  19.842  0.00  0.00    +0.000 HD
ENDBRANCH  11  12
ENDBRANCH   6  11
TORSDOF 4
ENDMDL
MODEL 2
REMARK VINA RESULT:      -5.1      1.614      2.475
REMARK  Name = 
REMARK  5 active torsions:
REMARK  status: ('A' for Active; 'I' for Inactive)
REMARK    1  A    between atoms: C_1  and  C_2
REMARK    2  A    between atoms: C_2  and  N_3
REMARK    3  A    between atoms: N_3  and  C_4
REMARK    4  A    between atoms: C_9  and  C_10
REMARK    5  A    between atoms: C_10  and  N_11
REMARK                            x       y       z     vdW  Elec       q    Type
REMARK                         _______ _______ _______ _____ _____    ______ ____
ROOT
ATOM      1  C   UNL     1       4.544   3.460  18.809  0.00  0.00    +0.000 A 
ATOM      2  C   UNL     1       3.766   2.912  19.857  0.00  0.00    +0.000 A 
ATOM      3  C   UNL     1       2.464   2.468  19.636  0.00  0.00    +0.000 A 
ATOM      4  C   UNL     1       1.903   2.560  18.368  0.00  0.00    +0.000 A 
ATOM      5  C   UNL     1       2.644   3.092  17.318  0.00  0.00    +0.000 A 
ATOM      6  C   UNL     1       3.965   3.541  17.505  0.00  0.00    +0.000 A 
ENDROOT
BRANCH   1   7
ATOM      7  N   UNL     1       5.878   3.921  19.073  0.00  0.00    +0.000 N 
ATOM      8  H   UNL     1       6.663   3.264  19.087  0.00  0.00    +0.000 HD
BRANCH   7  10
ATOM      9  C   UNL     1       7.617   5.629  18.777  0.00  0.00    +0.000 C 
ATOM     10  C   UNL     1       6.218   5.313  19.311  0.00  0.00    +0.000 C 
ENDBRANCH   7  10
ENDBRANCH   1   7
BRANCH   6  11
ATOM     11  C   UNL     1       4.650   4.138  16.292  0.00  0.00    +0.000 C 
BRANCH  11  12
ATOM     12  N   UNL     1       5.944   3.498  16.069  0.00  0.00    +0.000 NA
ATOM     13  H   UNL     1       5.795   2.534  15.693  0.00  0.00    +0.000 HD
ATOM     14  H   UNL     1       6.444   3.420  16.985  0.00  0.00    +0.000 HD
ENDBRANCH  11  12
ENDBRANCH   6  11
TORSDOF 4
ENDMDL
MODEL 3
REMARK VINA RESULT:      -5.1      1.592      3.402
REMARK  Name = 
REMARK  5 active torsions:
REMARK  status: ('A' for Active; 'I' for Inactive)
REMARK    1  A    between atoms: C_1  and  C_2
REMARK    2  A    between atoms: C_2  and  N_3
REMARK    3  A    between atoms: N_3  and  C_4
REMARK    4  A    between atoms: C_9  and  C_10
REMARK    5  A    between atoms: C_10  and  N_11
REMARK                            x       y       z     vdW  Elec       q    Type
REMARK                         _______ _______ _______ _____ _____    ______ ____
ROOT
ATOM      1  C   UNL     1       4.702   4.553  18.720  0.00  0.00    +0.000 A 
ATOM      2  C   UNL     1       3.599   5.267  19.245  0.00  0.00    +0.000 A 
ATOM      3  C   UNL     1       3.183   6.472  18.683  0.00  0.00    +0.000 A 
ATOM      4  C   UNL     1       3.854   6.998  17.586  0.00  0.00    +0.000 A 
ATOM      5  C   UNL     1       4.942   6.318  17.047  0.00  0.00    +0.000 A 
ATOM      6  C   UNL     1       5.383   5.094  17.585  0.00  0.00    +0.000 A 
ENDROOT
BRANCH   1   7
ATOM      7  N   UNL     1       5.114   3.321  19.331  0.00  0.00    +0.000 N 
ATOM      8  H   UNL     1       6.093   3.171  19.594  0.00  0.00    +0.000 HD
BRANCH   7  10
ATOM      9  C   UNL     1       3.554   1.691  18.364  0.00  0.00    +0.000 C 
ATOM     10  C   UNL     1       4.206   2.230  19.639  0.00  0.00    +0.000 C 
ENDBRANCH   7  10
ENDBRANCH   1   7
BRANCH   6  11
ATOM     11  C   UNL     1       6.602   4.474  16.934  0.00  0.00    +0.000 C 
BRANCH  11  12
ATOM     12  N   UNL     1       7.684   4.331  17.904  0.00  0.00    +0.000 NA
ATOM     13  H   UNL     1       7.331   4.578  18.857  0.00  0.00    +0.000 HD
ATOM     14  H   UNL     1       8.452   4.998  17.655  0.00  0.00    +0.000 HD
ENDBRANCH  11  12
ENDBRANCH   6  11
TORSDOF 4
ENDMDL
MODEL 4
REMARK VINA RESULT:      -5.0      1.830      2.214
REMARK  Name = 
REMARK  5 active torsions:
REMARK  status: ('A' for Active; 'I' for Inactive)
REMARK    1  A    between atoms: C_1  and  C_2
REMARK    2  A    between atoms: C_2  and  N_3
REMARK    3  A    between atoms: N_3  and  C_4
REMARK    4  A    between atoms: C_9  and  C_10
REMARK    5  A    between atoms: C_10  and  N_11
REMARK                            x       y       z     vdW  Elec       q    Type
REMARK                         _______ _______ _______ _____ _____    ______ ____
ROOT
ATOM      1  C   UNL     1       4.478   4.458  17.175  0.00  0.00    +0.000 A 
ATOM      2  C   UNL     1       4.662   5.857  17.275  0.00  0.00    +0.000 A 
ATOM      3  C   UNL     1       3.666   6.684  17.791  0.00  0.00    +0.000 A 
ATOM      4  C   UNL     1       2.462   6.139  18.218  0.00  0.00    +0.000 A 
ATOM      5  C   UNL     1       2.251   4.766  18.133  0.00  0.00    +0.000 A 
ATOM      6  C   UNL     1       3.240   3.902  17.625  0.00  0.00    +0.000 A 
ENDROOT
BRANCH   1   7
ATOM      7  N   UNL     1       5.519   3.636  16.625  0.00  0.00    +0.000 N 
ATOM      8  H   UNL     1       5.603   2.652  16.895  0.00  0.00    +0.000 HD
BRANCH   7  10
ATOM      9  C   UNL     1       5.921   4.048  14.238  0.00  0.00    +0.000 C 
ATOM     10  C   UNL     1       6.493   4.108  15.656  0.00  0.00    +0.000 C 
ENDBRANCH   7  10
ENDBRANCH   1   7
BRANCH   6  11
ATOM     11  C   UNL     1       2.874   2.434  17.547  0.00  0.00    +0.000 C 
BRANCH  11  12
ATOM     12  N   UNL     1       3.830   1.627  18.302  0.00  0.00    +0.000 NA
ATOM     13  H   UNL     1       4.800   1.965  18.107  0.00  0.00    +0.000 HD
ATOM     14  H   UNL     1       3.758   0.633  17.983  0.00  0.00    +0.000 HD
ENDBRANCH  11  12
ENDBRANCH   6  11
TORSDOF 4
ENDMDL
MODEL 5
REMARK VINA RESULT:      -5.0      1.953      3.356
REMARK  Name = 
REMARK  5 active torsions:
REMARK  status: ('A' for Active; 'I' for Inactive)
REMARK    1  A    between atoms: C_1  and  C_2
REMARK    2  A    between atoms: C_2  and  N_3
REMARK    3  A    between atoms: N_3  and  C_4
REMARK    4  A    between atoms: C_9  and  C_10
REMARK    5  A    between atoms: C_10  and  N_11
REMARK                            x       y       z     vdW  Elec       q    Type
REMARK                         _______ _______ _______ _____ _____    ______ ____
ROOT
ATOM      1  C   UNL     1       4.239   5.558  18.264  0.00  0.00    +0.000 A 
ATOM      2  C   UNL     1       4.615   6.671  17.476  0.00  0.00    +0.000 A 
ATOM      3  C   UNL     1       5.119   6.509  16.187  0.00  0.00    +0.000 A 
ATOM      4  C   UNL     1       5.265   5.235  15.652  0.00  0.00    +0.000 A 
ATOM      5  C   UNL     1       4.903   4.121  16.402  0.00  0.00    +0.000 A 
ATOM      6  C   UNL     1       4.381   4.250  17.704  0.00  0.00    +0.000 A 
ENDROOT
BRANCH   1   7
ATOM      7  N   UNL     1       3.734   5.758  19.594  0.00  0.00    +0.000 N 
ATOM      8  H   UNL     1       4.363   5.722  20.401  0.00  0.00    +0.000 HD
BRANCH   7  10
ATOM      9  C   UNL     1       1.698   4.869  20.638  0.00  0.00    +0.000 C 
ATOM     10  C   UNL     1       2.341   6.041  19.894  0.00  0.00    +0.000 C 
ENDBRANCH   7  10
ENDBRANCH   1   7
BRANCH   6  11
ATOM     11  C   UNL     1       4.063   2.959  18.431  0.00  0.00    +0.000 C 
BRANCH  11  12
ATOM     12  N   UNL     1       4.985   2.760  19.547  0.00  0.00    +0.000 NA
ATOM     13  H   UNL     1       5.867   3.292  19.367  0.00  0.00    +0.000 HD
ATOM     14  H   UNL     1       5.223   1.743  19.611  0.00  0.00    +0.000 HD
ENDBRANCH  11  12
ENDBRANCH   6  11
TORSDOF 4
ENDMDL
MODEL 6
REMARK VINA RESULT:      -5.0      1.963      3.023
REMARK  Name = 
REMARK  5 active torsions:
REMARK  status: ('A' for Active; 'I' for Inactive)
REMARK    1  A    between atoms: C_1  and  C_2
REMARK    2  A    between atoms: C_2  and  N_3
REMARK    3  A    between atoms: N_3  and  C_4
REMARK    4  A    between atoms: C_9  and  C_10
REMARK    5  A    between atoms: C_10  and  N_11
REMARK                            x       y       z     vdW  Elec       q    Type
REMARK                         _______ _______ _______ _____ _____    ______ ____
ROOT
ATOM      1  C   UNL     1       6.088   4.537  18.077  0.00  0.00    +0.000 A 
ATOM      2  C   UNL     1       5.111   4.648  19.094  0.00  0.00    +0.000 A 
ATOM      3  C   UNL     1       3.755   4.487  18.816  0.00  0.00    +0.000 A 
ATOM      4  C   UNL     1       3.337   4.214  17.520  0.00  0.00    +0.000 A 
ATOM      5  C   UNL     1       4.275   4.098  16.498  0.00  0.00    +0.000 A 
ATOM      6  C   UNL     1       5.653   4.246  16.746  0.00  0.00    +0.000 A 
ENDROOT
BRANCH   1   7
ATOM      7  N   UNL     1       7.476   4.722  18.393  0.00  0.00    +0.000 N 
ATOM      8  H   UNL     1       8.179   4.051  18.069  0.00  0.00    +0.000 HD
BRANCH   7  10
ATOM      9  C   UNL     1       7.939   7.132  18.321  0.00  0.00    +0.000 C 
ATOM     10  C   UNL     1       7.987   5.850  19.154  0.00  0.00    +0.000 C 
ENDBRANCH   7  10
ENDBRANCH   1   7
BRANCH   6  11
ATOM     11  C   UNL     1       6.568   4.137  15.543  0.00  0.00    +0.000 C 
BRANCH  11  12
ATOM     12  N   UNL     1       7.297   5.386  15.340  0.00  0.00    +0.000 NA
ATOM     13  H   UNL     1       8.121   5.415  15.984  0.00  0.00    +0.000 HD
ATOM     14  H   UNL     1       6.667   6.187  15.575  0.00  0.00    +0.000 HD
ENDBRANCH  11  12
ENDBRANCH   6  11
TORSDOF 4
ENDMDL
MODEL 7
REMARK VINA RESULT:      -5.0      1.925      3.423
REMARK  Name = 
REMARK  5 active torsions:
REMARK  status: ('A' for Active; 'I' for Inactive)
REMARK    1  A    between atoms: C_1  and  C_2
REMARK    2  A    between atoms: C_2  and  N_3
REMARK    3  A    between atoms: N_3  and  C_4
REMARK    4  A    between atoms: C_9  and  C_10
REMARK    5  A    between atoms: C_10  and  N_11
REMARK                            x       y       z     vdW  Elec       q    Type
REMARK                         _______ _______ _______ _____ _____    ______ ____
ROOT
ATOM      1  C   UNL     1       2.554   4.621  19.537  0.00  0.00    +0.000 A 
ATOM      2  C   UNL     1       1.320   4.220  20.103  0.00  0.00    +0.000 A 
ATOM      3  C   UNL     1       0.750   2.987  19.796  0.00  0.00    +0.000 A 
ATOM      4  C   UNL     1       1.391   2.123  18.918  0.00  0.00    +0.000 A 
ATOM      5  C   UNL     1       2.606   2.488  18.347  0.00  0.00    +0.000 A 
ATOM      6  C   UNL     1       3.214   3.723  18.642  0.00  0.00    +0.000 A 
ENDROOT
BRANCH   1   7
ATOM      7  N   UNL     1       3.108   5.905  19.864  0.00  0.00    +0.000 N 
ATOM      8  H   UNL     1       4.029   5.978  20.305  0.00  0.00    +0.000 HD
BRANCH   7  10
ATOM      9  C   UNL     1       2.624   7.561  18.116  0.00  0.00    +0.000 C 
ATOM     10  C   UNL     1       2.443   7.166  19.584  0.00  0.00    +0.000 C 
ENDBRANCH   7  10
ENDBRANCH   1   7
BRANCH   6  11
ATOM     11  C   UNL     1       4.516   4.020  17.925  0.00  0.00    +0.000 C 
BRANCH  11  12
ATOM     12  N   UNL     1       5.648   3.866  18.835  0.00  0.00    +0.000 NA
ATOM     13  H   UNL     1       6.229   3.051  18.532  0.00  0.00    +0.000 HD
ATOM     14  H   UNL     1       5.285   3.671  19.797  0.00  0.00    +0.000 HD
ENDBRANCH  11  12
ENDBRANCH   6  11
TORSDOF 4
ENDMDL
MODEL 8
REMARK VINA RESULT:      -5.0      0.999      1.151
REMARK  Name = 
REMARK  5 active torsions:
REMARK  status: ('A' for Active; 'I' for Inactive)
REMARK    1  A    between atoms: C_1  and  C_2
REMARK    2  A    between atoms: C_2  and  N_3
REMARK    3  A    between atoms: N_3  and  C_4
REMARK    4  A    between atoms: C_9  and  C_10
REMARK    5  A    between atoms: C_10  and  N_11
REMARK                            x       y       z     vdW  Elec       q    Type
REMARK                         _______ _______ _______ _____ _____    ______ ____
ROOT
ATOM      1  C   UNL     1       3.918   3.590  17.929  0.00  0.00    +0.000 A 
ATOM      2  C   UNL     1       3.070   4.661  17.561  0.00  0.00    +0.000 A 
ATOM      3  C   UNL     1       1.694   4.600  17.773  0.00  0.00    +0.000 A 
ATOM      4  C   UNL     1       1.128   3.472  18.353  0.00  0.00    +0.000 A 
ATOM      5  C   UNL     1       1.937   2.403  18.727  0.00  0.00    +0.000 A 
ATOM      6  C   UNL     1       3.331   2.436  18.536  0.00  0.00    +0.000 A 
ENDROOT
BRANCH   1   7
ATOM      7  N   UNL     1       5.331   3.678  17.685  0.00  0.00    +0.000 N 
ATOM      8  H   UNL     1       5.792   3.022  17.048  0.00  0.00    +0.000 HD
BRANCH   7  10
ATOM      9  C   UNL     1       7.586   4.649  17.654  0.00  0.00    +0.000 C 
ATOM     10  C   UNL     1       6.191   4.684  18.284  0.00  0.00    +0.000 C 
ENDBRANCH   7  10
ENDBRANCH   1   7
BRANCH   6  11
ATOM     11  C   UNL     1       4.095   1.193  18.948  0.00  0.00    +0.000 C 
BRANCH  11  12
ATOM     12  N   UNL     1       5.100   1.521  19.956  0.00  0.00    +0.000 NA
ATOM     13  H   UNL     1       5.711   0.689  20.120  0.00  0.00    +0.000 HD
ATOM     14  H   UNL     1       4.615   1.755  20.853  0.00  0.00    +0.000 HD
ENDBRANCH  11  12
ENDBRANCH   6  11
TORSDOF 4
ENDMDL
MODEL 9
REMARK VINA RESULT:      -5.0      0.941      1.015
REMARK  Name = 
REMARK  5 active torsions:
REMARK  status: ('A' for Active; 'I' for Inactive)
REMARK    1  A    between atoms: C_1  and  C_2
REMARK    2  A    between atoms: C_2  and  N_3
REMARK    3  A    between atoms: N_3  and  C_4
REMARK    4  A    between atoms: C_9  and  C_10
REMARK    5  A    between atoms: C_10  and  N_11
REMARK                            x       y       z     vdW  Elec       q    Type
REMARK                         _______ _______ _______ _____ _____    ______ ____
ROOT
ATOM      1  C   UNL     1       4.291   3.900  18.708  0.00  0.00    +0.000 A 
ATOM      2  C   UNL     1       3.582   4.670  17.756  0.00  0.00    +0.000 A 
ATOM      3  C   UNL     1       2.190   4.653  17.703  0.00  0.00    +0.000 A 
ATOM      4  C   UNL     1       1.469   3.867  18.593  0.00  0.00    +0.000 A 
ATOM      5  C   UNL     1       2.139   3.100  19.542  0.00  0.00    +0.000 A 
ATOM      6  C   UNL     1       3.544   3.102  19.628  0.00  0.00    +0.000 A 
ENDROOT
BRANCH   1   7
ATOM      7  N   UNL     1       5.727   3.930  18.728  0.00  0.00    +0.000 N 
ATOM      8  H   UNL     1       6.250   3.388  19.421  0.00  0.00    +0.000 HD
BRANCH   7  10
ATOM      9  C   UNL     1       7.570   5.539  18.517  0.00  0.00    +0.000 C 
ATOM     10  C   UNL     1       6.531   4.688  17.784  0.00  0.00    +0.000 C 
ENDBRANCH   7  10
ENDBRANCH   1   7
BRANCH   6  11
ATOM     11  C   UNL     1       4.153   2.193  20.677  0.00  0.00    +0.000 C 
BRANCH  11  12
ATOM     12  N   UNL     1       5.209   1.371  20.090  0.00  0.00    +0.000 NA
ATOM     13  H   UNL     1       5.612   0.747  20.826  0.00  0.00    +0.000 HD
ATOM     14  H   UNL     1       5.969   1.998  19.739  0.00  0.00    +0.000 HD
ENDBRANCH  11  12
ENDBRANCH   6  11
TORSDOF 4
ENDMDL
