MODEL 1
REMARK VINA RESULT:      -7.3      0.000      0.000
REMARK  Name = 
REMARK  7 active torsions:
REMARK  status: ('A' for Active; 'I' for Inactive)
REMARK    1  A    between atoms: C_1  and  C_2
REMARK    2  A    between atoms: C_2  and  C_3
REMARK    3  A    between atoms: C_2  and  N_4
REMARK    4  A    between atoms: N_4  and  C_5
REMARK    5  A    between atoms: C_5  and  N_7
REMARK    6  A    between atoms: C_8  and  C_10
REMARK    7  A    between atoms: C_13  and  C_14
REMARK                            x       y       z     vdW  Elec       q    Type
REMARK                         _______ _______ _______ _____ _____    ______ ____
ROOT
ATOM      1  C   UNL     1       2.609   7.400  18.497  0.00  0.00    +0.000 A 
ATOM      2  C   UNL     1       2.315   7.029  19.809  0.00  0.00    +0.000 A 
ATOM      3  C   UNL     1       1.517   7.836  20.616  0.00  0.00    +0.000 A 
ATOM      4  C   UNL     1       0.999   9.058  20.156  0.00  0.00    +0.000 A 
ATOM      5  C   UNL     1       1.308   9.423  18.828  0.00  0.00    +0.000 A 
ATOM      6  C   UNL     1       2.097   8.602  18.000  0.00  0.00    +0.000 A 
ENDROOT
BRANCH   4   7
ATOM      7  C   UNL     1       0.144   9.879  21.051  0.00  0.00    +0.000 A 
ATOM      8  C   UNL     1      -0.300  11.161  20.658  0.00  0.00    +0.000 A 
ATOM      9  C   UNL     1      -0.984  12.006  21.536  0.00  0.00    +0.000 A 
ATOM     10  C   UNL     1      -1.278  11.574  22.822  0.00  0.00    +0.000 A 
ATOM     11  C   UNL     1      -0.901  10.294  23.222  0.00  0.00    +0.000 A 
ATOM     12  C   UNL     1      -0.197   9.458  22.346  0.00  0.00    +0.000 A 
ENDBRANCH   4   7
BRANCH   1  14
ATOM     13  N   UNL     1       3.112   5.154  17.623  0.00  0.00    +0.000 N 
ATOM     14  C   UNL     1       3.491   6.483  17.739  0.00  0.00    +0.000 C 
ATOM     15  O   UNL     1       4.541   6.932  17.276  0.00  0.00    +0.000 OA
ATOM     16  H   UNL     1       2.258   4.848  18.065  0.00  0.00    +0.000 HD
BRANCH  13  17
ATOM     17  C   UNL     1       3.898   4.110  17.165  0.00  0.00    +0.000 C 
ATOM     18  S   UNL     1       3.804   2.643  17.955  0.00  0.00    +0.000 S 
BRANCH  17  19
ATOM     19  N   UNL     1       4.697   4.398  16.090  0.00  0.00    +0.000 N 
ATOM     20  H   UNL     1       4.465   5.278  15.625  0.00  0.00    +0.000 HD
BRANCH  19  22
ATOM     21  C   UNL     1       6.457   4.253  14.388  0.00  0.00    +0.000 C 
ATOM     22  C   UNL     1       6.049   3.907  15.818  0.00  0.00    +0.000 C 
ATOM     23  C   UNL     1       7.027   4.538  16.809  0.00  0.00    +0.000 C 
ENDBRANCH  19  22
ENDBRANCH  17  19
ENDBRANCH  13  17
ENDBRANCH   1  14
TORSDOF 5
ENDMDL
MODEL 2
REMARK VINA RESULT:      -7.2      0.157      1.058
REMARK  Name = 
REMARK  7 active torsions:
REMARK  status: ('A' for Active; 'I' for Inactive)
REMARK    1  A    between atoms: C_1  and  C_2
REMARK    2  A    between atoms: C_2  and  C_3
REMARK    3  A    between atoms: C_2  and  N_4
REMARK    4  A    between atoms: N_4  and  C_5
REMARK    5  A    between atoms: C_5  and  N_7
REMARK    6  A    between atoms: C_8  and  C_10
REMARK    7  A    between atoms: C_13  and  C_14
REMARK                            x       y       z     vdW  Elec       q    Type
REMARK                         _______ _______ _______ _____ _____    ______ ____
ROOT
ATOM      1  C   UNL     1       2.599   7.372  18.446  0.00  0.00    +0.000 A 
ATOM      2  C   UNL     1       2.331   7.025  19.769  0.00  0.00    +0.000 A 
ATOM      3  C   UNL     1       1.575   7.862  20.586  0.00  0.00    +0.000 A 
ATOM      4  C   UNL     1       1.076   9.091  20.124  0.00  0.00    +0.000 A 
ATOM      5  C   UNL     1       1.359   9.431  18.784  0.00  0.00    +0.000 A 
ATOM      6  C   UNL     1       2.105   8.580  17.946  0.00  0.00    +0.000 A 
ENDROOT
BRANCH   4   7
ATOM      7  C   UNL     1       0.267   9.946  21.030  0.00  0.00    +0.000 A 
ATOM      8  C   UNL     1      -0.023   9.536  22.350  0.00  0.00    +0.000 A 
ATOM      9  C   UNL     1      -0.896  10.256  23.171  0.00  0.00    +0.000 A 
ATOM     10  C   UNL     1      -1.473  11.429  22.704  0.00  0.00    +0.000 A 
ATOM     11  C   UNL     1      -1.164  11.888  21.426  0.00  0.00    +0.000 A 
ATOM     12  C   UNL     1      -0.305  11.153  20.599  0.00  0.00    +0.000 A 
ENDBRANCH   4   7
BRANCH   1  14
ATOM     13  N   UNL     1       3.069   5.086  17.661  0.00  0.00    +0.000 N 
ATOM     14  C   UNL     1       3.437   6.422  17.677  0.00  0.00    +0.000 C 
ATOM     15  O   UNL     1       4.445   6.855  17.115  0.00  0.00    +0.000 OA
ATOM     16  H   UNL     1       2.253   4.796  18.180  0.00  0.00    +0.000 HD
BRANCH  13  17
ATOM     17  C   UNL     1       3.834   4.026  17.205  0.00  0.00    +0.000 C 
ATOM     18  S   UNL     1       3.829   2.609  18.087  0.00  0.00    +0.000 S 
BRANCH  17  19
ATOM     19  N   UNL     1       4.541   4.257  16.054  0.00  0.00    +0.000 N 
ATOM     20  H   UNL     1       4.226   5.078  15.533  0.00  0.00    +0.000 HD
BRANCH  19  22
ATOM     21  C   UNL     1       6.222   4.144  14.272  0.00  0.00    +0.000 C 
ATOM     22  C   UNL     1       5.898   3.817  15.729  0.00  0.00    +0.000 C 
ATOM     23  C   UNL     1       6.893   4.512  16.656  0.00  0.00    +0.000 C 
ENDBRANCH  19  22
ENDBRANCH  17  19
ENDBRANCH  13  17
ENDBRANCH   1  14
TORSDOF 5
ENDMDL
MODEL 3
REMARK VINA RESULT:      -7.2      2.562      4.310
REMARK  Name = 
REMARK  7 active torsions:
REMARK  status: ('A' for Active; 'I' for Inactive)
REMARK    1  A    between atoms: C_1  and  C_2
REMARK    2  A    between atoms: C_2  and  C_3
REMARK    3  A    between atoms: C_2  and  N_4
REMARK    4  A    between atoms: N_4  and  C_5
REMARK    5  A    between atoms: C_5  and  N_7
REMARK    6  A    between atoms: C_8  and  C_10
REMARK    7  A    between atoms: C_13  and  C_14
REMARK                            x       y       z     vdW  Elec       q    Type
REMARK                         _______ _______ _______ _____ _____    ______ ____
ROOT
ATOM      1  C   UNL     1       4.679   5.281  16.635  0.00  0.00    +0.000 A 
ATOM      2  C   UNL     1       4.780   6.670  16.569  0.00  0.00    +0.000 A 
ATOM      3  C   UNL     1       3.968   7.482  17.358  0.00  0.00    +0.000 A 
ATOM      4  C   UNL     1       3.006   6.942  18.227  0.00  0.00    +0.000 A 
ATOM      5  C   UNL     1       2.912   5.535  18.279  0.00  0.00    +0.000 A 
ATOM      6  C   UNL     1       3.744   4.707  17.500  0.00  0.00    +0.000 A 
ENDROOT
BRANCH   4   7
ATOM      7  C   UNL     1       2.169   7.848  19.055  0.00  0.00    +0.000 A 
ATOM      8  C   UNL     1       1.862   7.531  20.397  0.00  0.00    +0.000 A 
ATOM      9  C   UNL     1       0.966   8.295  21.148  0.00  0.00    +0.000 A 
ATOM     10  C   UNL     1       0.381   9.423  20.588  0.00  0.00    +0.000 A 
ATOM     11  C   UNL     1       0.705   9.792  19.285  0.00  0.00    +0.000 A 
ATOM     12  C   UNL     1       1.588   9.012  18.528  0.00  0.00    +0.000 A 
ENDBRANCH   4   7
BRANCH   1  14
ATOM     13  N   UNL     1       6.115   5.173  14.638  0.00  0.00    +0.000 N 
ATOM     14  C   UNL     1       5.570   4.516  15.731  0.00  0.00    +0.000 C 
ATOM     15  O   UNL     1       5.758   3.322  15.969  0.00  0.00    +0.000 OA
ATOM     16  H   UNL     1       5.882   6.142  14.483  0.00  0.00    +0.000 HD
BRANCH  13  17
ATOM     17  C   UNL     1       6.769   4.586  13.567  0.00  0.00    +0.000 C 
ATOM     18  S   UNL     1       8.082   5.380  12.910  0.00  0.00    +0.000 S 
BRANCH  17  19
ATOM     19  N   UNL     1       6.254   3.390  13.142  0.00  0.00    +0.000 N 
ATOM     20  H   UNL     1       5.814   2.841  13.883  0.00  0.00    +0.000 HD
BRANCH  19  22
ATOM     21  C   UNL     1       6.129   1.543  11.534  0.00  0.00    +0.000 C 
ATOM     22  C   UNL     1       5.839   3.021  11.787  0.00  0.00    +0.000 C 
ATOM     23  C   UNL     1       4.346   3.299  11.620  0.00  0.00    +0.000 C 
ENDBRANCH  19  22
ENDBRANCH  17  19
ENDBRANCH  13  17
ENDBRANCH   1  14
TORSDOF 5
ENDMDL
MODEL 4
REMARK VINA RESULT:      -7.0      1.261      1.892
REMARK  Name = 
REMARK  7 active torsions:
REMARK  status: ('A' for Active; 'I' for Inactive)
REMARK    1  A    between atoms: C_1  and  C_2
REMARK    2  A    between atoms: C_2  and  C_3
REMARK    3  A    between atoms: C_2  and  N_4
REMARK    4  A    between atoms: N_4  and  C_5
REMARK    5  A    between atoms: C_5  and  N_7
REMARK    6  A    between atoms: C_8  and  C_10
REMARK    7  A    between atoms: C_13  and  C_14
REMARK                            x       y       z     vdW  Elec       q    Type
REMARK                         _______ _______ _______ _____ _____    ______ ____
ROOT
ATOM      1  C   UNL     1       2.828   6.838  18.819  0.00  0.00    +0.000 A 
ATOM      2  C   UNL     1       2.217   7.030  20.057  0.00  0.00    +0.000 A 
ATOM      3  C   UNL     1       1.437   8.159  20.299  0.00  0.00    +0.000 A 
ATOM      4  C   UNL     1       1.255   9.154  19.324  0.00  0.00    +0.000 A 
ATOM      5  C   UNL     1       1.885   8.948  18.078  0.00  0.00    +0.000 A 
ATOM      6  C   UNL     1       2.658   7.799  17.819  0.00  0.00    +0.000 A 
ENDROOT
BRANCH   4   7
ATOM      7  C   UNL     1       0.407  10.335  19.626  0.00  0.00    +0.000 A 
ATOM      8  C   UNL     1       0.457  10.963  20.890  0.00  0.00    +0.000 A 
ATOM      9  C   UNL     1      -0.429  11.984  21.242  0.00  0.00    +0.000 A 
ATOM     10  C   UNL     1      -1.367  12.433  20.321  0.00  0.00    +0.000 A 
ATOM     11  C   UNL     1      -1.406  11.871  19.048  0.00  0.00    +0.000 A 
ATOM     12  C   UNL     1      -0.529  10.833  18.705  0.00  0.00    +0.000 A 
ENDBRANCH   4   7
BRANCH   1  14
ATOM     13  N   UNL     1       3.364   4.737  17.653  0.00  0.00    +0.000 N 
ATOM     14  C   UNL     1       3.659   5.618  18.681  0.00  0.00    +0.000 C 
ATOM     15  O   UNL     1       4.551   5.423  19.508  0.00  0.00    +0.000 OA
ATOM     16  H   UNL     1       2.590   4.942  17.038  0.00  0.00    +0.000 HD
BRANCH  13  17
ATOM     17  C   UNL     1       3.861   3.454  17.500  0.00  0.00    +0.000 C 
ATOM     18  S   UNL     1       2.891   2.171  17.945  0.00  0.00    +0.000 S 
BRANCH  17  19
ATOM     19  N   UNL     1       5.132   3.367  16.996  0.00  0.00    +0.000 N 
ATOM     20  H   UNL     1       5.440   2.410  16.811  0.00  0.00    +0.000 HD
BRANCH  19  22
ATOM     21  C   UNL     1       7.242   4.617  16.950  0.00  0.00    +0.000 C 
ATOM     22  C   UNL     1       5.887   4.396  16.279  0.00  0.00    +0.000 C 
ATOM     23  C   UNL     1       6.085   3.962  14.828  0.00  0.00    +0.000 C 
ENDBRANCH  19  22
ENDBRANCH  17  19
ENDBRANCH  13  17
ENDBRANCH   1  14
TORSDOF 5
ENDMDL
MODEL 5
REMARK VINA RESULT:      -7.0      2.143      2.809
REMARK  Name = 
REMARK  7 active torsions:
REMARK  status: ('A' for Active; 'I' for Inactive)
REMARK    1  A    between atoms: C_1  and  C_2
REMARK    2  A    between atoms: C_2  and  C_3
REMARK    3  A    between atoms: C_2  and  N_4
REMARK    4  A    between atoms: N_4  and  C_5
REMARK    5  A    between atoms: C_5  and  N_7
REMARK    6  A    between atoms: C_8  and  C_10
REMARK    7  A    between atoms: C_13  and  C_14
REMARK                            x       y       z     vdW  Elec       q    Type
REMARK                         _______ _______ _______ _____ _____    ______ ____
ROOT
ATOM      1  C   UNL     1       2.586   7.032  19.344  0.00  0.00    +0.000 A 
ATOM      2  C   UNL     1       2.687   7.698  18.123  0.00  0.00    +0.000 A 
ATOM      3  C   UNL     1       2.048   8.919  17.924  0.00  0.00    +0.000 A 
ATOM      4  C   UNL     1       1.263   9.515  18.925  0.00  0.00    +0.000 A 
ATOM      5  C   UNL     1       1.166   8.827  20.153  0.00  0.00    +0.000 A 
ATOM      6  C   UNL     1       1.826   7.601  20.369  0.00  0.00    +0.000 A 
ENDROOT
BRANCH   4   7
ATOM      7  C   UNL     1       0.609  10.823  18.668  0.00  0.00    +0.000 A 
ATOM      8  C   UNL     1       1.359  12.020  18.647  0.00  0.00    +0.000 A 
ATOM      9  C   UNL     1       0.747  13.272  18.547  0.00  0.00    +0.000 A 
ATOM     10  C   UNL     1      -0.634  13.359  18.426  0.00  0.00    +0.000 A 
ATOM     11  C   UNL     1      -1.396  12.194  18.389  0.00  0.00    +0.000 A 
ATOM     12  C   UNL     1      -0.781  10.942  18.510  0.00  0.00    +0.000 A 
ENDBRANCH   4   7
BRANCH   1  14
ATOM     13  N   UNL     1       4.245   5.427  18.486  0.00  0.00    +0.000 N 
ATOM     14  C   UNL     1       3.280   5.726  19.436  0.00  0.00    +0.000 C 
ATOM     15  O   UNL     1       2.944   4.948  20.331  0.00  0.00    +0.000 OA
ATOM     16  H   UNL     1       4.438   6.097  17.756  0.00  0.00    +0.000 HD
BRANCH  13  17
ATOM     17  C   UNL     1       4.828   4.191  18.265  0.00  0.00    +0.000 C 
ATOM     18  S   UNL     1       3.871   2.960  17.669  0.00  0.00    +0.000 S 
BRANCH  17  19
ATOM     19  N   UNL     1       6.159   4.100  18.574  0.00  0.00    +0.000 N 
ATOM     20  H   UNL     1       6.388   3.328  19.202  0.00  0.00    +0.000 HD
BRANCH  19  22
ATOM     21  C   UNL     1       6.976   4.596  16.315  0.00  0.00    +0.000 C 
ATOM     22  C   UNL     1       7.296   4.615  17.808  0.00  0.00    +0.000 C 
ATOM     23  C   UNL     1       7.607   6.041  18.260  0.00  0.00    +0.000 C 
ENDBRANCH  19  22
ENDBRANCH  17  19
ENDBRANCH  13  17
ENDBRANCH   1  14
TORSDOF 5
ENDMDL
MODEL 6
REMARK VINA RESULT:      -7.0      2.008      2.394
REMARK  Name = 
REMARK  7 active torsions:
REMARK  status: ('A' for Active; 'I' for Inactive)
REMARK    1  A    between atoms: C_1  and  C_2
REMARK    2  A    between atoms: C_2  and  C_3
REMARK    3  A    between atoms: C_2  and  N_4
REMARK    4  A    between atoms: N_4  and  C_5
REMARK    5  A    between atoms: C_5  and  N_7
REMARK    6  A    between atoms: C_8  and  C_10
REMARK    7  A    between atoms: C_13  and  C_14
REMARK                            x       y       z     vdW  Elec       q    Type
REMARK                         _______ _______ _______ _____ _____    ______ ____
ROOT
ATOM      1  C   UNL     1       2.566   6.995  19.118  0.00  0.00    +0.000 A 
ATOM      2  C   UNL     1       2.061   6.780  20.399  0.00  0.00    +0.000 A 
ATOM      3  C   UNL     1       1.242   7.726  21.010  0.00  0.00    +0.000 A 
ATOM      4  C   UNL     1       0.914   8.937  20.378  0.00  0.00    +0.000 A 
ATOM      5  C   UNL     1       1.437   9.143  19.084  0.00  0.00    +0.000 A 
ATOM      6  C   UNL     1       2.249   8.182  18.451  0.00  0.00    +0.000 A 
ENDROOT
BRANCH   4   7
ATOM      7  C   UNL     1       0.029   9.912  21.066  0.00  0.00    +0.000 A 
ATOM      8  C   UNL     1      -0.416  11.081  20.410  0.00  0.00    +0.000 A 
ATOM      9  C   UNL     1      -1.130  12.076  21.081  0.00  0.00    +0.000 A 
ATOM     10  C   UNL     1      -1.454  11.911  22.421  0.00  0.00    +0.000 A 
ATOM     11  C   UNL     1      -1.076  10.745  23.082  0.00  0.00    +0.000 A 
ATOM     12  C   UNL     1      -0.342   9.758  22.412  0.00  0.00    +0.000 A 
ENDBRANCH   4   7
BRANCH   1  14
ATOM     13  N   UNL     1       4.563   5.568  19.318  0.00  0.00    +0.000 N 
ATOM     14  C   UNL     1       3.451   5.936  18.576  0.00  0.00    +0.000 C 
ATOM     15  O   UNL     1       3.180   5.455  17.475  0.00  0.00    +0.000 OA
ATOM     16  H   UNL     1       4.745   6.036  20.194  0.00  0.00    +0.000 HD
BRANCH  13  17
ATOM     17  C   UNL     1       5.618   4.782  18.885  0.00  0.00    +0.000 C 
ATOM     18  S   UNL     1       7.050   5.536  18.475  0.00  0.00    +0.000 S 
BRANCH  17  19
ATOM     19  N   UNL     1       5.370   3.436  18.829  0.00  0.00    +0.000 N 
ATOM     20  H   UNL     1       6.208   2.864  18.713  0.00  0.00    +0.000 HD
BRANCH  19  22
ATOM     21  C   UNL     1       3.531   1.924  18.239  0.00  0.00    +0.000 C 
ATOM     22  C   UNL     1       4.211   2.713  19.356  0.00  0.00    +0.000 C 
ATOM     23  C   UNL     1       4.666   1.765  20.464  0.00  0.00    +0.000 C 
ENDBRANCH  19  22
ENDBRANCH  17  19
ENDBRANCH  13  17
ENDBRANCH   1  14
TORSDOF 5
ENDMDL
MODEL 7
REMARK VINA RESULT:      -7.0      1.231      1.716
REMARK  Name = 
REMARK  7 active torsions:
REMARK  status: ('A' for Active; 'I' for Inactive)
REMARK    1  A    between atoms: C_1  and  C_2
REMARK    2  A    between atoms: C_2  and  C_3
REMARK    3  A    between atoms: C_2  and  N_4
REMARK    4  A    between atoms: N_4  and  C_5
REMARK    5  A    between atoms: C_5  and  N_7
REMARK    6  A    between atoms: C_8  and  C_10
REMARK    7  A    between atoms: C_13  and  C_14
REMARK                            x       y       z     vdW  Elec       q    Type
REMARK                         _______ _______ _______ _____ _____    ______ ____
ROOT
ATOM      1  C   UNL     1       2.863   6.821  18.820  0.00  0.00    +0.000 A 
ATOM      2  C   UNL     1       2.238   6.990  20.054  0.00  0.00    +0.000 A 
ATOM      3  C   UNL     1       1.454   8.113  20.308  0.00  0.00    +0.000 A 
ATOM      4  C   UNL     1       1.281   9.125  19.349  0.00  0.00    +0.000 A 
ATOM      5  C   UNL     1       1.924   8.943  18.107  0.00  0.00    +0.000 A 
ATOM      6  C   UNL     1       2.702   7.800  17.835  0.00  0.00    +0.000 A 
ENDROOT
BRANCH   4   7
ATOM      7  C   UNL     1       0.428  10.299  19.663  0.00  0.00    +0.000 A 
ATOM      8  C   UNL     1      -0.247  11.003  18.640  0.00  0.00    +0.000 A 
ATOM      9  C   UNL     1      -0.939  12.189  18.894  0.00  0.00    +0.000 A 
ATOM     10  C   UNL     1      -1.009  12.685  20.190  0.00  0.00    +0.000 A 
ATOM     11  C   UNL     1      -0.400  11.985  21.229  0.00  0.00    +0.000 A 
ATOM     12  C   UNL     1       0.311  10.806  20.967  0.00  0.00    +0.000 A 
ENDBRANCH   4   7
BRANCH   1  14
ATOM     13  N   UNL     1       3.381   4.714  17.655  0.00  0.00    +0.000 N 
ATOM     14  C   UNL     1       3.698   5.605  18.669  0.00  0.00    +0.000 C 
ATOM     15  O   UNL     1       4.613   5.421  19.474  0.00  0.00    +0.000 OA
ATOM     16  H   UNL     1       2.590   4.910  17.060  0.00  0.00    +0.000 HD
BRANCH  13  17
ATOM     17  C   UNL     1       3.882   3.433  17.500  0.00  0.00    +0.000 C 
ATOM     18  S   UNL     1       2.928   2.147  17.971  0.00  0.00    +0.000 S 
BRANCH  17  19
ATOM     19  N   UNL     1       5.143   3.350  16.970  0.00  0.00    +0.000 N 
ATOM     20  H   UNL     1       5.444   2.396  16.763  0.00  0.00    +0.000 HD
BRANCH  19  22
ATOM     21  C   UNL     1       7.237   4.627  16.932  0.00  0.00    +0.000 C 
ATOM     22  C   UNL     1       5.888   4.389  16.256  0.00  0.00    +0.000 C 
ATOM     23  C   UNL     1       6.097   3.956  14.806  0.00  0.00    +0.000 C 
ENDBRANCH  19  22
ENDBRANCH  17  19
ENDBRANCH  13  17
ENDBRANCH   1  14
TORSDOF 5
ENDMDL
MODEL 8
REMARK VINA RESULT:      -6.9      0.967      1.157
REMARK  Name = 
REMARK  7 active torsions:
REMARK  status: ('A' for Active; 'I' for Inactive)
REMARK    1  A    between atoms: C_1  and  C_2
REMARK    2  A    between atoms: C_2  and  C_3
REMARK    3  A    between atoms: C_2  and  N_4
REMARK    4  A    between atoms: N_4  and  C_5
REMARK    5  A    between atoms: C_5  and  N_7
REMARK    6  A    between atoms: C_8  and  C_10
REMARK    7  A    between atoms: C_13  and  C_14
REMARK                            x       y       z     vdW  Elec       q    Type
REMARK                         _______ _______ _______ _____ _____    ______ ____
ROOT
ATOM      1  C   UNL     1       2.666   7.123  18.768  0.00  0.00    +0.000 A 
ATOM      2  C   UNL     1       2.271   6.809  20.067  0.00  0.00    +0.000 A 
ATOM      3  C   UNL     1       1.462   7.677  20.795  0.00  0.00    +0.000 A 
ATOM      4  C   UNL     1       1.032   8.906  20.266  0.00  0.00    +0.000 A 
ATOM      5  C   UNL     1       1.444   9.212  18.952  0.00  0.00    +0.000 A 
ATOM      6  C   UNL     1       2.246   8.330  18.202  0.00  0.00    +0.000 A 
ENDROOT
BRANCH   4   7
ATOM      7  C   UNL     1       0.162   9.794  21.077  0.00  0.00    +0.000 A 
ATOM      8  C   UNL     1      -0.281  11.037  20.574  0.00  0.00    +0.000 A 
ATOM      9  C   UNL     1      -0.982  11.948  21.369  0.00  0.00    +0.000 A 
ATOM     10  C   UNL     1      -1.294  11.621  22.682  0.00  0.00    +0.000 A 
ATOM     11  C   UNL     1      -0.919  10.381  23.191  0.00  0.00    +0.000 A 
ATOM     12  C   UNL     1      -0.198   9.478  22.397  0.00  0.00    +0.000 A 
ENDBRANCH   4   7
BRANCH   1  14
ATOM     13  N   UNL     1       3.734   4.906  18.697  0.00  0.00    +0.000 N 
ATOM     14  C   UNL     1       3.552   6.142  18.097  0.00  0.00    +0.000 C 
ATOM     15  O   UNL     1       4.116   6.481  17.056  0.00  0.00    +0.000 OA
ATOM     16  H   UNL     1       3.272   4.713  19.574  0.00  0.00    +0.000 HD
BRANCH  13  17
ATOM     17  C   UNL     1       4.685   3.958  18.358  0.00  0.00    +0.000 C 
ATOM     18  S   UNL     1       4.180   2.575  17.571  0.00  0.00    +0.000 S 
BRANCH  17  19
ATOM     19  N   UNL     1       5.973   4.256  18.720  0.00  0.00    +0.000 N 
ATOM     20  H   UNL     1       6.262   3.836  19.606  0.00  0.00    +0.000 HD
BRANCH  19  22
ATOM     21  C   UNL     1       6.701   4.454  16.387  0.00  0.00    +0.000 C 
ATOM     22  C   UNL     1       7.079   4.662  17.852  0.00  0.00    +0.000 C 
ATOM     23  C   UNL     1       7.409   6.132  18.105  0.00  0.00    +0.000 C 
ENDBRANCH  19  22
ENDBRANCH  17  19
ENDBRANCH  13  17
ENDBRANCH   1  14
TORSDOF 5
ENDMDL
MODEL 9
REMARK VINA RESULT:      -6.9      1.958      2.749
REMARK  Name = 
REMARK  7 active torsions:
REMARK  status: ('A' for Active; 'I' for Inactive)
REMARK    1  A    between atoms: C_1  and  C_2
REMARK    2  A    between atoms: C_2  and  C_3
REMARK    3  A    between atoms: C_2  and  N_4
REMARK    4  A    between atoms: N_4  and  C_5
REMARK    5  A    between atoms: C_5  and  N_7
REMARK    6  A    between atoms: C_8  and  C_10
REMARK    7  A    between atoms: C_13  and  C_14
REMARK                            x       y       z     vdW  Elec       q    Type
REMARK                         _______ _______ _______ _____ _____    ______ ____
ROOT
ATOM      1  C   UNL     1       2.509   6.976  19.130  0.00  0.00    +0.000 A 
ATOM      2  C   UNL     1       2.552   7.710  17.945  0.00  0.00    +0.000 A 
ATOM      3  C   UNL     1       1.970   8.973  17.869  0.00  0.00    +0.000 A 
ATOM      4  C   UNL     1       1.300   9.545  18.963  0.00  0.00    +0.000 A 
ATOM      5  C   UNL     1       1.260   8.789  20.153  0.00  0.00    +0.000 A 
ATOM      6  C   UNL     1       1.864   7.520  20.244  0.00  0.00    +0.000 A 
ENDROOT
BRANCH   4   7
ATOM      7  C   UNL     1       0.704  10.899  18.835  0.00  0.00    +0.000 A 
ATOM      8  C   UNL     1      -0.693  11.071  18.709  0.00  0.00    +0.000 A 
ATOM      9  C   UNL     1      -1.262  12.320  18.448  0.00  0.00    +0.000 A 
ATOM     10  C   UNL     1      -0.450  13.441  18.345  0.00  0.00    +0.000 A 
ATOM     11  C   UNL     1       0.926  13.314  18.519  0.00  0.00    +0.000 A 
ATOM     12  C   UNL     1       1.496  12.057  18.760  0.00  0.00    +0.000 A 
ENDBRANCH   4   7
BRANCH   1  14
ATOM     13  N   UNL     1       3.448   5.091  17.853  0.00  0.00    +0.000 N 
ATOM     14  C   UNL     1       3.133   5.632  19.091  0.00  0.00    +0.000 C 
ATOM     15  O   UNL     1       3.311   5.039  20.156  0.00  0.00    +0.000 OA
ATOM     16  H   UNL     1       3.234   5.618  17.019  0.00  0.00    +0.000 HD
BRANCH  13  17
ATOM     17  C   UNL     1       3.813   3.780  17.597  0.00  0.00    +0.000 C 
ATOM     18  S   UNL     1       2.641   2.597  17.706  0.00  0.00    +0.000 S 
BRANCH  17  19
ATOM     19  N   UNL     1       5.131   3.583  17.280  0.00  0.00    +0.000 N 
ATOM     20  H   UNL     1       5.426   2.606  17.324  0.00  0.00    +0.000 HD
BRANCH  19  22
ATOM     21  C   UNL     1       7.382   4.545  17.121  0.00  0.00    +0.000 C 
ATOM     22  C   UNL     1       6.000   4.444  16.476  0.00  0.00    +0.000 C 
ATOM     23  C   UNL     1       6.120   3.868  15.066  0.00  0.00    +0.000 C 
ENDBRANCH  19  22
ENDBRANCH  17  19
ENDBRANCH  13  17
ENDBRANCH   1  14
TORSDOF 5
ENDMDL
