MODEL 1
REMARK VINA RESULT:      -5.4      0.000      0.000
REMARK  Name = 
REMARK  2 active torsions:
REMARK  status: ('A' for Active; 'I' for Inactive)
REMARK    1  A    between atoms: C_1  and  S_2
REMARK    2  A    between atoms: S_2  and  C_3
REMARK                            x       y       z     vdW  Elec       q    Type
REMARK                         _______ _______ _______ _____ _____    ______ ____
ROOT
ATOM      1  C   UNL     1       4.537   3.881  18.796  0.00  0.00    +0.000 A 
ATOM      2  N   UNL     1       5.691   4.106  19.380  0.00  0.00    +0.000 NA
ATOM      3  C   UNL     1       6.296   5.209  18.803  0.00  0.00    +0.000 A 
ATOM      4  C   UNL     1       7.548   5.744  19.165  0.00  0.00    +0.000 A 
ATOM      5  C   UNL     1       8.046   6.864  18.492  0.00  0.00    +0.000 A 
ATOM      6  C   UNL     1       7.311   7.457  17.470  0.00  0.00    +0.000 A 
ATOM      7  C   UNL     1       6.064   6.946  17.094  0.00  0.00    +0.000 A 
ATOM      8  C   UNL     1       5.577   5.818  17.773  0.00  0.00    +0.000 A 
ATOM      9  S   UNL     1       4.100   4.961  17.543  0.00  0.00    +0.000 S 
ENDROOT
BRANCH   1  11
ATOM     10  C   UNL     1       2.594   2.274  17.735  0.00  0.00    +0.000 C 
ATOM     11  S   UNL     1       3.508   2.544  19.269  0.00  0.00    +0.000 S 
ENDBRANCH   1  11
TORSDOF 1
ENDMDL
MODEL 2
REMARK VINA RESULT:      -5.4      2.240      5.126
REMARK  Name = 
REMARK  2 active torsions:
REMARK  status: ('A' for Active; 'I' for Inactive)
REMARK    1  A    between atoms: C_1  and  S_2
REMARK    2  A    between atoms: S_2  and  C_3
REMARK                            x       y       z     vdW  Elec       q    Type
REMARK                         _______ _______ _______ _____ _____    ______ ____
ROOT
ATOM      1  C   UNL     1       4.780   4.328  17.583  0.00  0.00    +0.000 A 
ATOM      2  N   UNL     1       3.783   3.513  17.330  0.00  0.00    +0.000 NA
ATOM      3  C   UNL     1       2.867   3.565  18.366  0.00  0.00    +0.000 A 
ATOM      4  C   UNL     1       1.673   2.820  18.447  0.00  0.00    +0.000 A 
ATOM      5  C   UNL     1       0.836   2.967  19.558  0.00  0.00    +0.000 A 
ATOM      6  C   UNL     1       1.173   3.846  20.583  0.00  0.00    +0.000 A 
ATOM      7  C   UNL     1       2.352   4.597  20.525  0.00  0.00    +0.000 A 
ATOM      8  C   UNL     1       3.186   4.439  19.406  0.00  0.00    +0.000 A 
ATOM      9  S   UNL     1       4.686   5.206  19.048  0.00  0.00    +0.000 S 
ENDROOT
BRANCH   1  11
ATOM     10  C   UNL     1       7.497   4.638  17.660  0.00  0.00    +0.000 C 
ATOM     11  S   UNL     1       6.134   4.500  16.484  0.00  0.00    +0.000 S 
ENDBRANCH   1  11
TORSDOF 1
ENDMDL
MODEL 3
REMARK VINA RESULT:      -5.3      1.941      4.880
REMARK  Name = 
REMARK  2 active torsions:
REMARK  status: ('A' for Active; 'I' for Inactive)
REMARK    1  A    between atoms: C_1  and  S_2
REMARK    2  A    between atoms: S_2  and  C_3
REMARK                            x       y       z     vdW  Elec       q    Type
REMARK                         _______ _______ _______ _____ _____    ______ ____
ROOT
ATOM      1  C   UNL     1       5.423   4.383  18.274  0.00  0.00    +0.000 A 
ATOM      2  N   UNL     1       5.185   3.642  19.331  0.00  0.00    +0.000 NA
ATOM      3  C   UNL     1       3.819   3.499  19.500  0.00  0.00    +0.000 A 
ATOM      4  C   UNL     1       3.188   2.777  20.533  0.00  0.00    +0.000 A 
ATOM      5  C   UNL     1       1.792   2.719  20.588  0.00  0.00    +0.000 A 
ATOM      6  C   UNL     1       1.021   3.365  19.627  0.00  0.00    +0.000 A 
ATOM      7  C   UNL     1       1.623   4.086  18.590  0.00  0.00    +0.000 A 
ATOM      8  C   UNL     1       3.026   4.142  18.548  0.00  0.00    +0.000 A 
ATOM      9  S   UNL     1       4.051   4.941  17.418  0.00  0.00    +0.000 S 
ENDROOT
BRANCH   1  11
ATOM     10  C   UNL     1       7.599   5.769  19.184  0.00  0.00    +0.000 C 
ATOM     11  S   UNL     1       7.054   4.782  17.774  0.00  0.00    +0.000 S 
ENDBRANCH   1  11
TORSDOF 1
ENDMDL
MODEL 4
REMARK VINA RESULT:      -5.3      2.261      4.843
REMARK  Name = 
REMARK  2 active torsions:
REMARK  status: ('A' for Active; 'I' for Inactive)
REMARK    1  A    between atoms: C_1  and  S_2
REMARK    2  A    between atoms: S_2  and  C_3
REMARK                            x       y       z     vdW  Elec       q    Type
REMARK                         _______ _______ _______ _____ _____    ______ ____
ROOT
ATOM      1  C   UNL     1       5.404   4.265  18.209  0.00  0.00    +0.000 A 
ATOM      2  N   UNL     1       5.130   3.666  19.344  0.00  0.00    +0.000 NA
ATOM      3  C   UNL     1       3.775   3.396  19.412  0.00  0.00    +0.000 A 
ATOM      4  C   UNL     1       3.113   2.768  20.486  0.00  0.00    +0.000 A 
ATOM      5  C   UNL     1       1.732   2.561  20.426  0.00  0.00    +0.000 A 
ATOM      6  C   UNL     1       1.006   2.967  19.311  0.00  0.00    +0.000 A 
ATOM      7  C   UNL     1       1.640   3.592  18.231  0.00  0.00    +0.000 A 
ATOM      8  C   UNL     1       3.027   3.798  18.304  0.00  0.00    +0.000 A 
ATOM      9  S   UNL     1       4.080   4.533  17.158  0.00  0.00    +0.000 S 
ENDROOT
BRANCH   1  11
ATOM     10  C   UNL     1       6.979   4.614  15.999  0.00  0.00    +0.000 C 
ATOM     11  S   UNL     1       7.031   4.767  17.798  0.00  0.00    +0.000 S 
ENDBRANCH   1  11
TORSDOF 1
ENDMDL
MODEL 5
REMARK VINA RESULT:      -5.3      1.660      4.759
REMARK  Name = 
REMARK  2 active torsions:
REMARK  status: ('A' for Active; 'I' for Inactive)
REMARK    1  A    between atoms: C_1  and  S_2
REMARK    2  A    between atoms: S_2  and  C_3
REMARK                            x       y       z     vdW  Elec       q    Type
REMARK                         _______ _______ _______ _____ _____    ______ ____
ROOT
ATOM      1  C   UNL     1       5.724   5.044  18.755  0.00  0.00    +0.000 A 
ATOM      2  N   UNL     1       5.410   3.853  19.207  0.00  0.00    +0.000 NA
ATOM      3  C   UNL     1       4.080   3.588  18.934  0.00  0.00    +0.000 A 
ATOM      4  C   UNL     1       3.388   2.409  19.278  0.00  0.00    +0.000 A 
ATOM      5  C   UNL     1       2.037   2.274  18.945  0.00  0.00    +0.000 A 
ATOM      6  C   UNL     1       1.371   3.294  18.272  0.00  0.00    +0.000 A 
ATOM      7  C   UNL     1       2.037   4.473  17.918  0.00  0.00    +0.000 A 
ATOM      8  C   UNL     1       3.392   4.600  18.262  0.00  0.00    +0.000 A 
ATOM      9  S   UNL     1       4.471   5.911  17.975  0.00  0.00    +0.000 S 
ENDROOT
BRANCH   1  11
ATOM     10  C   UNL     1       7.370   6.881  17.570  0.00  0.00    +0.000 C 
ATOM     11  S   UNL     1       7.333   5.711  18.945  0.00  0.00    +0.000 S 
ENDBRANCH   1  11
TORSDOF 1
ENDMDL
MODEL 6
REMARK VINA RESULT:      -5.3      2.178      5.014
REMARK  Name = 
REMARK  2 active torsions:
REMARK  status: ('A' for Active; 'I' for Inactive)
REMARK    1  A    between atoms: C_1  and  S_2
REMARK    2  A    between atoms: S_2  and  C_3
REMARK                            x       y       z     vdW  Elec       q    Type
REMARK                         _______ _______ _______ _____ _____    ______ ____
ROOT
ATOM      1  C   UNL     1       4.935   5.090  18.439  0.00  0.00    +0.000 A 
ATOM      2  N   UNL     1       4.266   5.360  19.535  0.00  0.00    +0.000 NA
ATOM      3  C   UNL     1       3.120   4.587  19.583  0.00  0.00    +0.000 A 
ATOM      4  C   UNL     1       2.153   4.609  20.608  0.00  0.00    +0.000 A 
ATOM      5  C   UNL     1       1.034   3.775  20.527  0.00  0.00    +0.000 A 
ATOM      6  C   UNL     1       0.870   2.918  19.443  0.00  0.00    +0.000 A 
ATOM      7  C   UNL     1       1.817   2.876  18.413  0.00  0.00    +0.000 A 
ATOM      8  C   UNL     1       2.934   3.722  18.503  0.00  0.00    +0.000 A 
ATOM      9  S   UNL     1       4.253   3.904  17.410  0.00  0.00    +0.000 S 
ENDROOT
BRANCH   1  11
ATOM     10  C   UNL     1       7.343   4.559  17.254  0.00  0.00    +0.000 C 
ATOM     11  S   UNL     1       6.436   5.904  18.047  0.00  0.00    +0.000 S 
ENDBRANCH   1  11
TORSDOF 1
ENDMDL
MODEL 7
REMARK VINA RESULT:      -5.1      1.396      2.045
REMARK  Name = 
REMARK  2 active torsions:
REMARK  status: ('A' for Active; 'I' for Inactive)
REMARK    1  A    between atoms: C_1  and  S_2
REMARK    2  A    between atoms: S_2  and  C_3
REMARK                            x       y       z     vdW  Elec       q    Type
REMARK                         _______ _______ _______ _____ _____    ______ ____
ROOT
ATOM      1  C   UNL     1       3.642   4.741  18.046  0.00  0.00    +0.000 A 
ATOM      2  N   UNL     1       4.108   5.680  17.257  0.00  0.00    +0.000 NA
ATOM      3  C   UNL     1       5.386   6.029  17.655  0.00  0.00    +0.000 A 
ATOM      4  C   UNL     1       6.199   7.009  17.048  0.00  0.00    +0.000 A 
ATOM      5  C   UNL     1       7.475   7.266  17.558  0.00  0.00    +0.000 A 
ATOM      6  C   UNL     1       7.951   6.558  18.658  0.00  0.00    +0.000 A 
ATOM      7  C   UNL     1       7.164   5.580  19.276  0.00  0.00    +0.000 A 
ATOM      8  C   UNL     1       5.882   5.334  18.759  0.00  0.00    +0.000 A 
ATOM      9  S   UNL     1       4.689   4.213  19.293  0.00  0.00    +0.000 S 
ENDROOT
BRANCH   1  11
ATOM     10  C   UNL     1       2.429   2.318  17.671  0.00  0.00    +0.000 C 
ATOM     11  S   UNL     1       2.036   4.072  17.839  0.00  0.00    +0.000 S 
ENDBRANCH   1  11
TORSDOF 1
ENDMDL
MODEL 8
REMARK VINA RESULT:      -5.1      2.596      4.906
REMARK  Name = 
REMARK  2 active torsions:
REMARK  status: ('A' for Active; 'I' for Inactive)
REMARK    1  A    between atoms: C_1  and  S_2
REMARK    2  A    between atoms: S_2  and  C_3
REMARK                            x       y       z     vdW  Elec       q    Type
REMARK                         _______ _______ _______ _____ _____    ______ ____
ROOT
ATOM      1  C   UNL     1       5.161   4.465  17.655  0.00  0.00    +0.000 A 
ATOM      2  N   UNL     1       4.094   3.839  17.219  0.00  0.00    +0.000 NA
ATOM      3  C   UNL     1       3.117   3.847  18.199  0.00  0.00    +0.000 A 
ATOM      4  C   UNL     1       1.839   3.262  18.093  0.00  0.00    +0.000 A 
ATOM      5  C   UNL     1       0.947   3.341  19.167  0.00  0.00    +0.000 A 
ATOM      6  C   UNL     1       1.312   3.996  20.340  0.00  0.00    +0.000 A 
ATOM      7  C   UNL     1       2.574   4.585  20.469  0.00  0.00    +0.000 A 
ATOM      8  C   UNL     1       3.463   4.496  19.385  0.00  0.00    +0.000 A 
ATOM      9  S   UNL     1       5.067   5.106  19.239  0.00  0.00    +0.000 S 
ENDROOT
BRANCH   1  11
ATOM     10  C   UNL     1       6.030   3.899  15.124  0.00  0.00    +0.000 C 
ATOM     11  S   UNL     1       6.603   4.629  16.673  0.00  0.00    +0.000 S 
ENDBRANCH   1  11
TORSDOF 1
ENDMDL
MODEL 9
REMARK VINA RESULT:      -5.1      2.610      3.148
REMARK  Name = 
REMARK  2 active torsions:
REMARK  status: ('A' for Active; 'I' for Inactive)
REMARK    1  A    between atoms: C_1  and  S_2
REMARK    2  A    between atoms: S_2  and  C_3
REMARK                            x       y       z     vdW  Elec       q    Type
REMARK                         _______ _______ _______ _____ _____    ______ ____
ROOT
ATOM      1  C   UNL     1       2.274   3.909  18.951  0.00  0.00    +0.000 A 
ATOM      2  N   UNL     1       2.569   5.181  18.821  0.00  0.00    +0.000 NA
ATOM      3  C   UNL     1       3.515   5.339  17.824  0.00  0.00    +0.000 A 
ATOM      4  C   UNL     1       4.079   6.562  17.409  0.00  0.00    +0.000 A 
ATOM      5  C   UNL     1       5.033   6.577  16.387  0.00  0.00    +0.000 A 
ATOM      6  C   UNL     1       5.428   5.392  15.774  0.00  0.00    +0.000 A 
ATOM      7  C   UNL     1       4.882   4.165  16.166  0.00  0.00    +0.000 A 
ATOM      8  C   UNL     1       3.928   4.162  17.196  0.00  0.00    +0.000 A 
ATOM      9  S   UNL     1       3.087   2.833  17.898  0.00  0.00    +0.000 S 
ENDROOT
BRANCH   1  11
ATOM     10  C   UNL     1       2.209   3.050  21.548  0.00  0.00    +0.000 C 
ATOM     11  S   UNL     1       1.117   3.345  20.140  0.00  0.00    +0.000 S 
ENDBRANCH   1  11
TORSDOF 1
ENDMDL
