MODEL 1
REMARK VINA RESULT:      -6.3      0.000      0.000
REMARK  Name = 
REMARK  6 active torsions:
REMARK  status: ('A' for Active; 'I' for Inactive)
REMARK    1  A    between atoms: C_5  and  C_6
REMARK    2  A    between atoms: C_6  and  O_7
REMARK    3  A    between atoms: O_7  and  C_8
REMARK    4  A    between atoms: C_8  and  C_9
REMARK    5  A    between atoms: C_9  and  C_10
REMARK    6  A    between atoms: C_10  and  C_11
REMARK                            x       y       z     vdW  Elec       q    Type
REMARK                         _______ _______ _______ _____ _____    ______ ____
ROOT
ATOM      1  O   UNL     1       2.919   5.754  20.028  0.00  0.00    +0.000 OA
ENDROOT
BRANCH   1   2
ATOM      2  C   UNL     1       2.612   6.386  18.788  0.00  0.00    +0.000 C 
BRANCH   2   7
ATOM      3 BR   UNL     1       6.717   4.735  14.437  0.00  0.00    +0.000 Br
ATOM      4  C   UNL     1       5.463   5.249  15.755  0.00  0.00    +0.000 A 
ATOM      5  C   UNL     1       4.627   4.291  16.325  0.00  0.00    +0.000 A 
ATOM      6  C   UNL     1       3.709   4.666  17.307  0.00  0.00    +0.000 A 
ATOM      7  C   UNL     1       3.626   6.000  17.737  0.00  0.00    +0.000 A 
ATOM      8  C   UNL     1       4.459   6.956  17.134  0.00  0.00    +0.000 A 
ATOM      9  C   UNL     1       5.380   6.581  16.151  0.00  0.00    +0.000 A 
ENDBRANCH   2   7
ENDBRANCH   1   2
BRANCH   1  10
ATOM     10  C   UNL     1       1.757   5.546  20.827  0.00  0.00    +0.000 C 
BRANCH  10  11
ATOM     11  C   UNL     1       1.063   4.290  20.319  0.00  0.00    +0.000 C 
BRANCH  11  12
ATOM     12  C   UNL     1       1.636   3.029  20.957  0.00  0.00    +0.000 C 
BRANCH  12  13
ATOM     13  C   UNL     1       2.707   2.421  20.122  0.00  0.00    +0.000 A 
ATOM     14  C   UNL     1       4.066   2.376  20.345  0.00  0.00    +0.000 A 
ATOM     15  N   UNL     1       4.585   1.695  19.278  0.00  0.00    +0.000 N 
ATOM     16  C   UNL     1       3.544   1.360  18.461  0.00  0.00    +0.000 A 
ATOM     17  N   UNL     1       2.399   1.786  18.941  0.00  0.00    +0.000 NA
ATOM     18  H   UNL     1       5.558   1.474  19.119  0.00  0.00    +0.000 HD
ENDBRANCH  12  13
ENDBRANCH  11  12
ENDBRANCH  10  11
ENDBRANCH   1  10
TORSDOF 6
ENDMDL
MODEL 2
REMARK VINA RESULT:      -5.9      1.163      1.317
REMARK  Name = 
REMARK  6 active torsions:
REMARK  status: ('A' for Active; 'I' for Inactive)
REMARK    1  A    between atoms: C_5  and  C_6
REMARK    2  A    between atoms: C_6  and  O_7
REMARK    3  A    between atoms: O_7  and  C_8
REMARK    4  A    between atoms: C_8  and  C_9
REMARK    5  A    between atoms: C_9  and  C_10
REMARK    6  A    between atoms: C_10  and  C_11
REMARK                            x       y       z     vdW  Elec       q    Type
REMARK                         _______ _______ _______ _____ _____    ______ ____
ROOT
ATOM      1  O   UNL     1       2.621   6.344  19.419  0.00  0.00    +0.000 OA
ENDROOT
BRANCH   1   2
ATOM      2  C   UNL     1       3.894   5.734  19.616  0.00  0.00    +0.000 C 
BRANCH   2   7
ATOM      3 BR   UNL     1       6.715   4.755  14.178  0.00  0.00    +0.000 Br
ATOM      4  C   UNL     1       5.844   5.057  15.828  0.00  0.00    +0.000 A 
ATOM      5  C   UNL     1       5.956   4.118  16.851  0.00  0.00    +0.000 A 
ATOM      6  C   UNL     1       5.324   4.346  18.074  0.00  0.00    +0.000 A 
ATOM      7  C   UNL     1       4.584   5.519  18.290  0.00  0.00    +0.000 A 
ATOM      8  C   UNL     1       4.463   6.442  17.240  0.00  0.00    +0.000 A 
ATOM      9  C   UNL     1       5.096   6.216  16.015  0.00  0.00    +0.000 A 
ENDBRANCH   2   7
ENDBRANCH   1   2
BRANCH   1  10
ATOM     10  C   UNL     1       1.768   6.186  20.550  0.00  0.00    +0.000 C 
BRANCH  10  11
ATOM     11  C   UNL     1       1.882   4.742  21.020  0.00  0.00    +0.000 C 
BRANCH  11  12
ATOM     12  C   UNL     1       0.983   3.812  20.212  0.00  0.00    +0.000 C 
BRANCH  12  13
ATOM     13  C   UNL     1       1.761   2.982  19.254  0.00  0.00    +0.000 A 
ATOM     14  C   UNL     1       2.687   1.994  19.509  0.00  0.00    +0.000 A 
ATOM     15  N   UNL     1       3.090   1.549  18.280  0.00  0.00    +0.000 N 
ATOM     16  C   UNL     1       2.410   2.270  17.341  0.00  0.00    +0.000 A 
ATOM     17  N   UNL     1       1.604   3.144  17.896  0.00  0.00    +0.000 NA
ATOM     18  H   UNL     1       3.764   0.820  18.094  0.00  0.00    +0.000 HD
ENDBRANCH  12  13
ENDBRANCH  11  12
ENDBRANCH  10  11
ENDBRANCH   1  10
TORSDOF 6
ENDMDL
MODEL 3
REMARK VINA RESULT:      -5.9      3.286      4.678
REMARK  Name = 
REMARK  6 active torsions:
REMARK  status: ('A' for Active; 'I' for Inactive)
REMARK    1  A    between atoms: C_5  and  C_6
REMARK    2  A    between atoms: C_6  and  O_7
REMARK    3  A    between atoms: O_7  and  C_8
REMARK    4  A    between atoms: C_8  and  C_9
REMARK    5  A    between atoms: C_9  and  C_10
REMARK    6  A    between atoms: C_10  and  C_11
REMARK                            x       y       z     vdW  Elec       q    Type
REMARK                         _______ _______ _______ _____ _____    ______ ____
ROOT
ATOM      1  O   UNL     1       3.818   5.861  18.001  0.00  0.00    +0.000 OA
ENDROOT
BRANCH   1   2
ATOM      2  C   UNL     1       3.189   6.112  19.255  0.00  0.00    +0.000 C 
BRANCH   2   7
ATOM      3 BR   UNL     1      -0.174  11.322  19.057  0.00  0.00    +0.000 Br
ATOM      4  C   UNL     1       0.860   9.741  19.111  0.00  0.00    +0.000 A 
ATOM      5  C   UNL     1       0.972   9.028  20.302  0.00  0.00    +0.000 A 
ATOM      6  C   UNL     1       1.725   7.853  20.340  0.00  0.00    +0.000 A 
ATOM      7  C   UNL     1       2.364   7.375  19.185  0.00  0.00    +0.000 A 
ATOM      8  C   UNL     1       2.259   8.120  18.000  0.00  0.00    +0.000 A 
ATOM      9  C   UNL     1       1.505   9.295  17.960  0.00  0.00    +0.000 A 
ENDBRANCH   2   7
ENDBRANCH   1   2
BRANCH   1  10
ATOM     10  C   UNL     1       4.340   4.537  17.918  0.00  0.00    +0.000 C 
BRANCH  10  11
ATOM     11  C   UNL     1       3.255   3.647  17.326  0.00  0.00    +0.000 C 
BRANCH  11  12
ATOM     12  C   UNL     1       3.066   2.370  18.138  0.00  0.00    +0.000 C 
BRANCH  12  13
ATOM     13  C   UNL     1       2.295   2.614  19.386  0.00  0.00    +0.000 A 
ATOM     14  C   UNL     1       0.958   2.909  19.541  0.00  0.00    +0.000 A 
ATOM     15  N   UNL     1       0.767   3.026  20.890  0.00  0.00    +0.000 N 
ATOM     16  C   UNL     1       1.971   2.805  21.495  0.00  0.00    +0.000 A 
ATOM     17  N   UNL     1       2.913   2.557  20.615  0.00  0.00    +0.000 NA
ATOM     18  H   UNL     1      -0.102   3.234  21.361  0.00  0.00    +0.000 HD
ENDBRANCH  12  13
ENDBRANCH  11  12
ENDBRANCH  10  11
ENDBRANCH   1  10
TORSDOF 6
ENDMDL
MODEL 4
REMARK VINA RESULT:      -5.8      3.416      5.430
REMARK  Name = 
REMARK  6 active torsions:
REMARK  status: ('A' for Active; 'I' for Inactive)
REMARK    1  A    between atoms: C_5  and  C_6
REMARK    2  A    between atoms: C_6  and  O_7
REMARK    3  A    between atoms: O_7  and  C_8
REMARK    4  A    between atoms: C_8  and  C_9
REMARK    5  A    between atoms: C_9  and  C_10
REMARK    6  A    between atoms: C_10  and  C_11
REMARK                            x       y       z     vdW  Elec       q    Type
REMARK                         _______ _______ _______ _____ _____    ______ ____
ROOT
ATOM      1  O   UNL     1       5.091   7.318  17.802  0.00  0.00    +0.000 OA
ENDROOT
BRANCH   1   2
ATOM      2  C   UNL     1       4.004   6.598  17.226  0.00  0.00    +0.000 C 
BRANCH   2   7
ATOM      3 BR   UNL     1       1.485   2.795  21.433  0.00  0.00    +0.000 Br
ATOM      4  C   UNL     1       2.259   3.961  20.162  0.00  0.00    +0.000 A 
ATOM      5  C   UNL     1       2.850   3.438  19.014  0.00  0.00    +0.000 A 
ATOM      6  C   UNL     1       3.410   4.298  18.068  0.00  0.00    +0.000 A 
ATOM      7  C   UNL     1       3.375   5.688  18.255  0.00  0.00    +0.000 A 
ATOM      8  C   UNL     1       2.796   6.196  19.429  0.00  0.00    +0.000 A 
ATOM      9  C   UNL     1       2.234   5.336  20.376  0.00  0.00    +0.000 A 
ENDBRANCH   2   7
ENDBRANCH   1   2
BRANCH   1  10
ATOM     10  C   UNL     1       6.352   6.874  17.307  0.00  0.00    +0.000 C 
BRANCH  10  11
ATOM     11  C   UNL     1       6.850   5.769  18.228  0.00  0.00    +0.000 C 
BRANCH  11  12
ATOM     12  C   UNL     1       7.573   4.670  17.456  0.00  0.00    +0.000 C 
BRANCH  12  13
ATOM     13  C   UNL     1       7.040   4.519  16.075  0.00  0.00    +0.000 A 
ATOM     14  C   UNL     1       5.951   3.799  15.636  0.00  0.00    +0.000 A 
ATOM     15  N   UNL     1       5.901   4.008  14.285  0.00  0.00    +0.000 N 
ATOM     16  C   UNL     1       6.941   4.829  13.959  0.00  0.00    +0.000 A 
ATOM     17  N   UNL     1       7.649   5.152  15.016  0.00  0.00    +0.000 NA
ATOM     18  H   UNL     1       5.220   3.630  13.641  0.00  0.00    +0.000 HD
ENDBRANCH  12  13
ENDBRANCH  11  12
ENDBRANCH  10  11
ENDBRANCH   1  10
TORSDOF 6
ENDMDL
MODEL 5
REMARK VINA RESULT:      -5.8      4.113      5.891
REMARK  Name = 
REMARK  6 active torsions:
REMARK  status: ('A' for Active; 'I' for Inactive)
REMARK    1  A    between atoms: C_5  and  C_6
REMARK    2  A    between atoms: C_6  and  O_7
REMARK    3  A    between atoms: O_7  and  C_8
REMARK    4  A    between atoms: C_8  and  C_9
REMARK    5  A    between atoms: C_9  and  C_10
REMARK    6  A    between atoms: C_10  and  C_11
REMARK                            x       y       z     vdW  Elec       q    Type
REMARK                         _______ _______ _______ _____ _____    ______ ____
ROOT
ATOM      1  O   UNL     1       4.072   5.377  19.019  0.00  0.00    +0.000 OA
ENDROOT
BRANCH   1   2
ATOM      2  C   UNL     1       3.429   6.132  17.995  0.00  0.00    +0.000 C 
BRANCH   2   7
ATOM      3 BR   UNL     1       0.055  10.752  20.399  0.00  0.00    +0.000 Br
ATOM      4  C   UNL     1       1.074   9.335  19.672  0.00  0.00    +0.000 A 
ATOM      5  C   UNL     1       1.488   9.392  18.344  0.00  0.00    +0.000 A 
ATOM      6  C   UNL     1       2.252   8.353  17.809  0.00  0.00    +0.000 A 
ATOM      7  C   UNL     1       2.618   7.253  18.601  0.00  0.00    +0.000 A 
ATOM      8  C   UNL     1       2.171   7.202  19.931  0.00  0.00    +0.000 A 
ATOM      9  C   UNL     1       1.408   8.242  20.468  0.00  0.00    +0.000 A 
ENDBRANCH   2   7
ENDBRANCH   1   2
BRANCH   1  10
ATOM     10  C   UNL     1       5.492   5.436  18.917  0.00  0.00    +0.000 C 
BRANCH  10  11
ATOM     11  C   UNL     1       5.837   6.265  17.688  0.00  0.00    +0.000 C 
BRANCH  11  12
ATOM     12  C   UNL     1       7.135   5.800  17.037  0.00  0.00    +0.000 C 
BRANCH  12  13
ATOM     13  C   UNL     1       6.885   5.016  15.797  0.00  0.00    +0.000 A 
ATOM     14  C   UNL     1       6.138   3.870  15.627  0.00  0.00    +0.000 A 
ATOM     15  N   UNL     1       6.231   3.572  14.296  0.00  0.00    +0.000 N 
ATOM     16  C   UNL     1       7.017   4.527  13.717  0.00  0.00    +0.000 A 
ATOM     17  N   UNL     1       7.429   5.409  14.596  0.00  0.00    +0.000 NA
ATOM     18  H   UNL     1       5.798   2.793  13.820  0.00  0.00    +0.000 HD
ENDBRANCH  12  13
ENDBRANCH  11  12
ENDBRANCH  10  11
ENDBRANCH   1  10
TORSDOF 6
ENDMDL
MODEL 6
REMARK VINA RESULT:      -5.8      1.191      1.957
REMARK  Name = 
REMARK  6 active torsions:
REMARK  status: ('A' for Active; 'I' for Inactive)
REMARK    1  A    between atoms: C_5  and  C_6
REMARK    2  A    between atoms: C_6  and  O_7
REMARK    3  A    between atoms: O_7  and  C_8
REMARK    4  A    between atoms: C_8  and  C_9
REMARK    5  A    between atoms: C_9  and  C_10
REMARK    6  A    between atoms: C_10  and  C_11
REMARK                            x       y       z     vdW  Elec       q    Type
REMARK                         _______ _______ _______ _____ _____    ______ ____
ROOT
ATOM      1  O   UNL     1       3.050   6.860  18.934  0.00  0.00    +0.000 OA
ENDROOT
BRANCH   1   2
ATOM      2  C   UNL     1       4.103   5.913  19.094  0.00  0.00    +0.000 C 
BRANCH   2   7
ATOM      3 BR   UNL     1       6.215   4.111  13.545  0.00  0.00    +0.000 Br
ATOM      4  C   UNL     1       5.581   4.652  15.241  0.00  0.00    +0.000 A 
ATOM      5  C   UNL     1       5.300   5.995  15.478  0.00  0.00    +0.000 A 
ATOM      6  C   UNL     1       4.820   6.395  16.727  0.00  0.00    +0.000 A 
ATOM      7  C   UNL     1       4.605   5.454  17.745  0.00  0.00    +0.000 A 
ATOM      8  C   UNL     1       4.917   4.108  17.496  0.00  0.00    +0.000 A 
ATOM      9  C   UNL     1       5.396   3.706  16.247  0.00  0.00    +0.000 A 
ENDBRANCH   2   7
ENDBRANCH   1   2
BRANCH   1  10
ATOM     10  C   UNL     1       1.977   6.629  19.844  0.00  0.00    +0.000 C 
BRANCH  10  11
ATOM     11  C   UNL     1       2.322   5.394  20.666  0.00  0.00    +0.000 C 
BRANCH  11  12
ATOM     12  C   UNL     1       1.261   4.308  20.528  0.00  0.00    +0.000 C 
BRANCH  12  13
ATOM     13  C   UNL     1       1.721   3.189  19.662  0.00  0.00    +0.000 A 
ATOM     14  C   UNL     1       1.130   2.661  18.534  0.00  0.00    +0.000 A 
ATOM     15  N   UNL     1       1.967   1.662  18.122  0.00  0.00    +0.000 N 
ATOM     16  C   UNL     1       3.014   1.617  18.997  0.00  0.00    +0.000 A 
ATOM     17  N   UNL     1       2.893   2.523  19.938  0.00  0.00    +0.000 NA
ATOM     18  H   UNL     1       1.842   1.064  17.317  0.00  0.00    +0.000 HD
ENDBRANCH  12  13
ENDBRANCH  11  12
ENDBRANCH  10  11
ENDBRANCH   1  10
TORSDOF 6
ENDMDL
MODEL 7
REMARK VINA RESULT:      -5.8      3.221      4.646
REMARK  Name = 
REMARK  6 active torsions:
REMARK  status: ('A' for Active; 'I' for Inactive)
REMARK    1  A    between atoms: C_5  and  C_6
REMARK    2  A    between atoms: C_6  and  O_7
REMARK    3  A    between atoms: O_7  and  C_8
REMARK    4  A    between atoms: C_8  and  C_9
REMARK    5  A    between atoms: C_9  and  C_10
REMARK    6  A    between atoms: C_10  and  C_11
REMARK                            x       y       z     vdW  Elec       q    Type
REMARK                         _______ _______ _______ _____ _____    ______ ____
ROOT
ATOM      1  O   UNL     1       5.051   6.052  18.084  0.00  0.00    +0.000 OA
ENDROOT
BRANCH   1   2
ATOM      2  C   UNL     1       3.800   6.276  17.440  0.00  0.00    +0.000 C 
BRANCH   2   7
ATOM      3 BR   UNL     1       0.158   9.967  20.848  0.00  0.00    +0.000 Br
ATOM      4  C   UNL     1       1.260   8.832  19.813  0.00  0.00    +0.000 A 
ATOM      5  C   UNL     1       1.652   9.226  18.536  0.00  0.00    +0.000 A 
ATOM      6  C   UNL     1       2.476   8.394  17.775  0.00  0.00    +0.000 A 
ATOM      7  C   UNL     1       2.924   7.167  18.289  0.00  0.00    +0.000 A 
ATOM      8  C   UNL     1       2.499   6.776  19.569  0.00  0.00    +0.000 A 
ATOM      9  C   UNL     1       1.676   7.608  20.332  0.00  0.00    +0.000 A 
ENDBRANCH   2   7
ENDBRANCH   1   2
BRANCH   1  10
ATOM     10  C   UNL     1       5.482   4.698  17.966  0.00  0.00    +0.000 C 
BRANCH  10  11
ATOM     11  C   UNL     1       4.918   3.926  19.150  0.00  0.00    +0.000 C 
BRANCH  11  12
ATOM     12  C   UNL     1       3.813   2.965  18.726  0.00  0.00    +0.000 C 
BRANCH  12  13
ATOM     13  C   UNL     1       2.649   3.013  19.652  0.00  0.00    +0.000 A 
ATOM     14  C   UNL     1       1.312   3.182  19.363  0.00  0.00    +0.000 A 
ATOM     15  N   UNL     1       0.674   3.139  20.571  0.00  0.00    +0.000 N 
ATOM     16  C   UNL     1       1.625   2.951  21.532  0.00  0.00    +0.000 A 
ATOM     17  N   UNL     1       2.827   2.874  21.009  0.00  0.00    +0.000 NA
ATOM     18  H   UNL     1      -0.320   3.225  20.732  0.00  0.00    +0.000 HD
ENDBRANCH  12  13
ENDBRANCH  11  12
ENDBRANCH  10  11
ENDBRANCH   1  10
TORSDOF 6
ENDMDL
MODEL 8
REMARK VINA RESULT:      -5.7      2.987      4.128
REMARK  Name = 
REMARK  6 active torsions:
REMARK  status: ('A' for Active; 'I' for Inactive)
REMARK    1  A    between atoms: C_5  and  C_6
REMARK    2  A    between atoms: C_6  and  O_7
REMARK    3  A    between atoms: O_7  and  C_8
REMARK    4  A    between atoms: C_8  and  C_9
REMARK    5  A    between atoms: C_9  and  C_10
REMARK    6  A    between atoms: C_10  and  C_11
REMARK                            x       y       z     vdW  Elec       q    Type
REMARK                         _______ _______ _______ _____ _____    ______ ____
ROOT
ATOM      1  O   UNL     1       1.990   4.747  21.208  0.00  0.00    +0.000 OA
ENDROOT
BRANCH   1   2
ATOM      2  C   UNL     1       2.853   5.367  20.257  0.00  0.00    +0.000 C 
BRANCH   2   7
ATOM      3 BR   UNL     1       0.637  10.953  18.712  0.00  0.00    +0.000 Br
ATOM      4  C   UNL     1       1.324   9.255  19.177  0.00  0.00    +0.000 A 
ATOM      5  C   UNL     1       1.103   8.745  20.455  0.00  0.00    +0.000 A 
ATOM      6  C   UNL     1       1.599   7.486  20.796  0.00  0.00    +0.000 A 
ATOM      7  C   UNL     1       2.310   6.719  19.859  0.00  0.00    +0.000 A 
ATOM      8  C   UNL     1       2.543   7.259  18.584  0.00  0.00    +0.000 A 
ATOM      9  C   UNL     1       2.047   8.519  18.241  0.00  0.00    +0.000 A 
ENDBRANCH   2   7
ENDBRANCH   1   2
BRANCH   1  10
ATOM     10  C   UNL     1       1.742   3.379  20.895  0.00  0.00    +0.000 C 
BRANCH  10  11
ATOM     11  C   UNL     1       0.648   3.335  19.837  0.00  0.00    +0.000 C 
BRANCH  11  12
ATOM     12  C   UNL     1       0.983   2.356  18.716  0.00  0.00    +0.000 C 
BRANCH  12  13
ATOM     13  C   UNL     1       2.329   2.614  18.137  0.00  0.00    +0.000 A 
ATOM     14  C   UNL     1       3.486   1.875  18.259  0.00  0.00    +0.000 A 
ATOM     15  N   UNL     1       4.423   2.548  17.525  0.00  0.00    +0.000 N 
ATOM     16  C   UNL     1       3.816   3.650  16.996  0.00  0.00    +0.000 A 
ATOM     17  N   UNL     1       2.554   3.720  17.349  0.00  0.00    +0.000 NA
ATOM     18  H   UNL     1       5.389   2.283  17.391  0.00  0.00    +0.000 HD
ENDBRANCH  12  13
ENDBRANCH  11  12
ENDBRANCH  10  11
ENDBRANCH   1  10
TORSDOF 6
ENDMDL
MODEL 9
REMARK VINA RESULT:      -5.7      3.783      5.721
REMARK  Name = 
REMARK  6 active torsions:
REMARK  status: ('A' for Active; 'I' for Inactive)
REMARK    1  A    between atoms: C_5  and  C_6
REMARK    2  A    between atoms: C_6  and  O_7
REMARK    3  A    between atoms: O_7  and  C_8
REMARK    4  A    between atoms: C_8  and  C_9
REMARK    5  A    between atoms: C_9  and  C_10
REMARK    6  A    between atoms: C_10  and  C_11
REMARK                            x       y       z     vdW  Elec       q    Type
REMARK                         _______ _______ _______ _____ _____    ______ ____
ROOT
ATOM      1  O   UNL     1       3.108   4.979  17.846  0.00  0.00    +0.000 OA
ENDROOT
BRANCH   1   2
ATOM      2  C   UNL     1       3.610   6.304  17.691  0.00  0.00    +0.000 C 
BRANCH   2   7
ATOM      3 BR   UNL     1       0.005  10.351  20.712  0.00  0.00    +0.000 Br
ATOM      4  C   UNL     1       1.096   9.108  19.797  0.00  0.00    +0.000 A 
ATOM      5  C   UNL     1       1.440   9.338  18.467  0.00  0.00    +0.000 A 
ATOM      6  C   UNL     1       2.256   8.427  17.793  0.00  0.00    +0.000 A 
ATOM      7  C   UNL     1       2.744   7.285  18.446  0.00  0.00    +0.000 A 
ATOM      8  C   UNL     1       2.367   7.057  19.779  0.00  0.00    +0.000 A 
ATOM      9  C   UNL     1       1.552   7.969  20.455  0.00  0.00    +0.000 A 
ENDBRANCH   2   7
ENDBRANCH   1   2
BRANCH   1  10
ATOM     10  C   UNL     1       4.057   3.995  17.441  0.00  0.00    +0.000 C 
BRANCH  10  11
ATOM     11  C   UNL     1       4.858   4.571  16.281  0.00  0.00    +0.000 C 
BRANCH  11  12
ATOM     12  C   UNL     1       6.346   4.270  16.415  0.00  0.00    +0.000 C 
BRANCH  12  13
ATOM     13  C   UNL     1       7.011   5.178  17.389  0.00  0.00    +0.000 A 
ATOM     14  C   UNL     1       7.344   6.509  17.252  0.00  0.00    +0.000 A 
ATOM     15  N   UNL     1       7.922   6.860  18.440  0.00  0.00    +0.000 N 
ATOM     16  C   UNL     1       7.922   5.754  19.239  0.00  0.00    +0.000 A 
ATOM     17  N   UNL     1       7.382   4.722  18.633  0.00  0.00    +0.000 NA
ATOM     18  H   UNL     1       8.282   7.771  18.690  0.00  0.00    +0.000 HD
ENDBRANCH  12  13
ENDBRANCH  11  12
ENDBRANCH  10  11
ENDBRANCH   1  10
TORSDOF 6
ENDMDL
