MODEL 1
REMARK VINA RESULT:      -7.5      0.000      0.000
REMARK  Name = 
REMARK  7 active torsions:
REMARK  status: ('A' for Active; 'I' for Inactive)
REMARK    1  A    between atoms: C_1  and  C_2
REMARK    2  A    between atoms: C_2  and  C_3
REMARK    3  A    between atoms: C_3  and  C_4
REMARK    4  A    between atoms: C_4  and  C_5
REMARK    5  A    between atoms: C_5  and  N_6
REMARK    6  A    between atoms: C_10  and  C_11
REMARK    7  A    between atoms: C_15  and  O_16
REMARK                            x       y       z     vdW  Elec       q    Type
REMARK                         _______ _______ _______ _____ _____    ______ ____
ROOT
ATOM      1  N   UNL     1       5.721   4.638  16.244  0.00  0.00    +0.000 NA
ATOM      2  C   UNL     1       5.374   5.989  15.740  0.00  0.00    +0.000 C 
ATOM      3  C   UNL     1       5.000   6.917  16.899  0.00  0.00    +0.000 C 
ATOM      4  C   UNL     1       3.800   6.349  17.649  0.00  0.00    +0.000 C 
ATOM      5  C   UNL     1       4.129   4.932  18.147  0.00  0.00    +0.000 C 
ATOM      6  C   UNL     1       4.565   4.045  16.961  0.00  0.00    +0.000 C 
ENDROOT
BRANCH   5   7
ATOM      7  C   UNL     1       2.937   4.327  18.869  0.00  0.00    +0.000 A 
ATOM      8  C   UNL     1       2.598   4.764  20.162  0.00  0.00    +0.000 A 
ATOM      9  C   UNL     1       1.501   4.211  20.830  0.00  0.00    +0.000 A 
ATOM     10  C   UNL     1       0.730   3.220  20.216  0.00  0.00    +0.000 A 
ATOM     11  C   UNL     1       1.055   2.776  18.927  0.00  0.00    +0.000 A 
ATOM     12  C   UNL     1       2.154   3.325  18.260  0.00  0.00    +0.000 A 
BRANCH  11  13
ATOM     13  O   UNL     1       0.319   1.823  18.318  0.00  0.00    +0.000 OA
ATOM     14  H   UNL     1       0.703   1.205  17.681  0.00  0.00    +0.000 HD
ENDBRANCH  11  13
ENDBRANCH   5   7
BRANCH   1  15
ATOM     15  C   UNL     1       6.125   3.731  15.143  0.00  0.00    +0.000 C 
BRANCH  15  16
ATOM     16  C   UNL     1       5.523   4.120  13.776  0.00  0.00    +0.000 C 
BRANCH  16  17
ATOM     17  C   UNL     1       6.273   3.523  12.572  0.00  0.00    +0.000 C 
BRANCH  17  19
ATOM     18  C   UNL     1       4.135   3.238  11.254  0.00  0.00    +0.000 C 
ATOM     19  C   UNL     1       5.401   2.555  11.759  0.00  0.00    +0.000 C 
ENDBRANCH  17  19
ENDBRANCH  16  17
ENDBRANCH  15  16
ENDBRANCH   1  15
TORSDOF 6
ENDMDL
MODEL 2
REMARK VINA RESULT:      -7.5      1.119      1.544
REMARK  Name = 
REMARK  7 active torsions:
REMARK  status: ('A' for Active; 'I' for Inactive)
REMARK    1  A    between atoms: C_1  and  C_2
REMARK    2  A    between atoms: C_2  and  C_3
REMARK    3  A    between atoms: C_3  and  C_4
REMARK    4  A    between atoms: C_4  and  C_5
REMARK    5  A    between atoms: C_5  and  N_6
REMARK    6  A    between atoms: C_10  and  C_11
REMARK    7  A    between atoms: C_15  and  O_16
REMARK                            x       y       z     vdW  Elec       q    Type
REMARK                         _______ _______ _______ _____ _____    ______ ____
ROOT
ATOM      1  N   UNL     1       5.810   4.667  16.150  0.00  0.00    +0.000 NA
ATOM      2  C   UNL     1       5.350   5.990  15.663  0.00  0.00    +0.000 C 
ATOM      3  C   UNL     1       4.902   6.869  16.834  0.00  0.00    +0.000 C 
ATOM      4  C   UNL     1       3.756   6.193  17.579  0.00  0.00    +0.000 C 
ATOM      5  C   UNL     1       4.203   4.802  18.058  0.00  0.00    +0.000 C 
ATOM      6  C   UNL     1       4.710   3.971  16.861  0.00  0.00    +0.000 C 
ENDROOT
BRANCH   5   7
ATOM      7  C   UNL     1       3.068   4.092  18.775  0.00  0.00    +0.000 A 
ATOM      8  C   UNL     1       1.993   3.560  18.042  0.00  0.00    +0.000 A 
ATOM      9  C   UNL     1       0.946   2.904  18.697  0.00  0.00    +0.000 A 
ATOM     10  C   UNL     1       0.962   2.769  20.088  0.00  0.00    +0.000 A 
ATOM     11  C   UNL     1       2.028   3.293  20.832  0.00  0.00    +0.000 A 
ATOM     12  C   UNL     1       3.073   3.952  20.178  0.00  0.00    +0.000 A 
BRANCH  11  13
ATOM     13  O   UNL     1       2.062   3.168  22.175  0.00  0.00    +0.000 OA
ATOM     14  H   UNL     1       1.258   3.065  22.702  0.00  0.00    +0.000 HD
ENDBRANCH  11  13
ENDBRANCH   5   7
BRANCH   1  15
ATOM     15  C   UNL     1       6.286   3.810  15.037  0.00  0.00    +0.000 C 
BRANCH  15  16
ATOM     16  C   UNL     1       5.538   4.057  13.710  0.00  0.00    +0.000 C 
BRANCH  16  17
ATOM     17  C   UNL     1       6.250   3.478  12.475  0.00  0.00    +0.000 C 
BRANCH  17  19
ATOM     18  C   UNL     1       4.053   3.259  11.245  0.00  0.00    +0.000 C 
ATOM     19  C   UNL     1       5.340   2.552  11.654  0.00  0.00    +0.000 C 
ENDBRANCH  17  19
ENDBRANCH  16  17
ENDBRANCH  15  16
ENDBRANCH   1  15
TORSDOF 6
ENDMDL
MODEL 3
REMARK VINA RESULT:      -7.3      2.656      4.886
REMARK  Name = 
REMARK  7 active torsions:
REMARK  status: ('A' for Active; 'I' for Inactive)
REMARK    1  A    between atoms: C_1  and  C_2
REMARK    2  A    between atoms: C_2  and  C_3
REMARK    3  A    between atoms: C_3  and  C_4
REMARK    4  A    between atoms: C_4  and  C_5
REMARK    5  A    between atoms: C_5  and  N_6
REMARK    6  A    between atoms: C_10  and  C_11
REMARK    7  A    between atoms: C_15  and  O_16
REMARK                            x       y       z     vdW  Elec       q    Type
REMARK                         _______ _______ _______ _____ _____    ______ ____
ROOT
ATOM      1  N   UNL     1       6.312   6.184  17.199  0.00  0.00    +0.000 NA
ATOM      2  C   UNL     1       6.730   5.063  16.323  0.00  0.00    +0.000 C 
ATOM      3  C   UNL     1       5.542   4.547  15.505  0.00  0.00    +0.000 C 
ATOM      4  C   UNL     1       4.444   4.057  16.441  0.00  0.00    +0.000 C 
ATOM      5  C   UNL     1       4.025   5.197  17.384  0.00  0.00    +0.000 C 
ATOM      6  C   UNL     1       5.258   5.734  18.141  0.00  0.00    +0.000 C 
ENDROOT
BRANCH   5   7
ATOM      7  C   UNL     1       2.954   4.726  18.353  0.00  0.00    +0.000 A 
ATOM      8  C   UNL     1       2.813   5.345  19.607  0.00  0.00    +0.000 A 
ATOM      9  C   UNL     1       1.827   4.915  20.501  0.00  0.00    +0.000 A 
ATOM     10  C   UNL     1       0.972   3.865  20.154  0.00  0.00    +0.000 A 
ATOM     11  C   UNL     1       1.100   3.240  18.906  0.00  0.00    +0.000 A 
ATOM     12  C   UNL     1       2.087   3.667  18.013  0.00  0.00    +0.000 A 
BRANCH  11  13
ATOM     13  O   UNL     1       0.280   2.228  18.553  0.00  0.00    +0.000 OA
ATOM     14  H   UNL     1      -0.458   2.354  17.942  0.00  0.00    +0.000 HD
ENDBRANCH  11  13
ENDBRANCH   5   7
BRANCH   1  15
ATOM     15  C   UNL     1       7.455   6.727  17.974  0.00  0.00    +0.000 C 
BRANCH  15  16
ATOM     16  C   UNL     1       7.834   8.169  17.577  0.00  0.00    +0.000 C 
BRANCH  16  17
ATOM     17  C   UNL     1       8.628   8.925  18.657  0.00  0.00    +0.000 C 
BRANCH  17  19
ATOM     18  C   UNL     1       9.969  11.004  19.173  0.00  0.00    +0.000 C 
ATOM     19  C   UNL     1       8.919  10.380  18.261  0.00  0.00    +0.000 C 
ENDBRANCH  17  19
ENDBRANCH  16  17
ENDBRANCH  15  16
ENDBRANCH   1  15
TORSDOF 6
ENDMDL
MODEL 4
REMARK VINA RESULT:      -7.1      1.310      1.491
REMARK  Name = 
REMARK  7 active torsions:
REMARK  status: ('A' for Active; 'I' for Inactive)
REMARK    1  A    between atoms: C_1  and  C_2
REMARK    2  A    between atoms: C_2  and  C_3
REMARK    3  A    between atoms: C_3  and  C_4
REMARK    4  A    between atoms: C_4  and  C_5
REMARK    5  A    between atoms: C_5  and  N_6
REMARK    6  A    between atoms: C_10  and  C_11
REMARK    7  A    between atoms: C_15  and  O_16
REMARK                            x       y       z     vdW  Elec       q    Type
REMARK                         _______ _______ _______ _____ _____    ______ ____
ROOT
ATOM      1  N   UNL     1       6.582   4.679  16.402  0.00  0.00    +0.000 NA
ATOM      2  C   UNL     1       7.258   5.756  17.164  0.00  0.00    +0.000 C 
ATOM      3  C   UNL     1       7.301   5.414  18.657  0.00  0.00    +0.000 C 
ATOM      4  C   UNL     1       5.882   5.249  19.190  0.00  0.00    +0.000 C 
ATOM      5  C   UNL     1       5.152   4.162  18.384  0.00  0.00    +0.000 C 
ATOM      6  C   UNL     1       5.188   4.508  16.880  0.00  0.00    +0.000 C 
ENDROOT
BRANCH   5   7
ATOM      7  C   UNL     1       3.723   4.001  18.872  0.00  0.00    +0.000 A 
ATOM      8  C   UNL     1       3.206   4.873  19.846  0.00  0.00    +0.000 A 
ATOM      9  C   UNL     1       1.890   4.729  20.297  0.00  0.00    +0.000 A 
ATOM     10  C   UNL     1       1.077   3.716  19.782  0.00  0.00    +0.000 A 
ATOM     11  C   UNL     1       1.578   2.840  18.809  0.00  0.00    +0.000 A 
ATOM     12  C   UNL     1       2.894   2.981  18.360  0.00  0.00    +0.000 A 
BRANCH  11  13
ATOM     13  O   UNL     1       0.805   1.860  18.297  0.00  0.00    +0.000 OA
ATOM     14  H   UNL     1       0.315   1.970  17.472  0.00  0.00    +0.000 HD
ENDBRANCH  11  13
ENDBRANCH   5   7
BRANCH   1  15
ATOM     15  C   UNL     1       6.562   4.969  14.947  0.00  0.00    +0.000 C 
BRANCH  15  16
ATOM     16  C   UNL     1       5.775   3.927  14.125  0.00  0.00    +0.000 C 
BRANCH  16  17
ATOM     17  C   UNL     1       6.348   3.680  12.718  0.00  0.00    +0.000 C 
BRANCH  17  19
ATOM     18  C   UNL     1       6.198   1.595  11.297  0.00  0.00    +0.000 C 
ATOM     19  C   UNL     1       5.436   2.789  11.861  0.00  0.00    +0.000 C 
ENDBRANCH  17  19
ENDBRANCH  16  17
ENDBRANCH  15  16
ENDBRANCH   1  15
TORSDOF 6
ENDMDL
MODEL 5
REMARK VINA RESULT:      -7.1      2.481      4.608
REMARK  Name = 
REMARK  7 active torsions:
REMARK  status: ('A' for Active; 'I' for Inactive)
REMARK    1  A    between atoms: C_1  and  C_2
REMARK    2  A    between atoms: C_2  and  C_3
REMARK    3  A    between atoms: C_3  and  C_4
REMARK    4  A    between atoms: C_4  and  C_5
REMARK    5  A    between atoms: C_5  and  N_6
REMARK    6  A    between atoms: C_10  and  C_11
REMARK    7  A    between atoms: C_15  and  O_16
REMARK                            x       y       z     vdW  Elec       q    Type
REMARK                         _______ _______ _______ _____ _____    ______ ____
ROOT
ATOM      1  N   UNL     1       6.497   5.252  17.661  0.00  0.00    +0.000 NA
ATOM      2  C   UNL     1       6.730   4.392  16.476  0.00  0.00    +0.000 C 
ATOM      3  C   UNL     1       5.446   4.245  15.654  0.00  0.00    +0.000 C 
ATOM      4  C   UNL     1       4.354   3.616  16.512  0.00  0.00    +0.000 C 
ATOM      5  C   UNL     1       4.125   4.475  17.766  0.00  0.00    +0.000 C 
ATOM      6  C   UNL     1       5.454   4.655  18.530  0.00  0.00    +0.000 C 
ENDROOT
BRANCH   5   7
ATOM      7  C   UNL     1       3.064   3.852  18.657  0.00  0.00    +0.000 A 
ATOM      8  C   UNL     1       1.779   3.590  18.149  0.00  0.00    +0.000 A 
ATOM      9  C   UNL     1       0.800   3.015  18.965  0.00  0.00    +0.000 A 
ATOM     10  C   UNL     1       1.092   2.694  20.294  0.00  0.00    +0.000 A 
ATOM     11  C   UNL     1       2.369   2.947  20.813  0.00  0.00    +0.000 A 
ATOM     12  C   UNL     1       3.347   3.525  19.999  0.00  0.00    +0.000 A 
BRANCH  11  13
ATOM     13  O   UNL     1       2.669   2.639  22.093  0.00  0.00    +0.000 OA
ATOM     14  H   UNL     1       2.019   2.252  22.694  0.00  0.00    +0.000 HD
ENDBRANCH  11  13
ENDBRANCH   5   7
BRANCH   1  15
ATOM     15  C   UNL     1       7.737   5.441  18.452  0.00  0.00    +0.000 C 
BRANCH  15  16
ATOM     16  C   UNL     1       8.083   6.923  18.704  0.00  0.00    +0.000 C 
BRANCH  16  17
ATOM     17  C   UNL     1       7.506   7.886  17.651  0.00  0.00    +0.000 C 
BRANCH  17  19
ATOM     18  C   UNL     1       8.936   9.525  18.937  0.00  0.00    +0.000 C 
ATOM     19  C   UNL     1       8.258   9.225  17.606  0.00  0.00    +0.000 C 
ENDBRANCH  17  19
ENDBRANCH  16  17
ENDBRANCH  15  16
ENDBRANCH   1  15
TORSDOF 6
ENDMDL
MODEL 6
REMARK VINA RESULT:      -7.0      3.049      5.306
REMARK  Name = 
REMARK  7 active torsions:
REMARK  status: ('A' for Active; 'I' for Inactive)
REMARK    1  A    between atoms: C_1  and  C_2
REMARK    2  A    between atoms: C_2  and  C_3
REMARK    3  A    between atoms: C_3  and  C_4
REMARK    4  A    between atoms: C_4  and  C_5
REMARK    5  A    between atoms: C_5  and  N_6
REMARK    6  A    between atoms: C_10  and  C_11
REMARK    7  A    between atoms: C_15  and  O_16
REMARK                            x       y       z     vdW  Elec       q    Type
REMARK                         _______ _______ _______ _____ _____    ______ ____
ROOT
ATOM      1  N   UNL     1       6.618   6.465  16.796  0.00  0.00    +0.000 NA
ATOM      2  C   UNL     1       7.071   5.372  15.903  0.00  0.00    +0.000 C 
ATOM      3  C   UNL     1       5.903   4.833  15.073  0.00  0.00    +0.000 C 
ATOM      4  C   UNL     1       4.817   4.295  15.998  0.00  0.00    +0.000 C 
ATOM      5  C   UNL     1       4.361   5.406  16.958  0.00  0.00    +0.000 C 
ATOM      6  C   UNL     1       5.575   5.968  17.727  0.00  0.00    +0.000 C 
ENDROOT
BRANCH   5   7
ATOM      7  C   UNL     1       3.302   4.887  17.915  0.00  0.00    +0.000 A 
ATOM      8  C   UNL     1       2.348   3.952  17.476  0.00  0.00    +0.000 A 
ATOM      9  C   UNL     1       1.373   3.471  18.354  0.00  0.00    +0.000 A 
ATOM     10  C   UNL     1       1.339   3.914  19.679  0.00  0.00    +0.000 A 
ATOM     11  C   UNL     1       2.285   4.843  20.133  0.00  0.00    +0.000 A 
ATOM     12  C   UNL     1       3.258   5.328  19.254  0.00  0.00    +0.000 A 
BRANCH  11  13
ATOM     13  O   UNL     1       2.271   5.278  21.410  0.00  0.00    +0.000 OA
ATOM     14  H   UNL     1       1.447   5.414  21.897  0.00  0.00    +0.000 HD
ENDBRANCH  11  13
ENDBRANCH   5   7
BRANCH   1  15
ATOM     15  C   UNL     1       7.741   7.030  17.583  0.00  0.00    +0.000 C 
BRANCH  15  16
ATOM     16  C   UNL     1       7.753   8.573  17.613  0.00  0.00    +0.000 C 
BRANCH  16  17
ATOM     17  C   UNL     1       8.729   9.169  18.643  0.00  0.00    +0.000 C 
BRANCH  17  19
ATOM     18  C   UNL     1      10.058  11.194  19.364  0.00  0.00    +0.000 C 
ATOM     19  C   UNL     1       9.125  10.614  18.307  0.00  0.00    +0.000 C 
ENDBRANCH  17  19
ENDBRANCH  16  17
ENDBRANCH  15  16
ENDBRANCH   1  15
TORSDOF 6
ENDMDL
MODEL 7
REMARK VINA RESULT:      -7.0      1.043      1.523
REMARK  Name = 
REMARK  7 active torsions:
REMARK  status: ('A' for Active; 'I' for Inactive)
REMARK    1  A    between atoms: C_1  and  C_2
REMARK    2  A    between atoms: C_2  and  C_3
REMARK    3  A    between atoms: C_3  and  C_4
REMARK    4  A    between atoms: C_4  and  C_5
REMARK    5  A    between atoms: C_5  and  N_6
REMARK    6  A    between atoms: C_10  and  C_11
REMARK    7  A    between atoms: C_15  and  O_16
REMARK                            x       y       z     vdW  Elec       q    Type
REMARK                         _______ _______ _______ _____ _____    ______ ____
ROOT
ATOM      1  N   UNL     1       6.124   4.912  15.902  0.00  0.00    +0.000 NA
ATOM      2  C   UNL     1       5.611   6.260  15.560  0.00  0.00    +0.000 C 
ATOM      3  C   UNL     1       5.053   6.957  16.804  0.00  0.00    +0.000 C 
ATOM      4  C   UNL     1       3.915   6.131  17.392  0.00  0.00    +0.000 C 
ATOM      5  C   UNL     1       4.420   4.716  17.718  0.00  0.00    +0.000 C 
ATOM      6  C   UNL     1       5.034   4.073  16.457  0.00  0.00    +0.000 C 
ENDROOT
BRANCH   5   7
ATOM      7  C   UNL     1       3.295   3.861  18.274  0.00  0.00    +0.000 A 
ATOM      8  C   UNL     1       3.191   2.507  17.911  0.00  0.00    +0.000 A 
ATOM      9  C   UNL     1       2.158   1.715  18.422  0.00  0.00    +0.000 A 
ATOM     10  C   UNL     1       1.220   2.263  19.300  0.00  0.00    +0.000 A 
ATOM     11  C   UNL     1       1.312   3.611  19.673  0.00  0.00    +0.000 A 
ATOM     12  C   UNL     1       2.342   4.404  19.161  0.00  0.00    +0.000 A 
BRANCH  11  13
ATOM     13  O   UNL     1       0.417   4.156  20.525  0.00  0.00    +0.000 OA
ATOM     14  H   UNL     1       0.646   4.381  21.436  0.00  0.00    +0.000 HD
ENDBRANCH  11  13
ENDBRANCH   5   7
BRANCH   1  15
ATOM     15  C   UNL     1       6.706   4.231  14.720  0.00  0.00    +0.000 C 
BRANCH  15  16
ATOM     16  C   UNL     1       5.693   4.021  13.575  0.00  0.00    +0.000 C 
BRANCH  16  17
ATOM     17  C   UNL     1       6.314   3.444  12.290  0.00  0.00    +0.000 C 
BRANCH  17  19
ATOM     18  C   UNL     1       4.047   3.167  11.208  0.00  0.00    +0.000 C 
ATOM     19  C   UNL     1       5.364   2.485  11.558  0.00  0.00    +0.000 C 
ENDBRANCH  17  19
ENDBRANCH  16  17
ENDBRANCH  15  16
ENDBRANCH   1  15
TORSDOF 6
ENDMDL
MODEL 8
REMARK VINA RESULT:      -6.9      1.665      1.846
REMARK  Name = 
REMARK  7 active torsions:
REMARK  status: ('A' for Active; 'I' for Inactive)
REMARK    1  A    between atoms: C_1  and  C_2
REMARK    2  A    between atoms: C_2  and  C_3
REMARK    3  A    between atoms: C_3  and  C_4
REMARK    4  A    between atoms: C_4  and  C_5
REMARK    5  A    between atoms: C_5  and  N_6
REMARK    6  A    between atoms: C_10  and  C_11
REMARK    7  A    between atoms: C_15  and  O_16
REMARK                            x       y       z     vdW  Elec       q    Type
REMARK                         _______ _______ _______ _____ _____    ______ ____
ROOT
ATOM      1  N   UNL     1       7.102   4.805  16.517  0.00  0.00    +0.000 NA
ATOM      2  C   UNL     1       7.482   6.021  17.275  0.00  0.00    +0.000 C 
ATOM      3  C   UNL     1       7.394   5.767  18.783  0.00  0.00    +0.000 C 
ATOM      4  C   UNL     1       5.969   5.376  19.159  0.00  0.00    +0.000 C 
ATOM      5  C   UNL     1       5.545   4.137  18.354  0.00  0.00    +0.000 C 
ATOM      6  C   UNL     1       5.710   4.410  16.843  0.00  0.00    +0.000 C 
ENDROOT
BRANCH   5   7
ATOM      7  C   UNL     1       4.115   3.747  18.684  0.00  0.00    +0.000 A 
ATOM      8  C   UNL     1       3.831   3.035  19.862  0.00  0.00    +0.000 A 
ATOM      9  C   UNL     1       2.516   2.674  20.171  0.00  0.00    +0.000 A 
ATOM     10  C   UNL     1       1.471   3.021  19.310  0.00  0.00    +0.000 A 
ATOM     11  C   UNL     1       1.739   3.732  18.132  0.00  0.00    +0.000 A 
ATOM     12  C   UNL     1       3.054   4.090  17.822  0.00  0.00    +0.000 A 
BRANCH  11  13
ATOM     13  O   UNL     1       0.741   4.079  17.292  0.00  0.00    +0.000 OA
ATOM     14  H   UNL     1       0.882   4.181  16.342  0.00  0.00    +0.000 HD
ENDBRANCH  11  13
ENDBRANCH   5   7
BRANCH   1  15
ATOM     15  C   UNL     1       7.216   5.015  15.054  0.00  0.00    +0.000 C 
BRANCH  15  16
ATOM     16  C   UNL     1       6.073   4.360  14.250  0.00  0.00    +0.000 C 
BRANCH  16  17
ATOM     17  C   UNL     1       6.526   3.732  12.920  0.00  0.00    +0.000 C 
BRANCH  17  19
ATOM     18  C   UNL     1       5.679   1.923  11.371  0.00  0.00    +0.000 C 
ATOM     19  C   UNL     1       5.345   3.234  12.074  0.00  0.00    +0.000 C 
ENDBRANCH  17  19
ENDBRANCH  16  17
ENDBRANCH  15  16
ENDBRANCH   1  15
TORSDOF 6
ENDMDL
MODEL 9
REMARK VINA RESULT:      -6.9      1.635      1.940
REMARK  Name = 
REMARK  7 active torsions:
REMARK  status: ('A' for Active; 'I' for Inactive)
REMARK    1  A    between atoms: C_1  and  C_2
REMARK    2  A    between atoms: C_2  and  C_3
REMARK    3  A    between atoms: C_3  and  C_4
REMARK    4  A    between atoms: C_4  and  C_5
REMARK    5  A    between atoms: C_5  and  N_6
REMARK    6  A    between atoms: C_10  and  C_11
REMARK    7  A    between atoms: C_15  and  O_16
REMARK                            x       y       z     vdW  Elec       q    Type
REMARK                         _______ _______ _______ _____ _____    ______ ____
ROOT
ATOM      1  N   UNL     1       6.421   4.818  16.442  0.00  0.00    +0.000 NA
ATOM      2  C   UNL     1       7.027   5.880  17.280  0.00  0.00    +0.000 C 
ATOM      3  C   UNL     1       7.111   5.432  18.742  0.00  0.00    +0.000 C 
ATOM      4  C   UNL     1       5.714   5.126  19.269  0.00  0.00    +0.000 C 
ATOM      5  C   UNL     1       5.055   4.052  18.388  0.00  0.00    +0.000 C 
ATOM      6  C   UNL     1       5.049   4.512  16.914  0.00  0.00    +0.000 C 
ENDROOT
BRANCH   5   7
ATOM      7  C   UNL     1       3.647   3.752  18.871  0.00  0.00    +0.000 A 
ATOM      8  C   UNL     1       2.553   3.910  18.002  0.00  0.00    +0.000 A 
ATOM      9  C   UNL     1       1.254   3.634  18.442  0.00  0.00    +0.000 A 
ATOM     10  C   UNL     1       1.034   3.197  19.751  0.00  0.00    +0.000 A 
ATOM     11  C   UNL     1       2.115   3.033  20.628  0.00  0.00    +0.000 A 
ATOM     12  C   UNL     1       3.412   3.312  20.190  0.00  0.00    +0.000 A 
BRANCH  11  13
ATOM     13  O   UNL     1       1.920   2.608  21.894  0.00  0.00    +0.000 OA
ATOM     14  H   UNL     1       2.639   2.253  22.433  0.00  0.00    +0.000 HD
ENDBRANCH  11  13
ENDBRANCH   5   7
BRANCH   1  15
ATOM     15  C   UNL     1       6.365   5.214  15.014  0.00  0.00    +0.000 C 
BRANCH  15  16
ATOM     16  C   UNL     1       5.508   4.266  14.148  0.00  0.00    +0.000 C 
BRANCH  16  17
ATOM     17  C   UNL     1       6.331   3.316  13.261  0.00  0.00    +0.000 C 
BRANCH  17  19
ATOM     18  C   UNL     1       4.361   3.293  11.678  0.00  0.00    +0.000 C 
ATOM     19  C   UNL     1       5.880   3.347  11.793  0.00  0.00    +0.000 C 
ENDBRANCH  17  19
ENDBRANCH  16  17
ENDBRANCH  15  16
ENDBRANCH   1  15
TORSDOF 6
ENDMDL
