MODEL 1
REMARK VINA RESULT:      -7.7      0.000      0.000
REMARK  Name = 
REMARK  7 active torsions:
REMARK  status: ('A' for Active; 'I' for Inactive)
REMARK    1  A    between atoms: C_1  and  O_2
REMARK    2  A    between atoms: O_2  and  C_3
REMARK    3  A    between atoms: C_7  and  C_8
REMARK    4  A    between atoms: N_10  and  C_11
REMARK    5  A    between atoms: N_10  and  C_18
REMARK    6  A    between atoms: C_11  and  C_12
REMARK    7  A    between atoms: C_16  and  C_17
REMARK                            x       y       z     vdW  Elec       q    Type
REMARK                         _______ _______ _______ _____ _____    ______ ____
ROOT
ATOM      1  C   UNL     1       3.046   6.866  17.883  0.00  0.00    +0.000 C 
ATOM      2  O   UNL     1       4.038   7.289  17.275  0.00  0.00    +0.000 OA
ATOM      3  N   UNL     1       2.769   5.478  17.844  0.00  0.00    +0.000 N 
ENDROOT
BRANCH   3   4
ATOM      4  C   UNL     1       1.866   4.739  18.769  0.00  0.00    +0.000 C 
ATOM      5  C   UNL     1       2.444   4.442  20.189  0.00  0.00    +0.000 C 
ATOM      6  C   UNL     1       3.140   3.075  20.220  0.00  0.00    +0.000 C 
ATOM      7  S   UNL     1       2.370   2.109  18.948  0.00  0.00    +0.000 S 
ATOM      8  O   UNL     1       1.455   1.180  19.592  0.00  0.00    +0.000 OA
ATOM      9  O   UNL     1       3.375   1.662  18.027  0.00  0.00    +0.000 OA
ATOM     10  C   UNL     1       1.389   3.402  18.195  0.00  0.00    +0.000 C 
ENDBRANCH   3   4
BRANCH   1  15
ATOM     11  C   UNL     1       1.143   8.927  20.585  0.00  0.00    +0.000 A 
ATOM     12  C   UNL     1       0.621   9.918  19.741  0.00  0.00    +0.000 A 
ATOM     13  C   UNL     1       0.907   9.927  18.389  0.00  0.00    +0.000 A 
ATOM     14  C   UNL     1       1.739   8.939  17.871  0.00  0.00    +0.000 A 
ATOM     15  C   UNL     1       2.301   7.920  18.681  0.00  0.00    +0.000 A 
ATOM     16  C   UNL     1       1.981   7.916  20.062  0.00  0.00    +0.000 A 
BRANCH  11  18
ATOM     17  C   UNL     1      -0.223  10.156  22.187  0.00  0.00    +0.000 C 
ATOM     18  O   UNL     1       0.673   9.121  21.851  0.00  0.00    +0.000 OA
ENDBRANCH  11  18
ENDBRANCH   1  15
BRANCH   3  19
ATOM     19  C   UNL     1       3.827   4.696  17.187  0.00  0.00    +0.000 C 
BRANCH  19  20
ATOM     20  C   UNL     1       5.243   4.708  17.674  0.00  0.00    +0.000 A 
ATOM     21  S   UNL     1       5.725   5.228  19.223  0.00  0.00    +0.000 S 
ATOM     22  C   UNL     1       7.339   5.456  18.702  0.00  0.00    +0.000 A 
ATOM     23  C   UNL     1       7.544   4.975  17.429  0.00  0.00    +0.000 A 
ATOM     24  C   UNL     1       6.336   4.509  16.827  0.00  0.00    +0.000 A 
ATOM     25  C   UNL     1       6.245   4.041  15.405  0.00  0.00    +0.000 C 
ENDBRANCH  19  20
ENDBRANCH   3  19
TORSDOF 5
ENDMDL
MODEL 2
REMARK VINA RESULT:      -7.5      1.357      1.423
REMARK  Name = 
REMARK  7 active torsions:
REMARK  status: ('A' for Active; 'I' for Inactive)
REMARK    1  A    between atoms: C_1  and  O_2
REMARK    2  A    between atoms: O_2  and  C_3
REMARK    3  A    between atoms: C_7  and  C_8
REMARK    4  A    between atoms: N_10  and  C_11
REMARK    5  A    between atoms: N_10  and  C_18
REMARK    6  A    between atoms: C_11  and  C_12
REMARK    7  A    between atoms: C_16  and  C_17
REMARK                            x       y       z     vdW  Elec       q    Type
REMARK                         _______ _______ _______ _____ _____    ______ ____
ROOT
ATOM      1  C   UNL     1       2.728   7.048  18.392  0.00  0.00    +0.000 C 
ATOM      2  O   UNL     1       3.131   7.492  17.309  0.00  0.00    +0.000 OA
ATOM      3  N   UNL     1       3.042   5.710  18.733  0.00  0.00    +0.000 N 
ENDROOT
BRANCH   3   4
ATOM      4  C   UNL     1       2.967   5.113  20.095  0.00  0.00    +0.000 C 
ATOM      5  C   UNL     1       3.829   3.832  20.323  0.00  0.00    +0.000 C 
ATOM      6  C   UNL     1       3.016   2.566  20.024  0.00  0.00    +0.000 C 
ATOM      7  S   UNL     1       1.319   3.004  20.294  0.00  0.00    +0.000 S 
ATOM      8  O   UNL     1       0.917   2.445  21.575  0.00  0.00    +0.000 OA
ATOM      9  O   UNL     1       0.574   2.753  19.094  0.00  0.00    +0.000 OA
ATOM     10  C   UNL     1       1.536   4.767  20.515  0.00  0.00    +0.000 C 
ENDBRANCH   3   4
BRANCH   1  15
ATOM     11  C   UNL     1       0.905   8.977  21.242  0.00  0.00    +0.000 A 
ATOM     12  C   UNL     1       0.384  10.022  20.466  0.00  0.00    +0.000 A 
ATOM     13  C   UNL     1       0.646  10.105  19.112  0.00  0.00    +0.000 A 
ATOM     14  C   UNL     1       1.453   9.136  18.523  0.00  0.00    +0.000 A 
ATOM     15  C   UNL     1       2.014   8.064  19.263  0.00  0.00    +0.000 A 
ATOM     16  C   UNL     1       1.718   7.985  20.647  0.00  0.00    +0.000 A 
BRANCH  11  18
ATOM     17  C   UNL     1      -0.479  10.079  22.920  0.00  0.00    +0.000 C 
ATOM     18  O   UNL     1       0.461   9.104  22.526  0.00  0.00    +0.000 OA
ENDBRANCH  11  18
ENDBRANCH   1  15
BRANCH   3  19
ATOM     19  C   UNL     1       3.962   5.071  17.780  0.00  0.00    +0.000 C 
BRANCH  19  20
ATOM     20  C   UNL     1       5.420   5.407  17.737  0.00  0.00    +0.000 A 
ATOM     21  S   UNL     1       6.419   5.543  19.111  0.00  0.00    +0.000 S 
ATOM     22  C   UNL     1       7.578   6.454  18.242  0.00  0.00    +0.000 A 
ATOM     23  C   UNL     1       7.300   6.496  16.895  0.00  0.00    +0.000 A 
ATOM     24  C   UNL     1       6.058   5.864  16.581  0.00  0.00    +0.000 A 
ATOM     25  C   UNL     1       5.450   5.865  15.210  0.00  0.00    +0.000 C 
ENDBRANCH  19  20
ENDBRANCH   3  19
TORSDOF 5
ENDMDL
MODEL 3
REMARK VINA RESULT:      -7.5      1.576      2.295
REMARK  Name = 
REMARK  7 active torsions:
REMARK  status: ('A' for Active; 'I' for Inactive)
REMARK    1  A    between atoms: C_1  and  O_2
REMARK    2  A    between atoms: O_2  and  C_3
REMARK    3  A    between atoms: C_7  and  C_8
REMARK    4  A    between atoms: N_10  and  C_11
REMARK    5  A    between atoms: N_10  and  C_18
REMARK    6  A    between atoms: C_11  and  C_12
REMARK    7  A    between atoms: C_16  and  C_17
REMARK                            x       y       z     vdW  Elec       q    Type
REMARK                         _______ _______ _______ _____ _____    ______ ____
ROOT
ATOM      1  C   UNL     1       3.416   7.195  18.382  0.00  0.00    +0.000 C 
ATOM      2  O   UNL     1       4.337   7.851  17.878  0.00  0.00    +0.000 OA
ATOM      3  N   UNL     1       3.626   5.818  18.634  0.00  0.00    +0.000 N 
ENDROOT
BRANCH   3   4
ATOM      4  C   UNL     1       2.808   4.958  19.533  0.00  0.00    +0.000 C 
ATOM      5  C   UNL     1       3.527   3.697  20.107  0.00  0.00    +0.000 C 
ATOM      6  C   UNL     1       3.306   2.481  19.198  0.00  0.00    +0.000 C 
ATOM      7  S   UNL     1       1.777   2.780  18.351  0.00  0.00    +0.000 S 
ATOM      8  O   UNL     1       0.755   1.959  18.981  0.00  0.00    +0.000 OA
ATOM      9  O   UNL     1       2.010   2.741  16.936  0.00  0.00    +0.000 OA
ATOM     10  C   UNL     1       1.514   4.471  18.875  0.00  0.00    +0.000 C 
ENDBRANCH   3   4
BRANCH   1  15
ATOM     11  C   UNL     1       0.413   9.673  18.507  0.00  0.00    +0.000 A 
ATOM     12  C   UNL     1       0.161   9.601  19.885  0.00  0.00    +0.000 A 
ATOM     13  C   UNL     1       0.900   8.770  20.704  0.00  0.00    +0.000 A 
ATOM     14  C   UNL     1       1.901   7.985  20.138  0.00  0.00    +0.000 A 
ATOM     15  C   UNL     1       2.191   8.011  18.751  0.00  0.00    +0.000 A 
ATOM     16  C   UNL     1       1.434   8.884  17.929  0.00  0.00    +0.000 A 
BRANCH  11  18
ATOM     17  C   UNL     1      -1.824  10.475  17.967  0.00  0.00    +0.000 C 
ATOM     18  O   UNL     1      -0.420  10.594  17.943  0.00  0.00    +0.000 OA
ENDBRANCH  11  18
ENDBRANCH   1  15
BRANCH   3  19
ATOM     19  C   UNL     1       5.011   5.389  18.390  0.00  0.00    +0.000 C 
BRANCH  19  20
ATOM     20  C   UNL     1       5.539   5.158  17.007  0.00  0.00    +0.000 A 
ATOM     21  S   UNL     1       4.939   3.981  15.932  0.00  0.00    +0.000 S 
ATOM     22  C   UNL     1       6.373   4.028  14.999  0.00  0.00    +0.000 A 
ATOM     23  C   UNL     1       7.212   5.046  15.391  0.00  0.00    +0.000 A 
ATOM     24  C   UNL     1       6.725   5.733  16.544  0.00  0.00    +0.000 A 
ATOM     25  C   UNL     1       7.492   6.808  17.256  0.00  0.00    +0.000 C 
ENDBRANCH  19  20
ENDBRANCH   3  19
TORSDOF 5
ENDMDL
MODEL 4
REMARK VINA RESULT:      -7.4      2.095      4.406
REMARK  Name = 
REMARK  7 active torsions:
REMARK  status: ('A' for Active; 'I' for Inactive)
REMARK    1  A    between atoms: C_1  and  O_2
REMARK    2  A    between atoms: O_2  and  C_3
REMARK    3  A    between atoms: C_7  and  C_8
REMARK    4  A    between atoms: N_10  and  C_11
REMARK    5  A    between atoms: N_10  and  C_18
REMARK    6  A    between atoms: C_11  and  C_12
REMARK    7  A    between atoms: C_16  and  C_17
REMARK                            x       y       z     vdW  Elec       q    Type
REMARK                         _______ _______ _______ _____ _____    ______ ____
ROOT
ATOM      1  C   UNL     1       2.785   6.301  19.720  0.00  0.00    +0.000 C 
ATOM      2  O   UNL     1       2.213   5.650  20.605  0.00  0.00    +0.000 OA
ATOM      3  N   UNL     1       3.841   5.687  19.004  0.00  0.00    +0.000 N 
ENDROOT
BRANCH   3   4
ATOM      4  C   UNL     1       4.403   6.149  17.705  0.00  0.00    +0.000 C 
ATOM      5  C   UNL     1       4.409   5.094  16.555  0.00  0.00    +0.000 C 
ATOM      6  C   UNL     1       5.731   4.315  16.534  0.00  0.00    +0.000 C 
ATOM      7  S   UNL     1       6.939   5.391  17.260  0.00  0.00    +0.000 S 
ATOM      8  O   UNL     1       7.742   5.945  16.181  0.00  0.00    +0.000 OA
ATOM      9  O   UNL     1       7.538   4.732  18.385  0.00  0.00    +0.000 OA
ATOM     10  C   UNL     1       5.834   6.678  17.830  0.00  0.00    +0.000 C 
ENDBRANCH   3   4
BRANCH   1  15
ATOM     11  C   UNL     1       0.861   9.684  19.878  0.00  0.00    +0.000 A 
ATOM     12  C   UNL     1       0.970  10.032  18.524  0.00  0.00    +0.000 A 
ATOM     13  C   UNL     1       1.660   9.230  17.634  0.00  0.00    +0.000 A 
ATOM     14  C   UNL     1       2.262   8.067  18.104  0.00  0.00    +0.000 A 
ATOM     15  C   UNL     1       2.191   7.674  19.465  0.00  0.00    +0.000 A 
ATOM     16  C   UNL     1       1.464   8.499  20.359  0.00  0.00    +0.000 A 
BRANCH  11  18
ATOM     17  C   UNL     1      -1.020  11.234  19.927  0.00  0.00    +0.000 C 
ATOM     18  O   UNL     1       0.098  10.613  20.522  0.00  0.00    +0.000 OA
ENDBRANCH  11  18
ENDBRANCH   1  15
BRANCH   3  19
ATOM     19  C   UNL     1       4.006   4.262  19.328  0.00  0.00    +0.000 C 
BRANCH  19  20
ATOM     20  C   UNL     1       2.896   3.273  19.149  0.00  0.00    +0.000 A 
ATOM     21  S   UNL     1       2.012   3.067  17.707  0.00  0.00    +0.000 S 
ATOM     22  C   UNL     1       0.732   2.296  18.542  0.00  0.00    +0.000 A 
ATOM     23  C   UNL     1       1.051   2.038  19.856  0.00  0.00    +0.000 A 
ATOM     24  C   UNL     1       2.323   2.577  20.217  0.00  0.00    +0.000 A 
ATOM     25  C   UNL     1       2.870   2.548  21.613  0.00  0.00    +0.000 C 
ENDBRANCH  19  20
ENDBRANCH   3  19
TORSDOF 5
ENDMDL
MODEL 5
REMARK VINA RESULT:      -7.3      1.144      1.584
REMARK  Name = 
REMARK  7 active torsions:
REMARK  status: ('A' for Active; 'I' for Inactive)
REMARK    1  A    between atoms: C_1  and  O_2
REMARK    2  A    between atoms: O_2  and  C_3
REMARK    3  A    between atoms: C_7  and  C_8
REMARK    4  A    between atoms: N_10  and  C_11
REMARK    5  A    between atoms: N_10  and  C_18
REMARK    6  A    between atoms: C_11  and  C_12
REMARK    7  A    between atoms: C_16  and  C_17
REMARK                            x       y       z     vdW  Elec       q    Type
REMARK                         _______ _______ _______ _____ _____    ______ ____
ROOT
ATOM      1  C   UNL     1       3.423   6.989  18.643  0.00  0.00    +0.000 C 
ATOM      2  O   UNL     1       4.519   7.454  18.302  0.00  0.00    +0.000 OA
ATOM      3  N   UNL     1       3.309   5.589  18.823  0.00  0.00    +0.000 N 
ENDROOT
BRANCH   3   4
ATOM      4  C   UNL     1       2.218   4.886  19.552  0.00  0.00    +0.000 C 
ATOM      5  C   UNL     1       2.673   3.773  20.547  0.00  0.00    +0.000 C 
ATOM      6  C   UNL     1       2.715   2.405  19.854  0.00  0.00    +0.000 C 
ATOM      7  S   UNL     1       1.549   2.500  18.521  0.00  0.00    +0.000 S 
ATOM      8  O   UNL     1       0.353   1.780  18.929  0.00  0.00    +0.000 OA
ATOM      9  O   UNL     1       2.222   2.208  17.288  0.00  0.00    +0.000 OA
ATOM     10  C   UNL     1       1.188   4.250  18.615  0.00  0.00    +0.000 C 
ENDBRANCH   3   4
BRANCH   1  15
ATOM     11  C   UNL     1       0.608   9.223  20.142  0.00  0.00    +0.000 A 
ATOM     12  C   UNL     1       0.192   9.836  18.951  0.00  0.00    +0.000 A 
ATOM     13  C   UNL     1       0.818   9.561  17.751  0.00  0.00    +0.000 A 
ATOM     14  C   UNL     1       1.887   8.670  17.738  0.00  0.00    +0.000 A 
ATOM     15  C   UNL     1       2.354   8.031  18.914  0.00  0.00    +0.000 A 
ATOM     16  C   UNL     1       1.688   8.311  20.134  0.00  0.00    +0.000 A 
BRANCH  11  18
ATOM     17  C   UNL     1       0.045   9.302  22.513  0.00  0.00    +0.000 C 
ATOM     18  O   UNL     1      -0.200   9.630  21.164  0.00  0.00    +0.000 OA
ENDBRANCH  11  18
ENDBRANCH   1  15
BRANCH   3  19
ATOM     19  C   UNL     1       4.596   4.886  18.720  0.00  0.00    +0.000 C 
BRANCH  19  20
ATOM     20  C   UNL     1       5.377   4.840  17.443  0.00  0.00    +0.000 A 
ATOM     21  S   UNL     1       4.755   4.300  15.952  0.00  0.00    +0.000 S 
ATOM     22  C   UNL     1       6.328   4.042  15.330  0.00  0.00    +0.000 A 
ATOM     23  C   UNL     1       7.303   4.528  16.171  0.00  0.00    +0.000 A 
ATOM     24  C   UNL     1       6.761   5.023  17.396  0.00  0.00    +0.000 A 
ATOM     25  C   UNL     1       7.603   5.503  18.541  0.00  0.00    +0.000 C 
ENDBRANCH  19  20
ENDBRANCH   3  19
TORSDOF 5
ENDMDL
MODEL 6
REMARK VINA RESULT:      -7.2      2.039      6.188
REMARK  Name = 
REMARK  7 active torsions:
REMARK  status: ('A' for Active; 'I' for Inactive)
REMARK    1  A    between atoms: C_1  and  O_2
REMARK    2  A    between atoms: O_2  and  C_3
REMARK    3  A    between atoms: C_7  and  C_8
REMARK    4  A    between atoms: N_10  and  C_11
REMARK    5  A    between atoms: N_10  and  C_18
REMARK    6  A    between atoms: C_11  and  C_12
REMARK    7  A    between atoms: C_16  and  C_17
REMARK                            x       y       z     vdW  Elec       q    Type
REMARK                         _______ _______ _______ _____ _____    ______ ____
ROOT
ATOM      1  C   UNL     1       3.780   6.608  17.941  0.00  0.00    +0.000 C 
ATOM      2  O   UNL     1       3.205   7.410  17.193  0.00  0.00    +0.000 OA
ATOM      3  N   UNL     1       3.184   6.298  19.187  0.00  0.00    +0.000 N 
ENDROOT
BRANCH   3   4
ATOM      4  C   UNL     1       3.513   5.129  20.049  0.00  0.00    +0.000 C 
ATOM      5  C   UNL     1       3.867   3.809  19.295  0.00  0.00    +0.000 C 
ATOM      6  C   UNL     1       2.615   2.949  19.081  0.00  0.00    +0.000 C 
ATOM      7  S   UNL     1       1.494   3.392  20.382  0.00  0.00    +0.000 S 
ATOM      8  O   UNL     1       1.531   2.332  21.377  0.00  0.00    +0.000 OA
ATOM      9  O   UNL     1       0.260   3.841  19.804  0.00  0.00    +0.000 OA
ATOM     10  C   UNL     1       2.398   4.788  21.042  0.00  0.00    +0.000 C 
ENDBRANCH   3   4
BRANCH   1  15
ATOM     11  C   UNL     1       6.394   4.586  15.880  0.00  0.00    +0.000 A 
ATOM     12  C   UNL     1       7.484   4.735  16.750  0.00  0.00    +0.000 A 
ATOM     13  C   UNL     1       7.374   5.478  17.910  0.00  0.00    +0.000 A 
ATOM     14  C   UNL     1       6.162   6.095  18.202  0.00  0.00    +0.000 A 
ATOM     15  C   UNL     1       5.032   5.986  17.352  0.00  0.00    +0.000 A 
ATOM     16  C   UNL     1       5.157   5.204  16.176  0.00  0.00    +0.000 A 
BRANCH  11  18
ATOM     17  C   UNL     1       6.133   3.825  13.579  0.00  0.00    +0.000 C 
ATOM     18  O   UNL     1       6.753   3.774  14.844  0.00  0.00    +0.000 OA
ENDBRANCH  11  18
ENDBRANCH   1  15
BRANCH   3  19
ATOM     19  C   UNL     1       1.844   6.883  19.349  0.00  0.00    +0.000 C 
BRANCH  19  20
ATOM     20  C   UNL     1       1.629   8.193  20.042  0.00  0.00    +0.000 A 
ATOM     21  S   UNL     1       1.593   8.395  21.733  0.00  0.00    +0.000 S 
ATOM     22  C   UNL     1       0.769   9.888  21.590  0.00  0.00    +0.000 A 
ATOM     23  C   UNL     1       0.686  10.310  20.282  0.00  0.00    +0.000 A 
ATOM     24  C   UNL     1       1.209   9.344  19.370  0.00  0.00    +0.000 A 
ATOM     25  C   UNL     1       1.140   9.490  17.879  0.00  0.00    +0.000 C 
ENDBRANCH  19  20
ENDBRANCH   3  19
TORSDOF 5
ENDMDL
MODEL 7
REMARK VINA RESULT:      -7.1      2.207      4.759
REMARK  Name = 
REMARK  7 active torsions:
REMARK  status: ('A' for Active; 'I' for Inactive)
REMARK    1  A    between atoms: C_1  and  O_2
REMARK    2  A    between atoms: O_2  and  C_3
REMARK    3  A    between atoms: C_7  and  C_8
REMARK    4  A    between atoms: N_10  and  C_11
REMARK    5  A    between atoms: N_10  and  C_18
REMARK    6  A    between atoms: C_11  and  C_12
REMARK    7  A    between atoms: C_16  and  C_17
REMARK                            x       y       z     vdW  Elec       q    Type
REMARK                         _______ _______ _______ _____ _____    ______ ____
ROOT
ATOM      1  C   UNL     1       2.803   6.344  19.587  0.00  0.00    +0.000 C 
ATOM      2  O   UNL     1       2.248   5.736  20.512  0.00  0.00    +0.000 OA
ATOM      3  N   UNL     1       3.832   5.690  18.867  0.00  0.00    +0.000 N 
ENDROOT
BRANCH   3   4
ATOM      4  C   UNL     1       4.362   6.094  17.536  0.00  0.00    +0.000 C 
ATOM      5  C   UNL     1       4.730   4.925  16.569  0.00  0.00    +0.000 C 
ATOM      6  C   UNL     1       6.204   4.528  16.727  0.00  0.00    +0.000 C 
ATOM      7  S   UNL     1       7.035   5.977  17.323  0.00  0.00    +0.000 S 
ATOM      8  O   UNL     1       7.756   6.564  16.204  0.00  0.00    +0.000 OA
ATOM      9  O   UNL     1       7.688   5.666  18.562  0.00  0.00    +0.000 OA
ATOM     10  C   UNL     1       5.596   6.995  17.634  0.00  0.00    +0.000 C 
ENDBRANCH   3   4
BRANCH   1  15
ATOM     11  C   UNL     1       2.005   9.916  18.254  0.00  0.00    +0.000 A 
ATOM     12  C   UNL     1       1.108  10.303  19.260  0.00  0.00    +0.000 A 
ATOM     13  C   UNL     1       0.763   9.436  20.280  0.00  0.00    +0.000 A 
ATOM     14  C   UNL     1       1.312   8.157  20.291  0.00  0.00    +0.000 A 
ATOM     15  C   UNL     1       2.215   7.712  19.293  0.00  0.00    +0.000 A 
ATOM     16  C   UNL     1       2.572   8.621  18.264  0.00  0.00    +0.000 A 
BRANCH  11  18
ATOM     17  C   UNL     1       2.471  12.275  17.851  0.00  0.00    +0.000 C 
ATOM     18  O   UNL     1       2.207  10.964  17.404  0.00  0.00    +0.000 OA
ENDBRANCH  11  18
ENDBRANCH   1  15
BRANCH   3  19
ATOM     19  C   UNL     1       3.992   4.277  19.243  0.00  0.00    +0.000 C 
BRANCH  19  20
ATOM     20  C   UNL     1       2.879   3.287  19.100  0.00  0.00    +0.000 A 
ATOM     21  S   UNL     1       1.983   3.043  17.671  0.00  0.00    +0.000 S 
ATOM     22  C   UNL     1       0.707   2.298  18.536  0.00  0.00    +0.000 A 
ATOM     23  C   UNL     1       1.036   2.077  19.854  0.00  0.00    +0.000 A 
ATOM     24  C   UNL     1       2.312   2.622  20.191  0.00  0.00    +0.000 A 
ATOM     25  C   UNL     1       2.870   2.630  21.583  0.00  0.00    +0.000 C 
ENDBRANCH  19  20
ENDBRANCH   3  19
TORSDOF 5
ENDMDL
MODEL 8
REMARK VINA RESULT:      -7.1      1.166      1.615
REMARK  Name = 
REMARK  7 active torsions:
REMARK  status: ('A' for Active; 'I' for Inactive)
REMARK    1  A    between atoms: C_1  and  O_2
REMARK    2  A    between atoms: O_2  and  C_3
REMARK    3  A    between atoms: C_7  and  C_8
REMARK    4  A    between atoms: N_10  and  C_11
REMARK    5  A    between atoms: N_10  and  C_18
REMARK    6  A    between atoms: C_11  and  C_12
REMARK    7  A    between atoms: C_16  and  C_17
REMARK                            x       y       z     vdW  Elec       q    Type
REMARK                         _______ _______ _______ _____ _____    ______ ____
ROOT
ATOM      1  C   UNL     1       3.629   6.736  18.180  0.00  0.00    +0.000 C 
ATOM      2  O   UNL     1       4.811   7.102  18.132  0.00  0.00    +0.000 OA
ATOM      3  N   UNL     1       3.322   5.394  17.850  0.00  0.00    +0.000 N 
ENDROOT
BRANCH   3   4
ATOM      4  C   UNL     1       2.058   4.679  18.179  0.00  0.00    +0.000 C 
ATOM      5  C   UNL     1       1.708   4.582  19.697  0.00  0.00    +0.000 C 
ATOM      6  C   UNL     1       2.272   3.292  20.307  0.00  0.00    +0.000 C 
ATOM      7  S   UNL     1       2.394   2.136  18.968  0.00  0.00    +0.000 S 
ATOM      8  O   UNL     1       1.285   1.202  19.088  0.00  0.00    +0.000 OA
ATOM      9  O   UNL     1       3.752   1.685  18.860  0.00  0.00    +0.000 OA
ATOM     10  C   UNL     1       2.018   3.253  17.622  0.00  0.00    +0.000 C 
ENDBRANCH   3   4
BRANCH   1  15
ATOM     11  C   UNL     1       1.071   8.870  20.198  0.00  0.00    +0.000 A 
ATOM     12  C   UNL     1       0.669   9.724  19.160  0.00  0.00    +0.000 A 
ATOM     13  C   UNL     1       1.228   9.627  17.900  0.00  0.00    +0.000 A 
ATOM     14  C   UNL     1       2.214   8.672  17.673  0.00  0.00    +0.000 A 
ATOM     15  C   UNL     1       2.664   7.791  18.689  0.00  0.00    +0.000 A 
ATOM     16  C   UNL     1       2.067   7.893  19.970  0.00  0.00    +0.000 A 
BRANCH  11  18
ATOM     17  C   UNL     1      -0.450  10.305  21.451  0.00  0.00    +0.000 C 
ATOM     18  O   UNL     1       0.337   9.143  21.315  0.00  0.00    +0.000 OA
ENDBRANCH  11  18
ENDBRANCH   1  15
BRANCH   3  19
ATOM     19  C   UNL     1       4.517   4.563  17.638  0.00  0.00    +0.000 C 
BRANCH  19  20
ATOM     20  C   UNL     1       5.431   4.771  16.471  0.00  0.00    +0.000 A 
ATOM     21  S   UNL     1       4.940   4.720  14.840  0.00  0.00    +0.000 S 
ATOM     22  C   UNL     1       6.547   4.461  14.311  0.00  0.00    +0.000 A 
ATOM     23  C   UNL     1       7.457   4.593  15.334  0.00  0.00    +0.000 A 
ATOM     24  C   UNL     1       6.823   4.802  16.597  0.00  0.00    +0.000 A 
ATOM     25  C   UNL     1       7.565   4.862  17.898  0.00  0.00    +0.000 C 
ENDBRANCH  19  20
ENDBRANCH   3  19
TORSDOF 5
ENDMDL
MODEL 9
REMARK VINA RESULT:      -7.1      1.010      1.520
REMARK  Name = 
REMARK  7 active torsions:
REMARK  status: ('A' for Active; 'I' for Inactive)
REMARK    1  A    between atoms: C_1  and  O_2
REMARK    2  A    between atoms: O_2  and  C_3
REMARK    3  A    between atoms: C_7  and  C_8
REMARK    4  A    between atoms: N_10  and  C_11
REMARK    5  A    between atoms: N_10  and  C_18
REMARK    6  A    between atoms: C_11  and  C_12
REMARK    7  A    between atoms: C_16  and  C_17
REMARK                            x       y       z     vdW  Elec       q    Type
REMARK                         _______ _______ _______ _____ _____    ______ ____
ROOT
ATOM      1  C   UNL     1       2.988   6.932  17.808  0.00  0.00    +0.000 C 
ATOM      2  O   UNL     1       3.956   7.399  17.194  0.00  0.00    +0.000 OA
ATOM      3  N   UNL     1       2.825   5.526  17.846  0.00  0.00    +0.000 N 
ENDROOT
BRANCH   3   4
ATOM      4  C   UNL     1       1.963   4.769  18.796  0.00  0.00    +0.000 C 
ATOM      5  C   UNL     1       2.619   4.406  20.165  0.00  0.00    +0.000 C 
ATOM      6  C   UNL     1       3.286   3.026  20.103  0.00  0.00    +0.000 C 
ATOM      7  S   UNL     1       2.419   2.125  18.845  0.00  0.00    +0.000 S 
ATOM      8  O   UNL     1       1.525   1.190  19.509  0.00  0.00    +0.000 OA
ATOM      9  O   UNL     1       3.357   1.694  17.847  0.00  0.00    +0.000 OA
ATOM     10  C   UNL     1       1.423   3.465  18.202  0.00  0.00    +0.000 C 
ENDBRANCH   3   4
BRANCH   1  15
ATOM     11  C   UNL     1       0.975  10.080  18.906  0.00  0.00    +0.000 A 
ATOM     12  C   UNL     1       0.883   9.784  20.274  0.00  0.00    +0.000 A 
ATOM     13  C   UNL     1       1.412   8.616  20.788  0.00  0.00    +0.000 A 
ATOM     14  C   UNL     1       2.032   7.720  19.923  0.00  0.00    +0.000 A 
ATOM     15  C   UNL     1       2.143   7.965  18.530  0.00  0.00    +0.000 A 
ATOM     16  C   UNL     1       1.611   9.177  18.024  0.00  0.00    +0.000 A 
BRANCH  11  18
ATOM     17  C   UNL     1      -0.974  11.508  18.577  0.00  0.00    +0.000 C 
ATOM     18  O   UNL     1       0.418  11.303  18.672  0.00  0.00    +0.000 OA
ENDBRANCH  11  18
ENDBRANCH   1  15
BRANCH   3  19
ATOM     19  C   UNL     1       3.956   4.796  17.254  0.00  0.00    +0.000 C 
BRANCH  19  20
ATOM     20  C   UNL     1       5.369   5.039  17.683  0.00  0.00    +0.000 A 
ATOM     21  S   UNL     1       5.855   5.302  19.295  0.00  0.00    +0.000 S 
ATOM     22  C   UNL     1       7.325   6.020  18.790  0.00  0.00    +0.000 A 
ATOM     23  C   UNL     1       7.521   5.896  17.433  0.00  0.00    +0.000 A 
ATOM     24  C   UNL     1       6.401   5.300  16.778  0.00  0.00    +0.000 A 
ATOM     25  C   UNL     1       6.294   5.151  15.289  0.00  0.00    +0.000 C 
ENDBRANCH  19  20
ENDBRANCH   3  19
TORSDOF 5
ENDMDL
