MODEL 1
REMARK VINA RESULT:      -8.6      0.000      0.000
REMARK  Name = 
REMARK  10 active torsions:
REMARK  status: ('A' for Active; 'I' for Inactive)
REMARK    1  A    between atoms: C_1  and  C_2
REMARK    2  A    between atoms: C_2  and  O_3
REMARK    3  A    between atoms: O_3  and  C_4
REMARK    4  A    between atoms: C_4  and  C_6
REMARK    5  A    between atoms: C_11  and  C_13
REMARK    6  A    between atoms: C_13  and  N_14
REMARK    7  A    between atoms: C_18  and  C_19
REMARK    8  A    between atoms: N_20  and  C_21
REMARK    9  A    between atoms: C_21  and  C_22
REMARK   10  A    between atoms: C_29  and  C_30
REMARK                            x       y       z     vdW  Elec       q    Type
REMARK                         _______ _______ _______ _____ _____    ______ ____
ROOT
ATOM      1  N   UNL     1       2.878   5.354  19.491  0.00  0.00    +0.000 N 
ATOM      2  N   UNL     1       2.269   5.175  20.749  0.00  0.00    +0.000 NA
ATOM      3  C   UNL     1       1.560   6.136  21.263  0.00  0.00    +0.000 A 
ATOM      4  C   UNL     1       1.417   7.385  20.576  0.00  0.00    +0.000 A 
ATOM      5  C   UNL     1       0.724   8.528  20.923  0.00  0.00    +0.000 A 
ATOM      6  C   UNL     1      -0.141   8.783  22.108  0.00  0.00    +0.000 C 
ATOM      7  N   UNL     1       0.981   9.463  19.927  0.00  0.00    +0.000 N 
ATOM      8  C   UNL     1       1.760   8.885  18.931  0.00  0.00    +0.000 A 
ATOM      9  C   UNL     1       2.194   9.579  17.685  0.00  0.00    +0.000 C 
ATOM     10  C   UNL     1       2.037   7.588  19.335  0.00  0.00    +0.000 A 
ATOM     11  C   UNL     1       2.805   6.524  18.705  0.00  0.00    +0.000 A 
ATOM     12  O   UNL     1       3.354   6.657  17.613  0.00  0.00    +0.000 OA
ENDROOT
BRANCH   1  13
ATOM     13  C   UNL     1       3.596   4.196  18.973  0.00  0.00    +0.000 C 
BRANCH  13  19
ATOM     14  C   UNL     1       7.512   5.547  16.584  0.00  0.00    +0.000 C 
ATOM     15  C   UNL     1       6.926   5.098  15.237  0.00  0.00    +0.000 C 
ATOM     16  C   UNL     1       5.440   4.745  15.345  0.00  0.00    +0.000 C 
ATOM     17  C   UNL     1       5.162   3.779  16.495  0.00  0.00    +0.000 C 
ATOM     18  N   UNL     1       5.769   4.249  17.742  0.00  0.00    +0.000 N 
ATOM     19  C   UNL     1       5.115   4.405  18.969  0.00  0.00    +0.000 C 
ATOM     20  O   UNL     1       5.737   4.705  19.990  0.00  0.00    +0.000 OA
ATOM     21  C   UNL     1       7.204   4.520  17.670  0.00  0.00    +0.000 C 
BRANCH  14  22
ATOM     22  C   UNL     1       7.027   6.936  16.958  0.00  0.00    +0.000 C 
ATOM     23  O   UNL     1       6.073   7.503  16.440  0.00  0.00    +0.000 OA
BRANCH  22  24
ATOM     24  O   UNL     1       7.906   7.524  17.817  0.00  0.00    +0.000 OA
BRANCH  24  26
ATOM     25  C   UNL     1       8.933   9.427  18.803  0.00  0.00    +0.000 C 
ATOM     26  C   UNL     1       7.872   8.957  17.824  0.00  0.00    +0.000 C 
ENDBRANCH  24  26
ENDBRANCH  22  24
ENDBRANCH  14  22
ENDBRANCH  13  19
ENDBRANCH   1  13
BRANCH   7  27
ATOM     27  C   UNL     1       0.545  10.867  19.967  0.00  0.00    +0.000 C 
BRANCH  27  28
ATOM     28  C   UNL     1      -0.824  11.135  19.377  0.00  0.00    +0.000 A 
ATOM     29  C   UNL     1      -1.348  10.439  18.276  0.00  0.00    +0.000 A 
ATOM     30  C   UNL     1      -2.659  10.660  17.846  0.00  0.00    +0.000 A 
ATOM     31  C   UNL     1      -3.459  11.589  18.503  0.00  0.00    +0.000 A 
ATOM     32 CL   UNL     1      -5.093  11.811  18.014  0.00  0.00    +0.000 Cl
ATOM     33  C   UNL     1      -2.947  12.327  19.566  0.00  0.00    +0.000 A 
ATOM     34  C   UNL     1      -1.635  12.104  19.997  0.00  0.00    +0.000 A 
ENDBRANCH  27  28
ENDBRANCH   7  27
TORSDOF 7
ENDMDL
MODEL 2
REMARK VINA RESULT:      -8.4      1.143      2.141
REMARK  Name = 
REMARK  10 active torsions:
REMARK  status: ('A' for Active; 'I' for Inactive)
REMARK    1  A    between atoms: C_1  and  C_2
REMARK    2  A    between atoms: C_2  and  O_3
REMARK    3  A    between atoms: O_3  and  C_4
REMARK    4  A    between atoms: C_4  and  C_6
REMARK    5  A    between atoms: C_11  and  C_13
REMARK    6  A    between atoms: C_13  and  N_14
REMARK    7  A    between atoms: C_18  and  C_19
REMARK    8  A    between atoms: N_20  and  C_21
REMARK    9  A    between atoms: C_21  and  C_22
REMARK   10  A    between atoms: C_29  and  C_30
REMARK                            x       y       z     vdW  Elec       q    Type
REMARK                         _______ _______ _______ _____ _____    ______ ____
ROOT
ATOM      1  N   UNL     1       2.897   6.191  19.134  0.00  0.00    +0.000 N 
ATOM      2  N   UNL     1       3.351   6.886  17.995  0.00  0.00    +0.000 NA
ATOM      3  C   UNL     1       2.995   8.124  17.812  0.00  0.00    +0.000 A 
ATOM      4  C   UNL     1       2.122   8.777  18.743  0.00  0.00    +0.000 A 
ATOM      5  C   UNL     1       1.619  10.063  18.753  0.00  0.00    +0.000 A 
ATOM      6  C   UNL     1       1.887  11.188  17.815  0.00  0.00    +0.000 C 
ATOM      7  N   UNL     1       0.767  10.144  19.848  0.00  0.00    +0.000 N 
ATOM      8  C   UNL     1       0.799   8.949  20.557  0.00  0.00    +0.000 A 
ATOM      9  C   UNL     1       0.042   8.689  21.816  0.00  0.00    +0.000 C 
ATOM     10  C   UNL     1       1.642   8.091  19.868  0.00  0.00    +0.000 A 
ATOM     11  C   UNL     1       2.049   6.719  20.131  0.00  0.00    +0.000 A 
ATOM     12  O   UNL     1       1.660   6.087  21.111  0.00  0.00    +0.000 OA
ENDROOT
BRANCH   1  13
ATOM     13  C   UNL     1       3.405   4.833  19.281  0.00  0.00    +0.000 C 
BRANCH  13  19
ATOM     14  C   UNL     1       7.105   4.839  16.253  0.00  0.00    +0.000 C 
ATOM     15  C   UNL     1       6.273   4.203  15.129  0.00  0.00    +0.000 C 
ATOM     16  C   UNL     1       4.781   4.165  15.470  0.00  0.00    +0.000 C 
ATOM     17  C   UNL     1       4.522   3.565  16.851  0.00  0.00    +0.000 C 
ATOM     18  N   UNL     1       5.365   4.194  17.870  0.00  0.00    +0.000 N 
ATOM     19  C   UNL     1       4.922   4.751  19.074  0.00  0.00    +0.000 C 
ATOM     20  O   UNL     1       5.721   5.163  19.919  0.00  0.00    +0.000 OA
ATOM     21  C   UNL     1       6.799   4.172  17.590  0.00  0.00    +0.000 C 
BRANCH  14  22
ATOM     22  C   UNL     1       6.899   6.343  16.305  0.00  0.00    +0.000 C 
ATOM     23  O   UNL     1       5.922   6.926  15.854  0.00  0.00    +0.000 OA
BRANCH  22  24
ATOM     24  O   UNL     1       8.026   6.955  16.762  0.00  0.00    +0.000 OA
BRANCH  24  26
ATOM     25  C   UNL     1       8.182   9.032  17.907  0.00  0.00    +0.000 C 
ATOM     26  C   UNL     1       7.904   7.548  18.062  0.00  0.00    +0.000 C 
ENDBRANCH  24  26
ENDBRANCH  22  24
ENDBRANCH  14  22
ENDBRANCH  13  19
ENDBRANCH   1  13
BRANCH   7  27
ATOM     27  C   UNL     1      -0.084  11.303  20.160  0.00  0.00    +0.000 C 
BRANCH  27  28
ATOM     28  C   UNL     1      -1.459  11.283  19.527  0.00  0.00    +0.000 A 
ATOM     29  C   UNL     1      -2.480  12.191  19.850  0.00  0.00    +0.000 A 
ATOM     30  C   UNL     1      -3.691  12.186  19.153  0.00  0.00    +0.000 A 
ATOM     31  C   UNL     1      -3.903  11.263  18.133  0.00  0.00    +0.000 A 
ATOM     32 CL   UNL     1      -5.368  11.303  17.233  0.00  0.00    +0.000 Cl
ATOM     33  C   UNL     1      -2.926  10.321  17.827  0.00  0.00    +0.000 A 
ATOM     34  C   UNL     1      -1.713  10.328  18.523  0.00  0.00    +0.000 A 
ENDBRANCH  27  28
ENDBRANCH   7  27
TORSDOF 7
ENDMDL
MODEL 3
REMARK VINA RESULT:      -8.0      2.974      4.801
REMARK  Name = 
REMARK  10 active torsions:
REMARK  status: ('A' for Active; 'I' for Inactive)
REMARK    1  A    between atoms: C_1  and  C_2
REMARK    2  A    between atoms: C_2  and  O_3
REMARK    3  A    between atoms: O_3  and  C_4
REMARK    4  A    between atoms: C_4  and  C_6
REMARK    5  A    between atoms: C_11  and  C_13
REMARK    6  A    between atoms: C_13  and  N_14
REMARK    7  A    between atoms: C_18  and  C_19
REMARK    8  A    between atoms: N_20  and  C_21
REMARK    9  A    between atoms: C_21  and  C_22
REMARK   10  A    between atoms: C_29  and  C_30
REMARK                            x       y       z     vdW  Elec       q    Type
REMARK                         _______ _______ _______ _____ _____    ______ ____
ROOT
ATOM      1  N   UNL     1       2.296   7.915  19.166  0.00  0.00    +0.000 N 
ATOM      2  N   UNL     1       2.556   8.709  18.032  0.00  0.00    +0.000 NA
ATOM      3  C   UNL     1       2.025   9.892  17.938  0.00  0.00    +0.000 A 
ATOM      4  C   UNL     1       1.153  10.383  18.964  0.00  0.00    +0.000 A 
ATOM      5  C   UNL     1       0.485  11.587  19.077  0.00  0.00    +0.000 A 
ATOM      6  C   UNL     1       0.522  12.774  18.179  0.00  0.00    +0.000 C 
ATOM      7  N   UNL     1      -0.276  11.508  20.238  0.00  0.00    +0.000 N 
ATOM      8  C   UNL     1      -0.026  10.302  20.882  0.00  0.00    +0.000 A 
ATOM      9  C   UNL     1      -0.634   9.893  22.181  0.00  0.00    +0.000 C 
ATOM     10  C   UNL     1       0.863   9.595  20.088  0.00  0.00    +0.000 A 
ATOM     11  C   UNL     1       1.470   8.283  20.251  0.00  0.00    +0.000 A 
ATOM     12  O   UNL     1       1.253   7.566  21.225  0.00  0.00    +0.000 OA
ENDROOT
BRANCH   1  13
ATOM     13  C   UNL     1       2.990   6.634  19.206  0.00  0.00    +0.000 C 
BRANCH  13  19
ATOM     14  C   UNL     1       2.484   2.088  17.814  0.00  0.00    +0.000 C 
ATOM     15  C   UNL     1       3.822   1.675  18.445  0.00  0.00    +0.000 C 
ATOM     16  C   UNL     1       4.407   2.781  19.327  0.00  0.00    +0.000 C 
ATOM     17  C   UNL     1       4.448   4.129  18.608  0.00  0.00    +0.000 C 
ATOM     18  N   UNL     1       3.152   4.450  18.006  0.00  0.00    +0.000 N 
ATOM     19  C   UNL     1       2.434   5.637  18.182  0.00  0.00    +0.000 C 
ATOM     20  O   UNL     1       1.401   5.858  17.548  0.00  0.00    +0.000 OA
ATOM     21  C   UNL     1       2.617   3.431  17.104  0.00  0.00    +0.000 C 
BRANCH  14  22
ATOM     22  C   UNL     1       1.370   2.097  18.846  0.00  0.00    +0.000 C 
ATOM     23  O   UNL     1       0.187   2.285  18.590  0.00  0.00    +0.000 OA
BRANCH  22  24
ATOM     24  O   UNL     1       1.893   2.043  20.102  0.00  0.00    +0.000 OA
BRANCH  24  26
ATOM     25  C   UNL     1       2.130   3.870  21.604  0.00  0.00    +0.000 C 
ATOM     26  C   UNL     1       1.180   2.807  21.084  0.00  0.00    +0.000 C 
ENDBRANCH  24  26
ENDBRANCH  22  24
ENDBRANCH  14  22
ENDBRANCH  13  19
ENDBRANCH   1  13
BRANCH   7  27
ATOM     27  C   UNL     1      -1.245  12.527  20.671  0.00  0.00    +0.000 C 
BRANCH  27  28
ATOM     28  C   UNL     1      -2.647  12.358  20.124  0.00  0.00    +0.000 A 
ATOM     29  C   UNL     1      -3.791  12.903  20.729  0.00  0.00    +0.000 A 
ATOM     30  C   UNL     1      -5.043  12.801  20.116  0.00  0.00    +0.000 A 
ATOM     31  C   UNL     1      -5.170  12.141  18.898  0.00  0.00    +0.000 A 
ATOM     32 CL   UNL     1      -6.699  12.076  18.114  0.00  0.00    +0.000 Cl
ATOM     33  C   UNL     1      -4.059  11.551  18.302  0.00  0.00    +0.000 A 
ATOM     34  C   UNL     1      -2.806  11.655  18.914  0.00  0.00    +0.000 A 
ENDBRANCH  27  28
ENDBRANCH   7  27
TORSDOF 7
ENDMDL
MODEL 4
REMARK VINA RESULT:      -7.9      1.059      1.477
REMARK  Name = 
REMARK  10 active torsions:
REMARK  status: ('A' for Active; 'I' for Inactive)
REMARK    1  A    between atoms: C_1  and  C_2
REMARK    2  A    between atoms: C_2  and  O_3
REMARK    3  A    between atoms: O_3  and  C_4
REMARK    4  A    between atoms: C_4  and  C_6
REMARK    5  A    between atoms: C_11  and  C_13
REMARK    6  A    between atoms: C_13  and  N_14
REMARK    7  A    between atoms: C_18  and  C_19
REMARK    8  A    between atoms: N_20  and  C_21
REMARK    9  A    between atoms: C_21  and  C_22
REMARK   10  A    between atoms: C_29  and  C_30
REMARK                            x       y       z     vdW  Elec       q    Type
REMARK                         _______ _______ _______ _____ _____    ______ ____
ROOT
ATOM      1  N   UNL     1       2.294   6.197  19.368  0.00  0.00    +0.000 N 
ATOM      2  N   UNL     1       1.803   5.866  20.646  0.00  0.00    +0.000 NA
ATOM      3  C   UNL     1       1.203   6.772  21.360  0.00  0.00    +0.000 A 
ATOM      4  C   UNL     1       1.062   8.111  20.870  0.00  0.00    +0.000 A 
ATOM      5  C   UNL     1       0.473   9.221  21.443  0.00  0.00    +0.000 A 
ATOM      6  C   UNL     1      -0.257   9.341  22.736  0.00  0.00    +0.000 C 
ATOM      7  N   UNL     1       0.682  10.277  20.563  0.00  0.00    +0.000 N 
ATOM      8  C   UNL     1       1.325   9.816  19.420  0.00  0.00    +0.000 A 
ATOM      9  C   UNL     1       1.672  10.662  18.242  0.00  0.00    +0.000 C 
ATOM     10  C   UNL     1       1.567   8.464  19.610  0.00  0.00    +0.000 A 
ATOM     11  C   UNL     1       2.209   7.469  18.763  0.00  0.00    +0.000 A 
ATOM     12  O   UNL     1       2.654   7.734  17.648  0.00  0.00    +0.000 OA
ENDROOT
BRANCH   1  13
ATOM     13  C   UNL     1       2.891   5.096  18.622  0.00  0.00    +0.000 C 
BRANCH  13  19
ATOM     14  C   UNL     1       7.202   5.087  16.555  0.00  0.00    +0.000 C 
ATOM     15  C   UNL     1       6.669   4.395  15.291  0.00  0.00    +0.000 C 
ATOM     16  C   UNL     1       5.139   4.335  15.271  0.00  0.00    +0.000 C 
ATOM     17  C   UNL     1       4.569   3.775  16.573  0.00  0.00    +0.000 C 
ATOM     18  N   UNL     1       5.138   4.456  17.738  0.00  0.00    +0.000 N 
ATOM     19  C   UNL     1       4.415   5.042  18.783  0.00  0.00    +0.000 C 
ATOM     20  O   UNL     1       4.985   5.499  19.776  0.00  0.00    +0.000 OA
ATOM     21  C   UNL     1       6.598   4.457  17.806  0.00  0.00    +0.000 C 
BRANCH  14  22
ATOM     22  C   UNL     1       6.968   6.586  16.501  0.00  0.00    +0.000 C 
ATOM     23  O   UNL     1       5.957   7.116  16.059  0.00  0.00    +0.000 OA
BRANCH  22  24
ATOM     24  O   UNL     1       8.105   7.251  16.847  0.00  0.00    +0.000 OA
BRANCH  24  26
ATOM     25  C   UNL     1       8.262   9.333  17.983  0.00  0.00    +0.000 C 
ATOM     26  C   UNL     1       8.086   7.835  18.156  0.00  0.00    +0.000 C 
ENDBRANCH  24  26
ENDBRANCH  22  24
ENDBRANCH  14  22
ENDBRANCH  13  19
ENDBRANCH   1  13
BRANCH   7  27
ATOM     27  C   UNL     1       0.330  11.678  20.841  0.00  0.00    +0.000 C 
BRANCH  27  28
ATOM     28  C   UNL     1      -1.140  12.015  20.701  0.00  0.00    +0.000 A 
ATOM     29  C   UNL     1      -1.898  12.629  21.710  0.00  0.00    +0.000 A 
ATOM     30  C   UNL     1      -3.223  13.010  21.479  0.00  0.00    +0.000 A 
ATOM     31  C   UNL     1      -3.811  12.769  20.241  0.00  0.00    +0.000 A 
ATOM     32 CL   UNL     1      -5.419  13.299  19.938  0.00  0.00    +0.000 Cl
ATOM     33  C   UNL     1      -3.095  12.118  19.241  0.00  0.00    +0.000 A 
ATOM     34  C   UNL     1      -1.768  11.738  19.472  0.00  0.00    +0.000 A 
ENDBRANCH  27  28
ENDBRANCH   7  27
TORSDOF 7
ENDMDL
MODEL 5
REMARK VINA RESULT:      -7.9      2.829      4.792
REMARK  Name = 
REMARK  10 active torsions:
REMARK  status: ('A' for Active; 'I' for Inactive)
REMARK    1  A    between atoms: C_1  and  C_2
REMARK    2  A    between atoms: C_2  and  O_3
REMARK    3  A    between atoms: O_3  and  C_4
REMARK    4  A    between atoms: C_4  and  C_6
REMARK    5  A    between atoms: C_11  and  C_13
REMARK    6  A    between atoms: C_13  and  N_14
REMARK    7  A    between atoms: C_18  and  C_19
REMARK    8  A    between atoms: N_20  and  C_21
REMARK    9  A    between atoms: C_21  and  C_22
REMARK   10  A    between atoms: C_29  and  C_30
REMARK                            x       y       z     vdW  Elec       q    Type
REMARK                         _______ _______ _______ _____ _____    ______ ____
ROOT
ATOM      1  N   UNL     1       1.729   8.340  19.915  0.00  0.00    +0.000 N 
ATOM      2  N   UNL     1       1.790   8.825  18.593  0.00  0.00    +0.000 NA
ATOM      3  C   UNL     1       1.176   9.928  18.283  0.00  0.00    +0.000 A 
ATOM      4  C   UNL     1       0.414  10.640  19.266  0.00  0.00    +0.000 A 
ATOM      5  C   UNL     1      -0.309  11.812  19.168  0.00  0.00    +0.000 A 
ATOM      6  C   UNL     1      -0.464  12.730  18.005  0.00  0.00    +0.000 C 
ATOM      7  N   UNL     1      -0.908  12.012  20.406  0.00  0.00    +0.000 N 
ATOM      8  C   UNL     1      -0.501  11.019  21.290  0.00  0.00    +0.000 A 
ATOM      9  C   UNL     1      -0.909  10.938  22.722  0.00  0.00    +0.000 C 
ATOM     10  C   UNL     1       0.322  10.158  20.580  0.00  0.00    +0.000 A 
ATOM     11  C   UNL     1       1.028   8.949  20.979  0.00  0.00    +0.000 A 
ATOM     12  O   UNL     1       0.984   8.500  22.122  0.00  0.00    +0.000 OA
ENDROOT
BRANCH   1  13
ATOM     13  C   UNL     1       2.503   7.133  20.176  0.00  0.00    +0.000 C 
BRANCH  13  19
ATOM     14  C   UNL     1       3.073   3.093  17.683  0.00  0.00    +0.000 C 
ATOM     15  C   UNL     1       4.264   3.665  16.900  0.00  0.00    +0.000 C 
ATOM     16  C   UNL     1       4.747   4.997  17.480  0.00  0.00    +0.000 C 
ATOM     17  C   UNL     1       3.600   5.987  17.677  0.00  0.00    +0.000 C 
ATOM     18  N   UNL     1       2.487   5.373  18.403  0.00  0.00    +0.000 N 
ATOM     19  C   UNL     1       1.868   5.886  19.548  0.00  0.00    +0.000 C 
ATOM     20  O   UNL     1       0.867   5.350  20.028  0.00  0.00    +0.000 OA
ATOM     21  C   UNL     1       1.969   4.137  17.818  0.00  0.00    +0.000 C 
BRANCH  14  22
ATOM     22  C   UNL     1       3.512   2.549  19.032  0.00  0.00    +0.000 C 
ATOM     23  O   UNL     1       4.647   2.169  19.292  0.00  0.00    +0.000 OA
BRANCH  22  24
ATOM     24  O   UNL     1       2.433   2.381  19.844  0.00  0.00    +0.000 OA
BRANCH  24  26
ATOM     25  C   UNL     1       1.349   2.525  21.954  0.00  0.00    +0.000 C 
ATOM     26  C   UNL     1       2.682   2.627  21.234  0.00  0.00    +0.000 C 
ENDBRANCH  24  26
ENDBRANCH  22  24
ENDBRANCH  14  22
ENDBRANCH  13  19
ENDBRANCH   1  13
BRANCH   7  27
ATOM     27  C   UNL     1      -1.877  13.079  20.704  0.00  0.00    +0.000 C 
BRANCH  27  28
ATOM     28  C   UNL     1      -3.328  12.717  20.467  0.00  0.00    +0.000 A 
ATOM     29  C   UNL     1      -3.818  12.213  19.252  0.00  0.00    +0.000 A 
ATOM     30  C   UNL     1      -5.147  11.799  19.131  0.00  0.00    +0.000 A 
ATOM     31  C   UNL     1      -6.008  11.897  20.220  0.00  0.00    +0.000 A 
ATOM     32 CL   UNL     1      -7.624  11.324  20.088  0.00  0.00    +0.000 Cl
ATOM     33  C   UNL     1      -5.559  12.439  21.421  0.00  0.00    +0.000 A 
ATOM     34  C   UNL     1      -4.228  12.851  21.542  0.00  0.00    +0.000 A 
ENDBRANCH  27  28
ENDBRANCH   7  27
TORSDOF 7
ENDMDL
MODEL 6
REMARK VINA RESULT:      -7.8      1.481      2.322
REMARK  Name = 
REMARK  10 active torsions:
REMARK  status: ('A' for Active; 'I' for Inactive)
REMARK    1  A    between atoms: C_1  and  C_2
REMARK    2  A    between atoms: C_2  and  O_3
REMARK    3  A    between atoms: O_3  and  C_4
REMARK    4  A    between atoms: C_4  and  C_6
REMARK    5  A    between atoms: C_11  and  C_13
REMARK    6  A    between atoms: C_13  and  N_14
REMARK    7  A    between atoms: C_18  and  C_19
REMARK    8  A    between atoms: N_20  and  C_21
REMARK    9  A    between atoms: C_21  and  C_22
REMARK   10  A    between atoms: C_29  and  C_30
REMARK                            x       y       z     vdW  Elec       q    Type
REMARK                         _______ _______ _______ _____ _____    ______ ____
ROOT
ATOM      1  N   UNL     1       2.328   6.834  19.020  0.00  0.00    +0.000 N 
ATOM      2  N   UNL     1       2.706   7.610  17.907  0.00  0.00    +0.000 NA
ATOM      3  C   UNL     1       2.423   8.878  17.879  0.00  0.00    +0.000 A 
ATOM      4  C   UNL     1       1.704   9.489  18.958  0.00  0.00    +0.000 A 
ATOM      5  C   UNL     1       1.299  10.796  19.143  0.00  0.00    +0.000 A 
ATOM      6  C   UNL     1       1.546  11.990  18.289  0.00  0.00    +0.000 C 
ATOM      7  N   UNL     1       0.576  10.820  20.331  0.00  0.00    +0.000 N 
ATOM      8  C   UNL     1       0.597   9.561  20.919  0.00  0.00    +0.000 A 
ATOM      9  C   UNL     1      -0.038   9.225  22.226  0.00  0.00    +0.000 C 
ATOM     10  C   UNL     1       1.297   8.726  20.063  0.00  0.00    +0.000 A 
ATOM     11  C   UNL     1       1.630   7.311  20.151  0.00  0.00    +0.000 A 
ATOM     12  O   UNL     1       1.304   6.610  21.107  0.00  0.00    +0.000 OA
ENDROOT
BRANCH   1  13
ATOM     13  C   UNL     1       2.748   5.439  18.984  0.00  0.00    +0.000 C 
BRANCH  13  19
ATOM     14  C   UNL     1       6.761   4.677  16.498  0.00  0.00    +0.000 C 
ATOM     15  C   UNL     1       6.035   3.804  15.464  0.00  0.00    +0.000 C 
ATOM     16  C   UNL     1       4.513   3.869  15.625  0.00  0.00    +0.000 C 
ATOM     17  C   UNL     1       4.077   3.617  17.067  0.00  0.00    +0.000 C 
ATOM     18  N   UNL     1       4.826   4.457  18.004  0.00  0.00    +0.000 N 
ATOM     19  C   UNL     1       4.275   5.290  18.983  0.00  0.00    +0.000 C 
ATOM     20  O   UNL     1       4.990   5.879  19.797  0.00  0.00    +0.000 OA
ATOM     21  C   UNL     1       6.280   4.350  17.909  0.00  0.00    +0.000 C 
BRANCH  14  22
ATOM     22  C   UNL     1       6.613   6.153  16.173  0.00  0.00    +0.000 C 
ATOM     23  O   UNL     1       5.659   6.642  15.579  0.00  0.00    +0.000 OA
BRANCH  22  24
ATOM     24  O   UNL     1       7.761   6.818  16.476  0.00  0.00    +0.000 OA
BRANCH  24  26
ATOM     25  C   UNL     1       8.280   7.353  18.733  0.00  0.00    +0.000 C 
ATOM     26  C   UNL     1       7.617   7.850  17.461  0.00  0.00    +0.000 C 
ENDBRANCH  24  26
ENDBRANCH  22  24
ENDBRANCH  14  22
ENDBRANCH  13  19
ENDBRANCH   1  13
BRANCH   7  27
ATOM     27  C   UNL     1      -0.151  11.993  20.841  0.00  0.00    +0.000 C 
BRANCH  27  28
ATOM     28  C   UNL     1      -1.575  12.135  20.347  0.00  0.00    +0.000 A 
ATOM     29  C   UNL     1      -2.020  11.659  19.103  0.00  0.00    +0.000 A 
ATOM     30  C   UNL     1      -3.370  11.727  18.751  0.00  0.00    +0.000 A 
ATOM     31  C   UNL     1      -4.292  12.285  19.631  0.00  0.00    +0.000 A 
ATOM     32 CL   UNL     1      -5.962  12.306  19.223  0.00  0.00    +0.000 Cl
ATOM     33  C   UNL     1      -3.868  12.808  20.850  0.00  0.00    +0.000 A 
ATOM     34  C   UNL     1      -2.517  12.737  21.203  0.00  0.00    +0.000 A 
ENDBRANCH  27  28
ENDBRANCH   7  27
TORSDOF 7
ENDMDL
MODEL 7
REMARK VINA RESULT:      -7.7      1.846      2.625
REMARK  Name = 
REMARK  10 active torsions:
REMARK  status: ('A' for Active; 'I' for Inactive)
REMARK    1  A    between atoms: C_1  and  C_2
REMARK    2  A    between atoms: C_2  and  O_3
REMARK    3  A    between atoms: O_3  and  C_4
REMARK    4  A    between atoms: C_4  and  C_6
REMARK    5  A    between atoms: C_11  and  C_13
REMARK    6  A    between atoms: C_13  and  N_14
REMARK    7  A    between atoms: C_18  and  C_19
REMARK    8  A    between atoms: N_20  and  C_21
REMARK    9  A    between atoms: C_21  and  C_22
REMARK   10  A    between atoms: C_29  and  C_30
REMARK                            x       y       z     vdW  Elec       q    Type
REMARK                         _______ _______ _______ _____ _____    ______ ____
ROOT
ATOM      1  N   UNL     1       2.233   8.002  18.924  0.00  0.00    +0.000 N 
ATOM      2  N   UNL     1       1.985   7.338  20.142  0.00  0.00    +0.000 NA
ATOM      3  C   UNL     1       1.314   7.941  21.078  0.00  0.00    +0.000 A 
ATOM      4  C   UNL     1       0.849   9.284  20.894  0.00  0.00    +0.000 A 
ATOM      5  C   UNL     1       0.129  10.110  21.734  0.00  0.00    +0.000 A 
ATOM      6  C   UNL     1      -0.438   9.822  23.081  0.00  0.00    +0.000 C 
ATOM      7  N   UNL     1       0.010  11.331  21.081  0.00  0.00    +0.000 N 
ATOM      8  C   UNL     1       0.581  11.244  19.816  0.00  0.00    +0.000 A 
ATOM      9  C   UNL     1       0.599  12.350  18.816  0.00  0.00    +0.000 C 
ATOM     10  C   UNL     1       1.109   9.968  19.697  0.00  0.00    +0.000 A 
ATOM     11  C   UNL     1       1.821   9.315  18.608  0.00  0.00    +0.000 A 
ATOM     12  O   UNL     1       2.059   9.874  17.540  0.00  0.00    +0.000 OA
ENDROOT
BRANCH   1  13
ATOM     13  C   UNL     1       2.936   7.219  17.916  0.00  0.00    +0.000 C 
BRANCH  13  19
ATOM     14  C   UNL     1       6.742   4.324  17.937  0.00  0.00    +0.000 C 
ATOM     15  C   UNL     1       6.994   4.534  16.436  0.00  0.00    +0.000 C 
ATOM     16  C   UNL     1       6.134   5.662  15.861  0.00  0.00    +0.000 C 
ATOM     17  C   UNL     1       4.659   5.503  16.227  0.00  0.00    +0.000 C 
ATOM     18  N   UNL     1       4.489   5.278  17.664  0.00  0.00    +0.000 N 
ATOM     19  C   UNL     1       3.644   5.997  18.515  0.00  0.00    +0.000 C 
ATOM     20  O   UNL     1       3.489   5.663  19.692  0.00  0.00    +0.000 OA
ATOM     21  C   UNL     1       5.251   4.156  18.211  0.00  0.00    +0.000 C 
BRANCH  14  22
ATOM     22  C   UNL     1       7.351   5.445  18.759  0.00  0.00    +0.000 C 
ATOM     23  O   UNL     1       7.156   5.614  19.956  0.00  0.00    +0.000 OA
BRANCH  22  24
ATOM     24  O   UNL     1       7.995   6.328  17.946  0.00  0.00    +0.000 OA
BRANCH  24  26
ATOM     25  C   UNL     1       7.748   8.668  17.614  0.00  0.00    +0.000 C 
ATOM     26  C   UNL     1       8.285   7.597  18.546  0.00  0.00    +0.000 C 
ENDBRANCH  24  26
ENDBRANCH  22  24
ENDBRANCH  14  22
ENDBRANCH  13  19
ENDBRANCH   1  13
BRANCH   7  27
ATOM     27  C   UNL     1      -0.574  12.543  21.676  0.00  0.00    +0.000 C 
BRANCH  27  28
ATOM     28  C   UNL     1      -2.079  12.661  21.555  0.00  0.00    +0.000 A 
ATOM     29  C   UNL     1      -2.764  12.675  20.329  0.00  0.00    +0.000 A 
ATOM     30  C   UNL     1      -4.160  12.679  20.289  0.00  0.00    +0.000 A 
ATOM     31  C   UNL     1      -4.891  12.683  21.473  0.00  0.00    +0.000 A 
ATOM     32 CL   UNL     1      -6.609  12.620  21.421  0.00  0.00    +0.000 Cl
ATOM     33  C   UNL     1      -4.235  12.718  22.700  0.00  0.00    +0.000 A 
ATOM     34  C   UNL     1      -2.837  12.712  22.740  0.00  0.00    +0.000 A 
ENDBRANCH  27  28
ENDBRANCH   7  27
TORSDOF 7
ENDMDL
MODEL 8
REMARK VINA RESULT:      -7.7      3.155      5.302
REMARK  Name = 
REMARK  10 active torsions:
REMARK  status: ('A' for Active; 'I' for Inactive)
REMARK    1  A    between atoms: C_1  and  C_2
REMARK    2  A    between atoms: C_2  and  O_3
REMARK    3  A    between atoms: O_3  and  C_4
REMARK    4  A    between atoms: C_4  and  C_6
REMARK    5  A    between atoms: C_11  and  C_13
REMARK    6  A    between atoms: C_13  and  N_14
REMARK    7  A    between atoms: C_18  and  C_19
REMARK    8  A    between atoms: N_20  and  C_21
REMARK    9  A    between atoms: C_21  and  C_22
REMARK   10  A    between atoms: C_29  and  C_30
REMARK                            x       y       z     vdW  Elec       q    Type
REMARK                         _______ _______ _______ _____ _____    ______ ____
ROOT
ATOM      1  N   UNL     1       1.770   8.317  19.646  0.00  0.00    +0.000 N 
ATOM      2  N   UNL     1       1.555   8.847  18.359  0.00  0.00    +0.000 NA
ATOM      3  C   UNL     1       0.750   9.857  18.205  0.00  0.00    +0.000 A 
ATOM      4  C   UNL     1       0.058  10.416  19.329  0.00  0.00    +0.000 A 
ATOM      5  C   UNL     1      -0.831  11.470  19.404  0.00  0.00    +0.000 A 
ATOM      6  C   UNL     1      -1.294  12.392  18.330  0.00  0.00    +0.000 C 
ATOM      7  N   UNL     1      -1.250  11.538  20.727  0.00  0.00    +0.000 N 
ATOM      8  C   UNL     1      -0.574  10.589  21.484  0.00  0.00    +0.000 A 
ATOM      9  C   UNL     1      -0.737  10.403  22.955  0.00  0.00    +0.000 C 
ATOM     10  C   UNL     1       0.242   9.884  20.613  0.00  0.00    +0.000 A 
ATOM     11  C   UNL     1       1.166   8.781  20.835  0.00  0.00    +0.000 A 
ATOM     12  O   UNL     1       1.365   8.293  21.946  0.00  0.00    +0.000 OA
ENDROOT
BRANCH   1  13
ATOM     13  C   UNL     1       2.739   7.231  19.722  0.00  0.00    +0.000 C 
BRANCH  13  19
ATOM     14  C   UNL     1       3.518   2.969  17.699  0.00  0.00    +0.000 C 
ATOM     15  C   UNL     1       4.714   3.495  16.891  0.00  0.00    +0.000 C 
ATOM     16  C   UNL     1       5.134   4.899  17.336  0.00  0.00    +0.000 C 
ATOM     17  C   UNL     1       3.950   5.863  17.393  0.00  0.00    +0.000 C 
ATOM     18  N   UNL     1       2.835   5.290  18.151  0.00  0.00    +0.000 N 
ATOM     19  C   UNL     1       2.165   5.901  19.216  0.00  0.00    +0.000 C 
ATOM     20  O   UNL     1       1.167   5.384  19.723  0.00  0.00    +0.000 OA
ATOM     21  C   UNL     1       2.377   3.981  17.689  0.00  0.00    +0.000 C 
BRANCH  14  22
ATOM     22  C   UNL     1       3.933   2.589  19.109  0.00  0.00    +0.000 C 
ATOM     23  O   UNL     1       5.092   2.474  19.486  0.00  0.00    +0.000 OA
BRANCH  22  24
ATOM     24  O   UNL     1       2.841   2.225  19.837  0.00  0.00    +0.000 OA
BRANCH  24  26
ATOM     25  C   UNL     1       1.417   2.623  21.698  0.00  0.00    +0.000 C 
ATOM     26  C   UNL     1       2.849   2.674  21.199  0.00  0.00    +0.000 C 
ENDBRANCH  24  26
ENDBRANCH  22  24
ENDBRANCH  14  22
ENDBRANCH  13  19
ENDBRANCH   1  13
BRANCH   7  27
ATOM     27  C   UNL     1      -2.302  12.440  21.225  0.00  0.00    +0.000 C 
BRANCH  27  28
ATOM     28  C   UNL     1      -1.817  13.577  22.099  0.00  0.00    +0.000 A 
ATOM     29  C   UNL     1      -2.225  13.767  23.429  0.00  0.00    +0.000 A 
ATOM     30  C   UNL     1      -1.660  14.774  24.215  0.00  0.00    +0.000 A 
ATOM     31  C   UNL     1      -0.689  15.614  23.678  0.00  0.00    +0.000 A 
ATOM     32 CL   UNL     1       0.053  16.809  24.667  0.00  0.00    +0.000 Cl
ATOM     33  C   UNL     1      -0.304  15.478  22.347  0.00  0.00    +0.000 A 
ATOM     34  C   UNL     1      -0.869  14.468  21.561  0.00  0.00    +0.000 A 
ENDBRANCH  27  28
ENDBRANCH   7  27
TORSDOF 7
ENDMDL
MODEL 9
REMARK VINA RESULT:      -7.6      2.390      3.735
REMARK  Name = 
REMARK  10 active torsions:
REMARK  status: ('A' for Active; 'I' for Inactive)
REMARK    1  A    between atoms: C_1  and  C_2
REMARK    2  A    between atoms: C_2  and  O_3
REMARK    3  A    between atoms: O_3  and  C_4
REMARK    4  A    between atoms: C_4  and  C_6
REMARK    5  A    between atoms: C_11  and  C_13
REMARK    6  A    between atoms: C_13  and  N_14
REMARK    7  A    between atoms: C_18  and  C_19
REMARK    8  A    between atoms: N_20  and  C_21
REMARK    9  A    between atoms: C_21  and  C_22
REMARK   10  A    between atoms: C_29  and  C_30
REMARK                            x       y       z     vdW  Elec       q    Type
REMARK                         _______ _______ _______ _____ _____    ______ ____
ROOT
ATOM      1  N   UNL     1       1.964   8.292  18.659  0.00  0.00    +0.000 N 
ATOM      2  N   UNL     1       1.854   7.522  19.834  0.00  0.00    +0.000 NA
ATOM      3  C   UNL     1       1.307   8.040  20.894  0.00  0.00    +0.000 A 
ATOM      4  C   UNL     1       0.841   9.395  20.886  0.00  0.00    +0.000 A 
ATOM      5  C   UNL     1       0.237  10.144  21.877  0.00  0.00    +0.000 A 
ATOM      6  C   UNL     1      -0.169   9.738  23.251  0.00  0.00    +0.000 C 
ATOM      7  N   UNL     1       0.057  11.419  21.353  0.00  0.00    +0.000 N 
ATOM      8  C   UNL     1       0.471  11.444  20.027  0.00  0.00    +0.000 A 
ATOM      9  C   UNL     1       0.385  12.636  19.134  0.00  0.00    +0.000 C 
ATOM     10  C   UNL     1       0.965  10.183  19.733  0.00  0.00    +0.000 A 
ATOM     11  C   UNL     1       1.534   9.629  18.513  0.00  0.00    +0.000 A 
ATOM     12  O   UNL     1       1.649  10.281  17.477  0.00  0.00    +0.000 OA
ENDROOT
BRANCH   1  13
ATOM     13  C   UNL     1       2.532   7.601  17.509  0.00  0.00    +0.000 C 
BRANCH  13  19
ATOM     14  C   UNL     1       5.794   4.132  17.075  0.00  0.00    +0.000 C 
ATOM     15  C   UNL     1       4.727   3.029  17.132  0.00  0.00    +0.000 C 
ATOM     16  C   UNL     1       3.309   3.596  17.034  0.00  0.00    +0.000 C 
ATOM     17  C   UNL     1       3.076   4.737  18.023  0.00  0.00    +0.000 C 
ATOM     18  N   UNL     1       4.141   5.738  17.939  0.00  0.00    +0.000 N 
ATOM     19  C   UNL     1       3.963   7.116  17.768  0.00  0.00    +0.000 C 
ATOM     20  O   UNL     1       4.919   7.893  17.816  0.00  0.00    +0.000 OA
ATOM     21  C   UNL     1       5.497   5.219  18.104  0.00  0.00    +0.000 C 
BRANCH  14  22
ATOM     22  C   UNL     1       5.928   4.696  15.672  0.00  0.00    +0.000 C 
ATOM     23  O   UNL     1       5.799   5.879  15.383  0.00  0.00    +0.000 OA
BRANCH  22  24
ATOM     24  O   UNL     1       6.034   3.684  14.768  0.00  0.00    +0.000 OA
BRANCH  24  26
ATOM     25  C   UNL     1       5.678   3.331  12.444  0.00  0.00    +0.000 C 
ATOM     26  C   UNL     1       6.505   4.081  13.473  0.00  0.00    +0.000 C 
ENDBRANCH  24  26
ENDBRANCH  22  24
ENDBRANCH  14  22
ENDBRANCH  13  19
ENDBRANCH   1  13
BRANCH   7  27
ATOM     27  C   UNL     1      -0.437  12.574  22.119  0.00  0.00    +0.000 C 
BRANCH  27  28
ATOM     28  C   UNL     1      -1.942  12.739  22.141  0.00  0.00    +0.000 A 
ATOM     29  C   UNL     1      -2.718  12.967  20.993  0.00  0.00    +0.000 A 
ATOM     30  C   UNL     1      -4.113  13.004  21.067  0.00  0.00    +0.000 A 
ATOM     31  C   UNL     1      -4.750  12.828  22.292  0.00  0.00    +0.000 A 
ATOM     32 CL   UNL     1      -6.468  12.808  22.369  0.00  0.00    +0.000 Cl
ATOM     33  C   UNL     1      -4.001  12.650  23.451  0.00  0.00    +0.000 A 
ATOM     34  C   UNL     1      -2.605  12.611  23.377  0.00  0.00    +0.000 A 
ENDBRANCH  27  28
ENDBRANCH   7  27
TORSDOF 7
ENDMDL
