MODEL 1
REMARK VINA RESULT:      -8.9      0.000      0.000
REMARK  Name = 
REMARK  6 active torsions:
REMARK  status: ('A' for Active; 'I' for Inactive)
REMARK    1  A    between atoms: C_1  and  C_2
REMARK    2  A    between atoms: C_6  and  N_7
REMARK    3  A    between atoms: N_10  and  C_11
REMARK    4  A    between atoms: C_14  and  C_15
REMARK    5  A    between atoms: C_19  and  C_20
REMARK    6  A    between atoms: C_21  and  C_22
REMARK                            x       y       z     vdW  Elec       q    Type
REMARK                         _______ _______ _______ _____ _____    ______ ____
ROOT
ATOM      1  C   UNL     1       2.037   8.072  19.207  0.00  0.00    +0.000 A 
ATOM      2  C   UNL     1       2.412   8.749  18.061  0.00  0.00    +0.000 A 
ATOM      3  S   UNL     1       3.345   7.826  16.994  0.00  0.00    +0.000 S 
ATOM      4  C   UNL     1       3.312   6.448  18.031  0.00  0.00    +0.000 A 
ATOM      5  C   UNL     1       3.935   5.209  17.801  0.00  0.00    +0.000 A 
ATOM      6  C   UNL     1       3.774   4.249  18.776  0.00  0.00    +0.000 A 
ATOM      7  N   UNL     1       3.049   4.430  19.890  0.00  0.00    +0.000 NA
ATOM      8  C   UNL     1       2.422   5.605  20.113  0.00  0.00    +0.000 A 
ATOM      9  N   UNL     1       1.659   5.603  21.269  0.00  0.00    +0.000 N 
ATOM     10  C   UNL     1       2.552   6.690  19.197  0.00  0.00    +0.000 A 
ATOM     11  H   UNL     1       1.562   4.662  21.632  0.00  0.00    +0.000 HD
ATOM     12  H   UNL     1       0.814   6.156  21.220  0.00  0.00    +0.000 HD
ENDROOT
BRANCH   1  16
ATOM     13  C   UNL     1      -0.359  10.151  22.126  0.00  0.00    +0.000 A 
ATOM     14  C   UNL     1      -0.516  10.409  20.764  0.00  0.00    +0.000 A 
ATOM     15  C   UNL     1       0.261   9.727  19.818  0.00  0.00    +0.000 A 
ATOM     16  C   UNL     1       1.232   8.790  20.214  0.00  0.00    +0.000 A 
ATOM     17  C   UNL     1       1.435   8.608  21.588  0.00  0.00    +0.000 A 
ATOM     18  C   UNL     1       0.632   9.262  22.537  0.00  0.00    +0.000 A 
BRANCH  13  22
ATOM     19  N   UNL     1      -2.714  12.267  23.901  0.00  0.00    +0.000 N 
ATOM     20  C   UNL     1      -2.046  11.794  22.783  0.00  0.00    +0.000 C 
ATOM     21  O   UNL     1      -2.220  12.203  21.640  0.00  0.00    +0.000 OA
ATOM     22  N   UNL     1      -1.170  10.769  23.106  0.00  0.00    +0.000 N 
ATOM     23  H   UNL     1      -2.236  12.161  24.783  0.00  0.00    +0.000 HD
ATOM     24  H   UNL     1      -1.480  10.185  23.870  0.00  0.00    +0.000 HD
BRANCH  19  30
ATOM     25  C   UNL     1      -7.593  13.091  23.848  0.00  0.00    +0.000 C 
ATOM     26  C   UNL     1      -6.184  13.609  23.818  0.00  0.00    +0.000 A 
ATOM     27  C   UNL     1      -5.941  14.986  23.799  0.00  0.00    +0.000 A 
ATOM     28  C   UNL     1      -4.634  15.464  23.781  0.00  0.00    +0.000 A 
ATOM     29  C   UNL     1      -3.561  14.573  23.800  0.00  0.00    +0.000 A 
ATOM     30  C   UNL     1      -3.780  13.194  23.845  0.00  0.00    +0.000 A 
ATOM     31  C   UNL     1      -5.097  12.715  23.825  0.00  0.00    +0.000 A 
ENDBRANCH  19  30
ENDBRANCH  13  22
ENDBRANCH   1  16
BRANCH   5  32
ATOM     32  C   UNL     1       4.707   4.965  16.622  0.00  0.00    +0.000 C 
ATOM     33  C   UNL     1       5.337   4.771  15.623  0.00  0.00    +0.000 C 
BRANCH  33  34
ATOM     34  C   UNL     1       6.051   4.540  14.404  0.00  0.00    +0.000 A 
ATOM     35  C   UNL     1       7.225   5.244  14.125  0.00  0.00    +0.000 A 
ATOM     36  C   UNL     1       7.872   5.032  12.910  0.00  0.00    +0.000 A 
ATOM     37  C   UNL     1       7.324   4.119  12.019  0.00  0.00    +0.000 A 
ATOM     38  N   UNL     1       6.197   3.407  12.259  0.00  0.00    +0.000 NA
ATOM     39  C   UNL     1       5.589   3.637  13.451  0.00  0.00    +0.000 A 
ENDBRANCH  33  34
ENDBRANCH   5  32
TORSDOF 5
ENDMDL
MODEL 2
REMARK VINA RESULT:      -8.8      0.670      1.486
REMARK  Name = 
REMARK  6 active torsions:
REMARK  status: ('A' for Active; 'I' for Inactive)
REMARK    1  A    between atoms: C_1  and  C_2
REMARK    2  A    between atoms: C_6  and  N_7
REMARK    3  A    between atoms: N_10  and  C_11
REMARK    4  A    between atoms: C_14  and  C_15
REMARK    5  A    between atoms: C_19  and  C_20
REMARK    6  A    between atoms: C_21  and  C_22
REMARK                            x       y       z     vdW  Elec       q    Type
REMARK                         _______ _______ _______ _____ _____    ______ ____
ROOT
ATOM      1  C   UNL     1       2.011   8.054  19.205  0.00  0.00    +0.000 A 
ATOM      2  C   UNL     1       2.369   8.737  18.058  0.00  0.00    +0.000 A 
ATOM      3  S   UNL     1       3.303   7.826  16.981  0.00  0.00    +0.000 S 
ATOM      4  C   UNL     1       3.293   6.446  18.016  0.00  0.00    +0.000 A 
ATOM      5  C   UNL     1       3.927   5.214  17.779  0.00  0.00    +0.000 A 
ATOM      6  C   UNL     1       3.784   4.250  18.753  0.00  0.00    +0.000 A 
ATOM      7  N   UNL     1       3.066   4.422  19.873  0.00  0.00    +0.000 NA
ATOM      8  C   UNL     1       2.428   5.590  20.104  0.00  0.00    +0.000 A 
ATOM      9  N   UNL     1       1.675   5.578  21.266  0.00  0.00    +0.000 N 
ATOM     10  C   UNL     1       2.541   6.678  19.189  0.00  0.00    +0.000 A 
ATOM     11  H   UNL     1       1.591   4.635  21.628  0.00  0.00    +0.000 HD
ATOM     12  H   UNL     1       0.824   6.122  21.225  0.00  0.00    +0.000 HD
ENDROOT
BRANCH   1  16
ATOM     13  C   UNL     1      -0.383  10.100  22.150  0.00  0.00    +0.000 A 
ATOM     14  C   UNL     1      -0.602  10.306  20.787  0.00  0.00    +0.000 A 
ATOM     15  C   UNL     1       0.175   9.635  19.834  0.00  0.00    +0.000 A 
ATOM     16  C   UNL     1       1.207   8.762  20.220  0.00  0.00    +0.000 A 
ATOM     17  C   UNL     1       1.468   8.635  21.591  0.00  0.00    +0.000 A 
ATOM     18  C   UNL     1       0.667   9.276  22.549  0.00  0.00    +0.000 A 
BRANCH  13  22
ATOM     19  N   UNL     1      -2.631  12.274  23.991  0.00  0.00    +0.000 N 
ATOM     20  C   UNL     1      -1.946  11.836  22.869  0.00  0.00    +0.000 C 
ATOM     21  O   UNL     1      -2.016  12.357  21.762  0.00  0.00    +0.000 OA
ATOM     22  N   UNL     1      -1.189  10.707  23.141  0.00  0.00    +0.000 N 
ATOM     23  H   UNL     1      -2.217  12.046  24.883  0.00  0.00    +0.000 HD
ATOM     24  H   UNL     1      -1.595  10.092  23.831  0.00  0.00    +0.000 HD
BRANCH  19  30
ATOM     25  C   UNL     1      -3.833  16.970  24.988  0.00  0.00    +0.000 C 
ATOM     26  C   UNL     1      -4.203  15.615  24.457  0.00  0.00    +0.000 A 
ATOM     27  C   UNL     1      -5.465  15.400  23.895  0.00  0.00    +0.000 A 
ATOM     28  C   UNL     1      -5.803  14.146  23.394  0.00  0.00    +0.000 A 
ATOM     29  C   UNL     1      -4.878  13.103  23.435  0.00  0.00    +0.000 A 
ATOM     30  C   UNL     1      -3.603  13.301  23.968  0.00  0.00    +0.000 A 
ATOM     31  C   UNL     1      -3.279  14.555  24.505  0.00  0.00    +0.000 A 
ENDBRANCH  19  30
ENDBRANCH  13  22
ENDBRANCH   1  16
BRANCH   5  32
ATOM     32  C   UNL     1       4.692   4.980  16.593  0.00  0.00    +0.000 C 
ATOM     33  C   UNL     1       5.326   4.804  15.593  0.00  0.00    +0.000 C 
BRANCH  33  34
ATOM     34  C   UNL     1       6.055   4.624  14.374  0.00  0.00    +0.000 A 
ATOM     35  C   UNL     1       5.635   3.687  13.428  0.00  0.00    +0.000 A 
ATOM     36  C   UNL     1       6.390   3.501  12.273  0.00  0.00    +0.000 A 
ATOM     37  C   UNL     1       7.538   4.264  12.104  0.00  0.00    +0.000 A 
ATOM     38  N   UNL     1       7.970   5.193  12.990  0.00  0.00    +0.000 NA
ATOM     39  C   UNL     1       7.213   5.349  14.106  0.00  0.00    +0.000 A 
ENDBRANCH  33  34
ENDBRANCH   5  32
TORSDOF 5
ENDMDL
MODEL 3
REMARK VINA RESULT:      -8.5      0.764      1.004
REMARK  Name = 
REMARK  6 active torsions:
REMARK  status: ('A' for Active; 'I' for Inactive)
REMARK    1  A    between atoms: C_1  and  C_2
REMARK    2  A    between atoms: C_6  and  N_7
REMARK    3  A    between atoms: N_10  and  C_11
REMARK    4  A    between atoms: C_14  and  C_15
REMARK    5  A    between atoms: C_19  and  C_20
REMARK    6  A    between atoms: C_21  and  C_22
REMARK                            x       y       z     vdW  Elec       q    Type
REMARK                         _______ _______ _______ _____ _____    ______ ____
ROOT
ATOM      1  C   UNL     1       2.021   8.083  19.142  0.00  0.00    +0.000 A 
ATOM      2  C   UNL     1       2.384   8.742  17.983  0.00  0.00    +0.000 A 
ATOM      3  S   UNL     1       3.326   7.809  16.931  0.00  0.00    +0.000 S 
ATOM      4  C   UNL     1       3.311   6.452  17.996  0.00  0.00    +0.000 A 
ATOM      5  C   UNL     1       3.949   5.216  17.788  0.00  0.00    +0.000 A 
ATOM      6  C   UNL     1       3.802   4.273  18.782  0.00  0.00    +0.000 A 
ATOM      7  N   UNL     1       3.077   4.467  19.894  0.00  0.00    +0.000 NA
ATOM      8  C   UNL     1       2.436   5.639  20.096  0.00  0.00    +0.000 A 
ATOM      9  N   UNL     1       1.676   5.651  21.253  0.00  0.00    +0.000 N 
ATOM     10  C   UNL     1       2.552   6.708  19.159  0.00  0.00    +0.000 A 
ATOM     11  H   UNL     1       1.592   4.716  21.635  0.00  0.00    +0.000 HD
ATOM     12  H   UNL     1       0.825   6.193  21.196  0.00  0.00    +0.000 HD
ENDROOT
BRANCH   1  16
ATOM     13  C   UNL     1      -0.393  10.186  22.030  0.00  0.00    +0.000 A 
ATOM     14  C   UNL     1      -0.630  10.334  20.663  0.00  0.00    +0.000 A 
ATOM     15  C   UNL     1       0.153   9.644  19.728  0.00  0.00    +0.000 A 
ATOM     16  C   UNL     1       1.210   8.811  20.137  0.00  0.00    +0.000 A 
ATOM     17  C   UNL     1       1.488   8.744  21.509  0.00  0.00    +0.000 A 
ATOM     18  C   UNL     1       0.681   9.404  22.450  0.00  0.00    +0.000 A 
BRANCH  13  22
ATOM     19  N   UNL     1      -2.261  12.571  24.028  0.00  0.00    +0.000 N 
ATOM     20  C   UNL     1      -1.474  12.171  22.960  0.00  0.00    +0.000 C 
ATOM     21  O   UNL     1      -1.083  12.913  22.065  0.00  0.00    +0.000 OA
ATOM     22  N   UNL     1      -1.203  10.812  23.005  0.00  0.00    +0.000 N 
ATOM     23  H   UNL     1      -2.189  12.015  24.867  0.00  0.00    +0.000 HD
ATOM     24  H   UNL     1      -1.947  10.255  23.400  0.00  0.00    +0.000 HD
BRANCH  19  30
ATOM     25  C   UNL     1      -6.146  15.563  23.358  0.00  0.00    +0.000 C 
ATOM     26  C   UNL     1      -4.735  15.344  23.822  0.00  0.00    +0.000 A 
ATOM     27  C   UNL     1      -4.021  16.388  24.418  0.00  0.00    +0.000 A 
ATOM     28  C   UNL     1      -2.716  16.181  24.856  0.00  0.00    +0.000 A 
ATOM     29  C   UNL     1      -2.121  14.927  24.719  0.00  0.00    +0.000 A 
ATOM     30  C   UNL     1      -2.824  13.863  24.150  0.00  0.00    +0.000 A 
ATOM     31  C   UNL     1      -4.124  14.085  23.676  0.00  0.00    +0.000 A 
ENDBRANCH  19  30
ENDBRANCH  13  22
ENDBRANCH   1  16
BRANCH   5  32
ATOM     32  C   UNL     1       4.721   4.958  16.612  0.00  0.00    +0.000 C 
ATOM     33  C   UNL     1       5.356   4.759  15.617  0.00  0.00    +0.000 C 
BRANCH  33  34
ATOM     34  C   UNL     1       6.081   4.540  14.402  0.00  0.00    +0.000 A 
ATOM     35  C   UNL     1       7.260   5.242  14.144  0.00  0.00    +0.000 A 
ATOM     36  C   UNL     1       7.920   5.042  12.934  0.00  0.00    +0.000 A 
ATOM     37  C   UNL     1       7.377   4.142  12.026  0.00  0.00    +0.000 A 
ATOM     38  N   UNL     1       6.245   3.431  12.246  0.00  0.00    +0.000 NA
ATOM     39  C   UNL     1       5.625   3.650  13.434  0.00  0.00    +0.000 A 
ENDBRANCH  33  34
ENDBRANCH   5  32
TORSDOF 5
ENDMDL
MODEL 4
REMARK VINA RESULT:      -8.5      2.743     12.992
REMARK  Name = 
REMARK  6 active torsions:
REMARK  status: ('A' for Active; 'I' for Inactive)
REMARK    1  A    between atoms: C_1  and  C_2
REMARK    2  A    between atoms: C_6  and  N_7
REMARK    3  A    between atoms: N_10  and  C_11
REMARK    4  A    between atoms: C_14  and  C_15
REMARK    5  A    between atoms: C_19  and  C_20
REMARK    6  A    between atoms: C_21  and  C_22
REMARK                            x       y       z     vdW  Elec       q    Type
REMARK                         _______ _______ _______ _____ _____    ______ ____
ROOT
ATOM      1  C   UNL     1       0.699   9.573  19.443  0.00  0.00    +0.000 A 
ATOM      2  C   UNL     1      -0.063  10.241  18.503  0.00  0.00    +0.000 A 
ATOM      3  S   UNL     1      -1.223  11.275  19.172  0.00  0.00    +0.000 S 
ATOM      4  C   UNL     1      -0.772  10.868  20.786  0.00  0.00    +0.000 A 
ATOM      5  C   UNL     1      -1.352  11.357  21.969  0.00  0.00    +0.000 A 
ATOM      6  C   UNL     1      -0.828  10.887  23.153  0.00  0.00    +0.000 A 
ATOM      7  N   UNL     1       0.201  10.028  23.225  0.00  0.00    +0.000 NA
ATOM      8  C   UNL     1       0.787   9.569  22.098  0.00  0.00    +0.000 A 
ATOM      9  N   UNL     1       1.876   8.750  22.347  0.00  0.00    +0.000 N 
ATOM     10  C   UNL     1       0.301   9.949  20.812  0.00  0.00    +0.000 A 
ATOM     11  H   UNL     1       2.144   8.799  23.323  0.00  0.00    +0.000 HD
ATOM     12  H   UNL     1       2.623   8.820  21.669  0.00  0.00    +0.000 HD
ENDROOT
BRANCH   1  16
ATOM     13  C   UNL     1       3.680   6.790  18.045  0.00  0.00    +0.000 A 
ATOM     14  C   UNL     1       2.890   6.488  19.155  0.00  0.00    +0.000 A 
ATOM     15  C   UNL     1       1.919   7.393  19.603  0.00  0.00    +0.000 A 
ATOM     16  C   UNL     1       1.733   8.633  18.967  0.00  0.00    +0.000 A 
ATOM     17  C   UNL     1       2.593   8.955  17.910  0.00  0.00    +0.000 A 
ATOM     18  C   UNL     1       3.541   8.034  17.435  0.00  0.00    +0.000 A 
BRANCH  13  22
ATOM     19  N   UNL     1       5.813   4.810  15.876  0.00  0.00    +0.000 N 
ATOM     20  C   UNL     1       4.877   5.791  16.162  0.00  0.00    +0.000 C 
ATOM     21  O   UNL     1       4.354   6.521  15.327  0.00  0.00    +0.000 OA
ATOM     22  N   UNL     1       4.623   5.875  17.523  0.00  0.00    +0.000 N 
ATOM     23  H   UNL     1       5.870   4.044  16.531  0.00  0.00    +0.000 HD
ATOM     24  H   UNL     1       5.420   5.666  18.106  0.00  0.00    +0.000 HD
BRANCH  19  30
ATOM     25  C   UNL     1       5.724   2.434  11.536  0.00  0.00    +0.000 C 
ATOM     26  C   UNL     1       6.344   3.447  12.454  0.00  0.00    +0.000 A 
ATOM     27  C   UNL     1       7.423   4.222  12.019  0.00  0.00    +0.000 A 
ATOM     28  C   UNL     1       7.991   5.168  12.868  0.00  0.00    +0.000 A 
ATOM     29  C   UNL     1       7.475   5.360  14.150  0.00  0.00    +0.000 A 
ATOM     30  C   UNL     1       6.381   4.614  14.596  0.00  0.00    +0.000 A 
ATOM     31  C   UNL     1       5.836   3.638  13.752  0.00  0.00    +0.000 A 
ENDBRANCH  19  30
ENDBRANCH  13  22
ENDBRANCH   1  16
BRANCH   5  32
ATOM     32  C   UNL     1      -2.441  12.285  21.942  0.00  0.00    +0.000 C 
ATOM     33  C   UNL     1      -3.363  13.049  21.935  0.00  0.00    +0.000 C 
BRANCH  33  34
ATOM     34  C   UNL     1      -4.492  13.928  21.941  0.00  0.00    +0.000 A 
ATOM     35  C   UNL     1      -4.613  14.935  20.981  0.00  0.00    +0.000 A 
ATOM     36  C   UNL     1      -5.699  15.804  21.040  0.00  0.00    +0.000 A 
ATOM     37  C   UNL     1      -6.630  15.631  22.056  0.00  0.00    +0.000 A 
ATOM     38  N   UNL     1      -6.557  14.658  22.995  0.00  0.00    +0.000 NA
ATOM     39  C   UNL     1      -5.485  13.828  22.912  0.00  0.00    +0.000 A 
ENDBRANCH  33  34
ENDBRANCH   5  32
TORSDOF 5
ENDMDL
MODEL 5
REMARK VINA RESULT:      -8.4      2.954     13.102
REMARK  Name = 
REMARK  6 active torsions:
REMARK  status: ('A' for Active; 'I' for Inactive)
REMARK    1  A    between atoms: C_1  and  C_2
REMARK    2  A    between atoms: C_6  and  N_7
REMARK    3  A    between atoms: N_10  and  C_11
REMARK    4  A    between atoms: C_14  and  C_15
REMARK    5  A    between atoms: C_19  and  C_20
REMARK    6  A    between atoms: C_21  and  C_22
REMARK                            x       y       z     vdW  Elec       q    Type
REMARK                         _______ _______ _______ _____ _____    ______ ____
ROOT
ATOM      1  C   UNL     1       0.574   9.569  20.347  0.00  0.00    +0.000 A 
ATOM      2  C   UNL     1       0.691   9.850  21.696  0.00  0.00    +0.000 A 
ATOM      3  S   UNL     1      -0.352  11.068  22.234  0.00  0.00    +0.000 S 
ATOM      4  C   UNL     1      -1.020  11.301  20.661  0.00  0.00    +0.000 A 
ATOM      5  C   UNL     1      -2.008  12.233  20.299  0.00  0.00    +0.000 A 
ATOM      6  C   UNL     1      -2.390  12.243  18.975  0.00  0.00    +0.000 A 
ATOM      7  N   UNL     1      -1.892  11.409  18.049  0.00  0.00    +0.000 NA
ATOM      8  C   UNL     1      -0.962  10.490  18.387  0.00  0.00    +0.000 A 
ATOM      9  N   UNL     1      -0.608   9.663  17.333  0.00  0.00    +0.000 N 
ATOM     10  C   UNL     1      -0.456  10.415  19.717  0.00  0.00    +0.000 A 
ATOM     11  H   UNL     1      -1.248   9.778  16.557  0.00  0.00    +0.000 HD
ATOM     12  H   UNL     1      -0.386   8.712  17.597  0.00  0.00    +0.000 HD
ENDROOT
BRANCH   1  16
ATOM     13  C   UNL     1       3.093   6.503  18.660  0.00  0.00    +0.000 A 
ATOM     14  C   UNL     1       2.480   6.317  19.900  0.00  0.00    +0.000 A 
ATOM     15  C   UNL     1       1.657   7.314  20.442  0.00  0.00    +0.000 A 
ATOM     16  C   UNL     1       1.451   8.531  19.770  0.00  0.00    +0.000 A 
ATOM     17  C   UNL     1       2.144   8.734  18.569  0.00  0.00    +0.000 A 
ATOM     18  C   UNL     1       2.938   7.723  18.005  0.00  0.00    +0.000 A 
BRANCH  13  22
ATOM     19  N   UNL     1       5.095   4.529  16.366  0.00  0.00    +0.000 N 
ATOM     20  C   UNL     1       4.388   5.649  16.771  0.00  0.00    +0.000 C 
ATOM     21  O   UNL     1       4.250   6.668  16.102  0.00  0.00    +0.000 OA
ATOM     22  N   UNL     1       3.875   5.495  18.050  0.00  0.00    +0.000 N 
ATOM     23  H   UNL     1       4.821   3.653  16.786  0.00  0.00    +0.000 HD
ATOM     24  H   UNL     1       4.452   4.938  18.663  0.00  0.00    +0.000 HD
BRANCH  19  30
ATOM     25  C   UNL     1       5.589   2.838  11.741  0.00  0.00    +0.000 C 
ATOM     26  C   UNL     1       6.111   3.640  12.898  0.00  0.00    +0.000 A 
ATOM     27  C   UNL     1       7.303   4.361  12.773  0.00  0.00    +0.000 A 
ATOM     28  C   UNL     1       7.782   5.111  13.843  0.00  0.00    +0.000 A 
ATOM     29  C   UNL     1       7.066   5.161  15.040  0.00  0.00    +0.000 A 
ATOM     30  C   UNL     1       5.861   4.469  15.178  0.00  0.00    +0.000 A 
ATOM     31  C   UNL     1       5.401   3.686  14.112  0.00  0.00    +0.000 A 
ENDBRANCH  19  30
ENDBRANCH  13  22
ENDBRANCH   1  16
BRANCH   5  32
ATOM     32  C   UNL     1      -2.578  13.133  21.254  0.00  0.00    +0.000 C 
ATOM     33  C   UNL     1      -3.074  13.875  22.052  0.00  0.00    +0.000 C 
BRANCH  33  34
ATOM     34  C   UNL     1      -3.709  14.753  22.988  0.00  0.00    +0.000 A 
ATOM     35  C   UNL     1      -5.035  15.149  22.801  0.00  0.00    +0.000 A 
ATOM     36  C   UNL     1      -5.611  16.039  23.703  0.00  0.00    +0.000 A 
ATOM     37  C   UNL     1      -4.841  16.499  24.763  0.00  0.00    +0.000 A 
ATOM     38  N   UNL     1      -3.558  16.126  24.986  0.00  0.00    +0.000 NA
ATOM     39  C   UNL     1      -3.024  15.259  24.089  0.00  0.00    +0.000 A 
ENDBRANCH  33  34
ENDBRANCH   5  32
TORSDOF 5
ENDMDL
MODEL 6
REMARK VINA RESULT:      -8.3      2.704     13.021
REMARK  Name = 
REMARK  6 active torsions:
REMARK  status: ('A' for Active; 'I' for Inactive)
REMARK    1  A    between atoms: C_1  and  C_2
REMARK    2  A    between atoms: C_6  and  N_7
REMARK    3  A    between atoms: N_10  and  C_11
REMARK    4  A    between atoms: C_14  and  C_15
REMARK    5  A    between atoms: C_19  and  C_20
REMARK    6  A    between atoms: C_21  and  C_22
REMARK                            x       y       z     vdW  Elec       q    Type
REMARK                         _______ _______ _______ _____ _____    ______ ____
ROOT
ATOM      1  C   UNL     1       0.664   9.646  19.548  0.00  0.00    +0.000 A 
ATOM      2  C   UNL     1      -0.103  10.388  18.668  0.00  0.00    +0.000 A 
ATOM      3  S   UNL     1      -1.239  11.387  19.426  0.00  0.00    +0.000 S 
ATOM      4  C   UNL     1      -0.769  10.862  21.000  0.00  0.00    +0.000 A 
ATOM      5  C   UNL     1      -1.326  11.274  22.224  0.00  0.00    +0.000 A 
ATOM      6  C   UNL     1      -0.791  10.715  23.364  0.00  0.00    +0.000 A 
ATOM      7  N   UNL     1       0.227   9.840  23.359  0.00  0.00    +0.000 NA
ATOM      8  C   UNL     1       0.790   9.454  22.193  0.00  0.00    +0.000 A 
ATOM      9  N   UNL     1       1.871   8.606  22.368  0.00  0.00    +0.000 N 
ATOM     10  C   UNL     1       0.290   9.929  20.945  0.00  0.00    +0.000 A 
ATOM     11  H   UNL     1       2.154   8.582  23.340  0.00  0.00    +0.000 HD
ATOM     12  H   UNL     1       2.609   8.714  21.685  0.00  0.00    +0.000 HD
ENDROOT
BRANCH   1  16
ATOM     13  C   UNL     1       3.663   7.005  17.928  0.00  0.00    +0.000 A 
ATOM     14  C   UNL     1       3.392   8.232  17.321  0.00  0.00    +0.000 A 
ATOM     15  C   UNL     1       2.421   9.090  17.854  0.00  0.00    +0.000 A 
ATOM     16  C   UNL     1       1.678   8.729  18.991  0.00  0.00    +0.000 A 
ATOM     17  C   UNL     1       1.902   7.458  19.535  0.00  0.00    +0.000 A 
ATOM     18  C   UNL     1       2.901   6.612  19.026  0.00  0.00    +0.000 A 
BRANCH  13  22
ATOM     19  N   UNL     1       5.931   5.049  15.879  0.00  0.00    +0.000 N 
ATOM     20  C   UNL     1       4.908   5.956  16.105  0.00  0.00    +0.000 C 
ATOM     21  O   UNL     1       4.293   6.549  15.226  0.00  0.00    +0.000 OA
ATOM     22  N   UNL     1       4.681   6.143  17.460  0.00  0.00    +0.000 N 
ATOM     23  H   UNL     1       6.081   4.359  16.599  0.00  0.00    +0.000 HD
ATOM     24  H   UNL     1       5.509   6.069  18.033  0.00  0.00    +0.000 HD
BRANCH  19  30
ATOM     25  C   UNL     1       5.758   2.503  11.639  0.00  0.00    +0.000 C 
ATOM     26  C   UNL     1       6.406   3.539  12.510  0.00  0.00    +0.000 A 
ATOM     27  C   UNL     1       7.497   4.274  12.037  0.00  0.00    +0.000 A 
ATOM     28  C   UNL     1       8.091   5.241  12.842  0.00  0.00    +0.000 A 
ATOM     29  C   UNL     1       7.590   5.495  14.119  0.00  0.00    +0.000 A 
ATOM     30  C   UNL     1       6.484   4.791  14.603  0.00  0.00    +0.000 A 
ATOM     31  C   UNL     1       5.912   3.792  13.804  0.00  0.00    +0.000 A 
ENDBRANCH  19  30
ENDBRANCH  13  22
ENDBRANCH   1  16
BRANCH   5  32
ATOM     32  C   UNL     1      -2.402  12.215  22.279  0.00  0.00    +0.000 C 
ATOM     33  C   UNL     1      -3.296  13.009  22.345  0.00  0.00    +0.000 C 
BRANCH  33  34
ATOM     34  C   UNL     1      -4.362  13.955  22.472  0.00  0.00    +0.000 A 
ATOM     35  C   UNL     1      -4.177  15.142  23.185  0.00  0.00    +0.000 A 
ATOM     36  C   UNL     1      -5.246  16.022  23.330  0.00  0.00    +0.000 A 
ATOM     37  C   UNL     1      -6.463  15.685  22.752  0.00  0.00    +0.000 A 
ATOM     38  N   UNL     1      -6.677  14.553  22.041  0.00  0.00    +0.000 NA
ATOM     39  C   UNL     1      -5.617  13.715  21.919  0.00  0.00    +0.000 A 
ENDBRANCH  33  34
ENDBRANCH   5  32
TORSDOF 5
ENDMDL
MODEL 7
REMARK VINA RESULT:      -8.3      0.992      1.615
REMARK  Name = 
REMARK  6 active torsions:
REMARK  status: ('A' for Active; 'I' for Inactive)
REMARK    1  A    between atoms: C_1  and  C_2
REMARK    2  A    between atoms: C_6  and  N_7
REMARK    3  A    between atoms: N_10  and  C_11
REMARK    4  A    between atoms: C_14  and  C_15
REMARK    5  A    between atoms: C_19  and  C_20
REMARK    6  A    between atoms: C_21  and  C_22
REMARK                            x       y       z     vdW  Elec       q    Type
REMARK                         _______ _______ _______ _____ _____    ______ ____
ROOT
ATOM      1  C   UNL     1       2.003   8.095  19.198  0.00  0.00    +0.000 A 
ATOM      2  C   UNL     1       2.341   8.773  18.041  0.00  0.00    +0.000 A 
ATOM      3  S   UNL     1       3.286   7.868  16.969  0.00  0.00    +0.000 S 
ATOM      4  C   UNL     1       3.309   6.499  18.019  0.00  0.00    +0.000 A 
ATOM      5  C   UNL     1       3.966   5.278  17.790  0.00  0.00    +0.000 A 
ATOM      6  C   UNL     1       3.848   4.322  18.776  0.00  0.00    +0.000 A 
ATOM      7  N   UNL     1       3.133   4.492  19.899  0.00  0.00    +0.000 NA
ATOM      8  C   UNL     1       2.474   5.650  20.120  0.00  0.00    +0.000 A 
ATOM      9  N   UNL     1       1.728   5.635  21.287  0.00  0.00    +0.000 N 
ATOM     10  C   UNL     1       2.560   6.730  19.194  0.00  0.00    +0.000 A 
ATOM     11  H   UNL     1       1.666   4.695  21.660  0.00  0.00    +0.000 HD
ATOM     12  H   UNL     1       0.867   6.162  21.246  0.00  0.00    +0.000 HD
ENDROOT
BRANCH   1  16
ATOM     13  C   UNL     1      -0.323  10.174  22.174  0.00  0.00    +0.000 A 
ATOM     14  C   UNL     1       0.721   9.329  22.551  0.00  0.00    +0.000 A 
ATOM     15  C   UNL     1       1.478   8.659  21.580  0.00  0.00    +0.000 A 
ATOM     16  C   UNL     1       1.192   8.798  20.211  0.00  0.00    +0.000 A 
ATOM     17  C   UNL     1       0.086   9.582  19.857  0.00  0.00    +0.000 A 
ATOM     18  C   UNL     1      -0.651  10.284  20.825  0.00  0.00    +0.000 A 
BRANCH  13  22
ATOM     19  N   UNL     1      -2.045  12.796  23.999  0.00  0.00    +0.000 N 
ATOM     20  C   UNL     1      -1.330  12.267  22.936  0.00  0.00    +0.000 C 
ATOM     21  O   UNL     1      -0.992  12.896  21.940  0.00  0.00    +0.000 OA
ATOM     22  N   UNL     1      -1.066  10.918  23.119  0.00  0.00    +0.000 N 
ATOM     23  H   UNL     1      -1.924  12.339  24.889  0.00  0.00    +0.000 HD
ATOM     24  H   UNL     1      -1.787  10.420  23.621  0.00  0.00    +0.000 HD
BRANCH  19  30
ATOM     25  C   UNL     1      -5.901  15.765  23.097  0.00  0.00    +0.000 C 
ATOM     26  C   UNL     1      -4.487  15.571  23.564  0.00  0.00    +0.000 A 
ATOM     27  C   UNL     1      -3.753  16.656  24.053  0.00  0.00    +0.000 A 
ATOM     28  C   UNL     1      -2.446  16.473  24.494  0.00  0.00    +0.000 A 
ATOM     29  C   UNL     1      -1.867  15.204  24.467  0.00  0.00    +0.000 A 
ATOM     30  C   UNL     1      -2.591  14.101  24.006  0.00  0.00    +0.000 A 
ATOM     31  C   UNL     1      -3.894  14.296  23.528  0.00  0.00    +0.000 A 
ENDBRANCH  19  30
ENDBRANCH  13  22
ENDBRANCH   1  16
BRANCH   5  32
ATOM     32  C   UNL     1       4.728   5.046  16.602  0.00  0.00    +0.000 C 
ATOM     33  C   UNL     1       5.348   4.856  15.596  0.00  0.00    +0.000 C 
BRANCH  33  34
ATOM     34  C   UNL     1       6.048   4.616  14.371  0.00  0.00    +0.000 A 
ATOM     35  C   UNL     1       5.596   3.646  13.473  0.00  0.00    +0.000 A 
ATOM     36  C   UNL     1       6.324   3.403  12.311  0.00  0.00    +0.000 A 
ATOM     37  C   UNL     1       7.477   4.143  12.086  0.00  0.00    +0.000 A 
ATOM     38  N   UNL     1       7.939   5.102  12.924  0.00  0.00    +0.000 NA
ATOM     39  C   UNL     1       7.209   5.314  14.049  0.00  0.00    +0.000 A 
ENDBRANCH  33  34
ENDBRANCH   5  32
TORSDOF 5
ENDMDL
MODEL 8
REMARK VINA RESULT:      -8.2      3.025     13.114
REMARK  Name = 
REMARK  6 active torsions:
REMARK  status: ('A' for Active; 'I' for Inactive)
REMARK    1  A    between atoms: C_1  and  C_2
REMARK    2  A    between atoms: C_6  and  N_7
REMARK    3  A    between atoms: N_10  and  C_11
REMARK    4  A    between atoms: C_14  and  C_15
REMARK    5  A    between atoms: C_19  and  C_20
REMARK    6  A    between atoms: C_21  and  C_22
REMARK                            x       y       z     vdW  Elec       q    Type
REMARK                         _______ _______ _______ _____ _____    ______ ____
ROOT
ATOM      1  C   UNL     1       0.111  10.101  20.558  0.00  0.00    +0.000 A 
ATOM      2  C   UNL     1       0.349  10.541  21.848  0.00  0.00    +0.000 A 
ATOM      3  S   UNL     1      -0.677  11.789  22.346  0.00  0.00    +0.000 S 
ATOM      4  C   UNL     1      -1.503  11.822  20.832  0.00  0.00    +0.000 A 
ATOM      5  C   UNL     1      -2.552  12.684  20.467  0.00  0.00    +0.000 A 
ATOM      6  C   UNL     1      -3.060  12.531  19.195  0.00  0.00    +0.000 A 
ATOM      7  N   UNL     1      -2.627  11.606  18.325  0.00  0.00    +0.000 NA
ATOM      8  C   UNL     1      -1.638  10.753  18.670  0.00  0.00    +0.000 A 
ATOM      9  N   UNL     1      -1.361   9.817  17.688  0.00  0.00    +0.000 N 
ATOM     10  C   UNL     1      -1.003  10.845  19.943  0.00  0.00    +0.000 A 
ATOM     11  H   UNL     1      -2.078   9.827  16.971  0.00  0.00    +0.000 HD
ATOM     12  H   UNL     1      -1.083   8.909  18.034  0.00  0.00    +0.000 HD
ENDROOT
BRANCH   1  16
ATOM     13  C   UNL     1       2.556   6.916  18.988  0.00  0.00    +0.000 A 
ATOM     14  C   UNL     1       2.107   6.883  20.309  0.00  0.00    +0.000 A 
ATOM     15  C   UNL     1       1.308   7.917  20.814  0.00  0.00    +0.000 A 
ATOM     16  C   UNL     1       0.962   9.023  20.017  0.00  0.00    +0.000 A 
ATOM     17  C   UNL     1       1.494   9.081  18.723  0.00  0.00    +0.000 A 
ATOM     18  C   UNL     1       2.262   8.028  18.202  0.00  0.00    +0.000 A 
BRANCH  13  22
ATOM     19  N   UNL     1       4.665   4.857  16.871  0.00  0.00    +0.000 N 
ATOM     20  C   UNL     1       4.032   6.029  17.254  0.00  0.00    +0.000 C 
ATOM     21  O   UNL     1       4.119   7.097  16.658  0.00  0.00    +0.000 OA
ATOM     22  N   UNL     1       3.307   5.860  18.424  0.00  0.00    +0.000 N 
ATOM     23  H   UNL     1       4.231   3.998  17.172  0.00  0.00    +0.000 HD
ATOM     24  H   UNL     1       3.712   5.198  19.070  0.00  0.00    +0.000 HD
BRANCH  19  30
ATOM     25  C   UNL     1       5.748   3.290  12.303  0.00  0.00    +0.000 C 
ATOM     26  C   UNL     1       6.141   4.009  13.561  0.00  0.00    +0.000 A 
ATOM     27  C   UNL     1       7.386   4.639  13.651  0.00  0.00    +0.000 A 
ATOM     28  C   UNL     1       7.745   5.314  14.815  0.00  0.00    +0.000 A 
ATOM     29  C   UNL     1       6.858   5.379  15.890  0.00  0.00    +0.000 A 
ATOM     30  C   UNL     1       5.600   4.779  15.812  0.00  0.00    +0.000 A 
ATOM     31  C   UNL     1       5.256   4.069  14.654  0.00  0.00    +0.000 A 
ENDBRANCH  19  30
ENDBRANCH  13  22
ENDBRANCH   1  16
BRANCH   5  32
ATOM     32  C   UNL     1      -3.056  13.676  21.366  0.00  0.00    +0.000 C 
ATOM     33  C   UNL     1      -3.468  14.496  22.135  0.00  0.00    +0.000 C 
BRANCH  33  34
ATOM     34  C   UNL     1      -3.961  15.442  23.089  0.00  0.00    +0.000 A 
ATOM     35  C   UNL     1      -3.200  15.781  24.210  0.00  0.00    +0.000 A 
ATOM     36  C   UNL     1      -3.724  16.670  25.144  0.00  0.00    +0.000 A 
ATOM     37  C   UNL     1      -4.991  17.193  24.921  0.00  0.00    +0.000 A 
ATOM     38  N   UNL     1      -5.752  16.902  23.839  0.00  0.00    +0.000 NA
ATOM     39  C   UNL     1      -5.214  16.031  22.948  0.00  0.00    +0.000 A 
ENDBRANCH  33  34
ENDBRANCH   5  32
TORSDOF 5
ENDMDL
MODEL 9
REMARK VINA RESULT:      -8.0      0.975      1.695
REMARK  Name = 
REMARK  6 active torsions:
REMARK  status: ('A' for Active; 'I' for Inactive)
REMARK    1  A    between atoms: C_1  and  C_2
REMARK    2  A    between atoms: C_6  and  N_7
REMARK    3  A    between atoms: N_10  and  C_11
REMARK    4  A    between atoms: C_14  and  C_15
REMARK    5  A    between atoms: C_19  and  C_20
REMARK    6  A    between atoms: C_21  and  C_22
REMARK                            x       y       z     vdW  Elec       q    Type
REMARK                         _______ _______ _______ _____ _____    ______ ____
ROOT
ATOM      1  C   UNL     1       1.709   8.664  19.302  0.00  0.00    +0.000 A 
ATOM      2  C   UNL     1       2.033   9.260  18.098  0.00  0.00    +0.000 A 
ATOM      3  S   UNL     1       2.976   8.288  17.084  0.00  0.00    +0.000 S 
ATOM      4  C   UNL     1       3.016   6.997  18.227  0.00  0.00    +0.000 A 
ATOM      5  C   UNL     1       3.679   5.766  18.080  0.00  0.00    +0.000 A 
ATOM      6  C   UNL     1       3.575   4.881  19.131  0.00  0.00    +0.000 A 
ATOM      7  N   UNL     1       2.868   5.126  20.245  0.00  0.00    +0.000 NA
ATOM      8  C   UNL     1       2.204   6.292  20.391  0.00  0.00    +0.000 A 
ATOM      9  N   UNL     1       1.467   6.356  21.562  0.00  0.00    +0.000 N 
ATOM     10  C   UNL     1       2.274   7.305  19.389  0.00  0.00    +0.000 A 
ATOM     11  H   UNL     1       1.413   5.444  22.001  0.00  0.00    +0.000 HD
ATOM     12  H   UNL     1       0.602   6.874  21.490  0.00  0.00    +0.000 HD
ENDROOT
BRANCH   1  16
ATOM     13  C   UNL     1      -0.627  10.882  22.168  0.00  0.00    +0.000 A 
ATOM     14  C   UNL     1      -0.696   9.489  22.120  0.00  0.00    +0.000 A 
ATOM     15  C   UNL     1       0.069   8.772  21.190  0.00  0.00    +0.000 A 
ATOM     16  C   UNL     1       0.901   9.432  20.269  0.00  0.00    +0.000 A 
ATOM     17  C   UNL     1       0.891  10.833  20.276  0.00  0.00    +0.000 A 
ATOM     18  C   UNL     1       0.155  11.553  21.230  0.00  0.00    +0.000 A 
BRANCH  13  22
ATOM     19  N   UNL     1      -3.023  12.972  23.917  0.00  0.00    +0.000 N 
ATOM     20  C   UNL     1      -2.527  12.269  22.830  0.00  0.00    +0.000 C 
ATOM     21  O   UNL     1      -3.082  12.186  21.740  0.00  0.00    +0.000 OA
ATOM     22  N   UNL     1      -1.332  11.636  23.134  0.00  0.00    +0.000 N 
ATOM     23  H   UNL     1      -2.342  13.297  24.586  0.00  0.00    +0.000 HD
ATOM     24  H   UNL     1      -1.261  11.323  24.091  0.00  0.00    +0.000 HD
BRANCH  19  30
ATOM     25  C   UNL     1      -5.749  17.098  23.729  0.00  0.00    +0.000 C 
ATOM     26  C   UNL     1      -5.653  15.606  23.853  0.00  0.00    +0.000 A 
ATOM     27  C   UNL     1      -6.814  14.830  23.931  0.00  0.00    +0.000 A 
ATOM     28  C   UNL     1      -6.723  13.445  24.036  0.00  0.00    +0.000 A 
ATOM     29  C   UNL     1      -5.474  12.823  24.047  0.00  0.00    +0.000 A 
ATOM     30  C   UNL     1      -4.302  13.576  23.944  0.00  0.00    +0.000 A 
ATOM     31  C   UNL     1      -4.396  14.972  23.876  0.00  0.00    +0.000 A 
ENDBRANCH  19  30
ENDBRANCH  13  22
ENDBRANCH   1  16
BRANCH   5  32
ATOM     32  C   UNL     1       4.433   5.456  16.905  0.00  0.00    +0.000 C 
ATOM     33  C   UNL     1       5.083   5.202  15.932  0.00  0.00    +0.000 C 
BRANCH  33  34
ATOM     34  C   UNL     1       5.892   4.931  14.783  0.00  0.00    +0.000 A 
ATOM     35  C   UNL     1       5.493   3.977  13.844  0.00  0.00    +0.000 A 
ATOM     36  C   UNL     1       6.323   3.701  12.760  0.00  0.00    +0.000 A 
ATOM     37  C   UNL     1       7.522   4.394  12.652  0.00  0.00    +0.000 A 
ATOM     38  N   UNL     1       7.936   5.336  13.533  0.00  0.00    +0.000 NA
ATOM     39  C   UNL     1       7.106   5.581  14.578  0.00  0.00    +0.000 A 
ENDBRANCH  33  34
ENDBRANCH   5  32
TORSDOF 5
ENDMDL
