MODEL 1
REMARK VINA RESULT:      -8.7      0.000      0.000
REMARK  Name = 
REMARK  8 active torsions:
REMARK  status: ('A' for Active; 'I' for Inactive)
REMARK    1  A    between atoms: C_1  and  C_2
REMARK    2  A    between atoms: C_2  and  C_3
REMARK    3  A    between atoms: C_4  and  S_5
REMARK    4  A    between atoms: S_5  and  N_8
REMARK    5  A    between atoms: N_8  and  C_9
REMARK    6  A    between atoms: C_9  and  C_10
REMARK    7  A    between atoms: C_10  and  C_11
REMARK    8  A    between atoms: C_14  and  N_15
REMARK                            x       y       z     vdW  Elec       q    Type
REMARK                         _______ _______ _______ _____ _____    ______ ____
ROOT
ATOM      1  S   UNL     1       2.940   2.949  20.658  0.00  0.00    +0.000 S 
ATOM      2  O   UNL     1       1.752   2.357  20.094  0.00  0.00    +0.000 OA
ATOM      3  O   UNL     1       3.871   2.216  21.507  0.00  0.00    +0.000 OA
ENDROOT
BRANCH   1   5
ATOM      4  C   UNL     1       3.626   3.564  17.911  0.00  0.00    +0.000 A 
ATOM      5  C   UNL     1       3.914   3.457  19.268  0.00  0.00    +0.000 A 
ATOM      6  N   UNL     1       5.215   3.850  19.429  0.00  0.00    +0.000 N 
ATOM      7  C   UNL     1       5.800   4.202  18.249  0.00  0.00    +0.000 A 
ATOM      8  C   UNL     1       7.099   4.658  17.989  0.00  0.00    +0.000 A 
ATOM      9  C   UNL     1       7.444   4.878  16.656  0.00  0.00    +0.000 A 
ATOM     10  C   UNL     1       6.518   4.662  15.640  0.00  0.00    +0.000 A 
ATOM     11 CL   UNL     1       6.976   4.930  14.000  0.00  0.00    +0.000 Cl
ATOM     12  C   UNL     1       5.215   4.232  15.921  0.00  0.00    +0.000 A 
ATOM     13  C   UNL     1       4.836   4.001  17.260  0.00  0.00    +0.000 A 
ATOM     14  H   UNL     1       5.691   3.932  20.321  0.00  0.00    +0.000 HD
BRANCH   4  16
ATOM     15  C   UNL     1       1.241   4.265  17.324  0.00  0.00    +0.000 C 
ATOM     16  C   UNL     1       2.317   3.192  17.276  0.00  0.00    +0.000 C 
ENDBRANCH   4  16
ENDBRANCH   1   5
BRANCH   1  17
ATOM     17  N   UNL     1       2.521   4.393  21.430  0.00  0.00    +0.000 NA
ATOM     18  H   UNL     1       3.288   4.803  21.957  0.00  0.00    +0.000 HD
BRANCH  17  19
ATOM     19  C   UNL     1       1.784   5.344  20.577  0.00  0.00    +0.000 C 
BRANCH  19  20
ATOM     20  C   UNL     1       2.716   6.403  19.972  0.00  0.00    +0.000 C 
BRANCH  20  21
ATOM     21  C   UNL     1       2.033   7.684  19.631  0.00  0.00    +0.000 A 
ATOM     22  C   UNL     1       2.072   8.185  18.327  0.00  0.00    +0.000 A 
ATOM     23  C   UNL     1       1.473   9.389  18.015  0.00  0.00    +0.000 A 
ATOM     24  C   UNL     1       0.805  10.143  18.975  0.00  0.00    +0.000 A 
ATOM     25  C   UNL     1       0.731   9.618  20.271  0.00  0.00    +0.000 A 
ATOM     26  C   UNL     1       1.327   8.399  20.600  0.00  0.00    +0.000 A 
BRANCH  24  27
ATOM     27  N   UNL     1       0.231  11.353  18.663  0.00  0.00    +0.000 N 
ATOM     28  C   UNL     1       0.979  12.615  18.709  0.00  0.00    +0.000 C 
ATOM     29  C   UNL     1       0.367  13.579  19.732  0.00  0.00    +0.000 C 
ATOM     30  O   UNL     1      -1.039  13.765  19.507  0.00  0.00    +0.000 OA
ATOM     31  C   UNL     1      -1.727  12.509  19.621  0.00  0.00    +0.000 C 
ATOM     32  C   UNL     1      -1.231  11.486  18.585  0.00  0.00    +0.000 C 
ENDBRANCH  24  27
ENDBRANCH  20  21
ENDBRANCH  19  20
ENDBRANCH  17  19
ENDBRANCH   1  17
TORSDOF 7
ENDMDL
MODEL 2
REMARK VINA RESULT:      -8.5      6.145      7.348
REMARK  Name = 
REMARK  8 active torsions:
REMARK  status: ('A' for Active; 'I' for Inactive)
REMARK    1  A    between atoms: C_1  and  C_2
REMARK    2  A    between atoms: C_2  and  C_3
REMARK    3  A    between atoms: C_4  and  S_5
REMARK    4  A    between atoms: S_5  and  N_8
REMARK    5  A    between atoms: N_8  and  C_9
REMARK    6  A    between atoms: C_9  and  C_10
REMARK    7  A    between atoms: C_10  and  C_11
REMARK    8  A    between atoms: C_14  and  N_15
REMARK                            x       y       z     vdW  Elec       q    Type
REMARK                         _______ _______ _______ _____ _____    ______ ____
ROOT
ATOM      1  S   UNL     1       6.179   5.814  15.823  0.00  0.00    +0.000 S 
ATOM      2  O   UNL     1       6.651   4.773  14.943  0.00  0.00    +0.000 OA
ATOM      3  O   UNL     1       5.460   6.991  15.353  0.00  0.00    +0.000 OA
ENDROOT
BRANCH   1   5
ATOM      4  C   UNL     1       4.203   5.503  17.919  0.00  0.00    +0.000 A 
ATOM      5  C   UNL     1       5.047   5.015  16.926  0.00  0.00    +0.000 A 
ATOM      6  N   UNL     1       4.872   3.658  16.890  0.00  0.00    +0.000 N 
ATOM      7  C   UNL     1       3.964   3.227  17.812  0.00  0.00    +0.000 A 
ATOM      8  C   UNL     1       3.508   1.932  18.088  0.00  0.00    +0.000 A 
ATOM      9  C   UNL     1       2.615   1.782  19.149  0.00  0.00    +0.000 A 
ATOM     10  C   UNL     1       2.194   2.888  19.882  0.00  0.00    +0.000 A 
ATOM     11 CL   UNL     1       1.100   2.672  21.196  0.00  0.00    +0.000 Cl
ATOM     12  C   UNL     1       2.641   4.179  19.574  0.00  0.00    +0.000 A 
ATOM     13  C   UNL     1       3.545   4.363  18.506  0.00  0.00    +0.000 A 
ATOM     14  H   UNL     1       5.314   3.033  16.225  0.00  0.00    +0.000 HD
BRANCH   4  16
ATOM     15  C   UNL     1       2.898   7.695  17.784  0.00  0.00    +0.000 C 
ATOM     16  C   UNL     1       4.101   6.943  18.332  0.00  0.00    +0.000 C 
ENDBRANCH   4  16
ENDBRANCH   1   5
BRANCH   1  17
ATOM     17  N   UNL     1       7.453   6.315  16.815  0.00  0.00    +0.000 NA
ATOM     18  H   UNL     1       8.360   5.974  16.506  0.00  0.00    +0.000 HD
BRANCH  17  19
ATOM     19  C   UNL     1       7.421   7.747  17.164  0.00  0.00    +0.000 C 
BRANCH  19  20
ATOM     20  C   UNL     1       8.341   8.063  18.352  0.00  0.00    +0.000 C 
BRANCH  20  21
ATOM     21  C   UNL     1       8.636   9.515  18.518  0.00  0.00    +0.000 A 
ATOM     22  C   UNL     1       8.213  10.440  17.561  0.00  0.00    +0.000 A 
ATOM     23  C   UNL     1       8.516  11.780  17.692  0.00  0.00    +0.000 A 
ATOM     24  C   UNL     1       9.242  12.263  18.777  0.00  0.00    +0.000 A 
ATOM     25  C   UNL     1       9.627  11.339  19.756  0.00  0.00    +0.000 A 
ATOM     26  C   UNL     1       9.323   9.981  19.640  0.00  0.00    +0.000 A 
BRANCH  24  27
ATOM     27  N   UNL     1       9.561  13.596  18.890  0.00  0.00    +0.000 N 
ATOM     28  C   UNL     1       8.543  14.636  19.069  0.00  0.00    +0.000 C 
ATOM     29  C   UNL     1       8.561  15.630  17.901  0.00  0.00    +0.000 C 
ATOM     30  O   UNL     1       9.877  16.161  17.680  0.00  0.00    +0.000 OA
ATOM     31  C   UNL     1      10.791  15.097  17.367  0.00  0.00    +0.000 C 
ATOM     32  C   UNL     1      10.898  14.075  18.512  0.00  0.00    +0.000 C 
ENDBRANCH  24  27
ENDBRANCH  20  21
ENDBRANCH  19  20
ENDBRANCH  17  19
ENDBRANCH   1  17
TORSDOF 7
ENDMDL
MODEL 3
REMARK VINA RESULT:      -8.4      6.805      7.878
REMARK  Name = 
REMARK  8 active torsions:
REMARK  status: ('A' for Active; 'I' for Inactive)
REMARK    1  A    between atoms: C_1  and  C_2
REMARK    2  A    between atoms: C_2  and  C_3
REMARK    3  A    between atoms: C_4  and  S_5
REMARK    4  A    between atoms: S_5  and  N_8
REMARK    5  A    between atoms: N_8  and  C_9
REMARK    6  A    between atoms: C_9  and  C_10
REMARK    7  A    between atoms: C_10  and  C_11
REMARK    8  A    between atoms: C_14  and  N_15
REMARK                            x       y       z     vdW  Elec       q    Type
REMARK                         _______ _______ _______ _____ _____    ______ ____
ROOT
ATOM      1  S   UNL     1       7.009   6.560  17.619  0.00  0.00    +0.000 S 
ATOM      2  O   UNL     1       5.746   7.106  18.048  0.00  0.00    +0.000 OA
ATOM      3  O   UNL     1       7.786   5.619  18.416  0.00  0.00    +0.000 OA
ENDROOT
BRANCH   1   5
ATOM      4  C   UNL     1       5.549   4.942  15.709  0.00  0.00    +0.000 A 
ATOM      5  C   UNL     1       6.653   5.682  16.122  0.00  0.00    +0.000 A 
ATOM      6  N   UNL     1       7.554   5.656  15.092  0.00  0.00    +0.000 N 
ATOM      7  C   UNL     1       7.105   4.931  14.028  0.00  0.00    +0.000 A 
ATOM      8  C   UNL     1       7.716   4.669  12.795  0.00  0.00    +0.000 A 
ATOM      9  C   UNL     1       7.041   3.827  11.913  0.00  0.00    +0.000 A 
ATOM     10  C   UNL     1       5.803   3.289  12.255  0.00  0.00    +0.000 A 
ATOM     11 CL   UNL     1       4.996   2.241  11.150  0.00  0.00    +0.000 Cl
ATOM     12  C   UNL     1       5.195   3.584  13.481  0.00  0.00    +0.000 A 
ATOM     13  C   UNL     1       5.854   4.434  14.395  0.00  0.00    +0.000 A 
ATOM     14  H   UNL     1       8.435   6.158  15.078  0.00  0.00    +0.000 HD
BRANCH   4  16
ATOM     15  C   UNL     1       4.352   3.357  17.316  0.00  0.00    +0.000 C 
ATOM     16  C   UNL     1       4.333   4.669  16.547  0.00  0.00    +0.000 C 
ENDBRANCH   4  16
ENDBRANCH   1   5
BRANCH   1  17
ATOM     17  N   UNL     1       8.019   7.827  17.135  0.00  0.00    +0.000 NA
ATOM     18  H   UNL     1       8.044   7.956  16.126  0.00  0.00    +0.000 HD
BRANCH  17  19
ATOM     19  C   UNL     1       7.846   9.069  17.911  0.00  0.00    +0.000 C 
BRANCH  19  20
ATOM     20  C   UNL     1       9.039   9.328  18.841  0.00  0.00    +0.000 C 
BRANCH  20  21
ATOM     21  C   UNL     1       9.515  10.741  18.833  0.00  0.00    +0.000 A 
ATOM     22  C   UNL     1       9.254  11.585  19.916  0.00  0.00    +0.000 A 
ATOM     23  C   UNL     1       9.661  12.903  19.898  0.00  0.00    +0.000 A 
ATOM     24  C   UNL     1      10.348  13.441  18.813  0.00  0.00    +0.000 A 
ATOM     25  C   UNL     1      10.646  12.581  17.749  0.00  0.00    +0.000 A 
ATOM     26  C   UNL     1      10.246  11.244  17.756  0.00  0.00    +0.000 A 
BRANCH  24  27
ATOM     27  N   UNL     1      10.730  14.762  18.791  0.00  0.00    +0.000 N 
ATOM     28  C   UNL     1       9.820  15.850  19.167  0.00  0.00    +0.000 C 
ATOM     29  C   UNL     1       9.589  16.805  17.990  0.00  0.00    +0.000 C 
ATOM     30  O   UNL     1      10.829  17.272  17.437  0.00  0.00    +0.000 OA
ATOM     31  C   UNL     1      11.605  16.161  16.957  0.00  0.00    +0.000 C 
ATOM     32  C   UNL     1      11.951  15.173  18.084  0.00  0.00    +0.000 C 
ENDBRANCH  24  27
ENDBRANCH  20  21
ENDBRANCH  19  20
ENDBRANCH  17  19
ENDBRANCH   1  17
TORSDOF 7
ENDMDL
MODEL 4
REMARK VINA RESULT:      -8.2      5.866      7.128
REMARK  Name = 
REMARK  8 active torsions:
REMARK  status: ('A' for Active; 'I' for Inactive)
REMARK    1  A    between atoms: C_1  and  C_2
REMARK    2  A    between atoms: C_2  and  C_3
REMARK    3  A    between atoms: C_4  and  S_5
REMARK    4  A    between atoms: S_5  and  N_8
REMARK    5  A    between atoms: N_8  and  C_9
REMARK    6  A    between atoms: C_9  and  C_10
REMARK    7  A    between atoms: C_10  and  C_11
REMARK    8  A    between atoms: C_14  and  N_15
REMARK                            x       y       z     vdW  Elec       q    Type
REMARK                         _______ _______ _______ _____ _____    ______ ____
ROOT
ATOM      1  S   UNL     1       7.661   5.243  17.937  0.00  0.00    +0.000 S 
ATOM      2  O   UNL     1       8.066   5.692  19.246  0.00  0.00    +0.000 OA
ATOM      3  O   UNL     1       8.396   4.242  17.174  0.00  0.00    +0.000 OA
ENDROOT
BRANCH   1   5
ATOM      4  C   UNL     1       4.933   4.464  17.343  0.00  0.00    +0.000 A 
ATOM      5  C   UNL     1       6.054   4.532  18.165  0.00  0.00    +0.000 A 
ATOM      6  N   UNL     1       5.729   3.890  19.330  0.00  0.00    +0.000 N 
ATOM      7  C   UNL     1       4.452   3.413  19.320  0.00  0.00    +0.000 A 
ATOM      8  C   UNL     1       3.748   2.704  20.303  0.00  0.00    +0.000 A 
ATOM      9  C   UNL     1       2.413   2.401  20.040  0.00  0.00    +0.000 A 
ATOM     10  C   UNL     1       1.824   2.782  18.837  0.00  0.00    +0.000 A 
ATOM     11 CL   UNL     1       0.168   2.405  18.543  0.00  0.00    +0.000 Cl
ATOM     12  C   UNL     1       2.552   3.466  17.855  0.00  0.00    +0.000 A 
ATOM     13  C   UNL     1       3.904   3.787  18.092  0.00  0.00    +0.000 A 
ATOM     14  H   UNL     1       6.367   3.729  20.101  0.00  0.00    +0.000 HD
BRANCH   4  16
ATOM     15  C   UNL     1       5.501   4.301  14.858  0.00  0.00    +0.000 C 
ATOM     16  C   UNL     1       4.828   5.080  15.977  0.00  0.00    +0.000 C 
ENDBRANCH   4  16
ENDBRANCH   1   5
BRANCH   1  17
ATOM     17  N   UNL     1       7.391   6.590  16.953  0.00  0.00    +0.000 NA
ATOM     18  H   UNL     1       6.679   6.432  16.244  0.00  0.00    +0.000 HD
BRANCH  17  19
ATOM     19  C   UNL     1       7.254   7.860  17.689  0.00  0.00    +0.000 C 
BRANCH  19  20
ATOM     20  C   UNL     1       8.560   8.248  18.398  0.00  0.00    +0.000 C 
BRANCH  20  21
ATOM     21  C   UNL     1       8.762   9.720  18.527  0.00  0.00    +0.000 A 
ATOM     22  C   UNL     1       9.446  10.249  19.625  0.00  0.00    +0.000 A 
ATOM     23  C   UNL     1       9.604  11.612  19.768  0.00  0.00    +0.000 A 
ATOM     24  C   UNL     1       9.100  12.509  18.829  0.00  0.00    +0.000 A 
ATOM     25  C   UNL     1       8.453  11.973  17.709  0.00  0.00    +0.000 A 
ATOM     26  C   UNL     1       8.291  10.596  17.548  0.00  0.00    +0.000 A 
BRANCH  24  27
ATOM     27  N   UNL     1       9.240  13.868  18.990  0.00  0.00    +0.000 N 
ATOM     28  C   UNL     1       8.090  14.764  19.149  0.00  0.00    +0.000 C 
ATOM     29  C   UNL     1       8.029  15.787  18.009  0.00  0.00    +0.000 C 
ATOM     30  O   UNL     1       9.273  16.488  17.862  0.00  0.00    +0.000 OA
ATOM     31  C   UNL     1      10.329  15.560  17.563  0.00  0.00    +0.000 C 
ATOM     32  C   UNL     1      10.519  14.525  18.686  0.00  0.00    +0.000 C 
ENDBRANCH  24  27
ENDBRANCH  20  21
ENDBRANCH  19  20
ENDBRANCH  17  19
ENDBRANCH   1  17
TORSDOF 7
ENDMDL
MODEL 5
REMARK VINA RESULT:      -8.2      6.660      7.646
REMARK  Name = 
REMARK  8 active torsions:
REMARK  status: ('A' for Active; 'I' for Inactive)
REMARK    1  A    between atoms: C_1  and  C_2
REMARK    2  A    between atoms: C_2  and  C_3
REMARK    3  A    between atoms: C_4  and  S_5
REMARK    4  A    between atoms: S_5  and  N_8
REMARK    5  A    between atoms: N_8  and  C_9
REMARK    6  A    between atoms: C_9  and  C_10
REMARK    7  A    between atoms: C_10  and  C_11
REMARK    8  A    between atoms: C_14  and  N_15
REMARK                            x       y       z     vdW  Elec       q    Type
REMARK                         _______ _______ _______ _____ _____    ______ ____
ROOT
ATOM      1  S   UNL     1       6.644   6.246  17.893  0.00  0.00    +0.000 S 
ATOM      2  O   UNL     1       5.550   7.173  18.039  0.00  0.00    +0.000 OA
ATOM      3  O   UNL     1       6.886   5.143  18.815  0.00  0.00    +0.000 OA
ENDROOT
BRANCH   1   5
ATOM      4  C   UNL     1       5.342   4.692  15.822  0.00  0.00    +0.000 A 
ATOM      5  C   UNL     1       6.386   5.463  16.325  0.00  0.00    +0.000 A 
ATOM      6  N   UNL     1       7.317   5.567  15.327  0.00  0.00    +0.000 N 
ATOM      7  C   UNL     1       6.943   4.898  14.198  0.00  0.00    +0.000 A 
ATOM      8  C   UNL     1       7.606   4.765  12.971  0.00  0.00    +0.000 A 
ATOM      9  C   UNL     1       7.008   3.953  12.007  0.00  0.00    +0.000 A 
ATOM     10  C   UNL     1       5.796   3.321  12.267  0.00  0.00    +0.000 A 
ATOM     11 CL   UNL     1       5.086   2.313  11.063  0.00  0.00    +0.000 Cl
ATOM     12  C   UNL     1       5.136   3.487  13.491  0.00  0.00    +0.000 A 
ATOM     13  C   UNL     1       5.715   4.303  14.486  0.00  0.00    +0.000 A 
ATOM     14  H   UNL     1       8.166   6.119  15.380  0.00  0.00    +0.000 HD
BRANCH   4  16
ATOM     15  C   UNL     1       4.295   3.081  17.505  0.00  0.00    +0.000 C 
ATOM     16  C   UNL     1       4.120   4.287  16.596  0.00  0.00    +0.000 C 
ENDBRANCH   4  16
ENDBRANCH   1   5
BRANCH   1  17
ATOM     17  N   UNL     1       8.080   7.117  17.698  0.00  0.00    +0.000 NA
ATOM     18  H   UNL     1       8.641   6.795  16.913  0.00  0.00    +0.000 HD
BRANCH  17  19
ATOM     19  C   UNL     1       7.914   8.581  17.777  0.00  0.00    +0.000 C 
BRANCH  19  20
ATOM     20  C   UNL     1       8.832   9.199  18.840  0.00  0.00    +0.000 C 
BRANCH  20  21
ATOM     21  C   UNL     1       9.189  10.623  18.577  0.00  0.00    +0.000 A 
ATOM     22  C   UNL     1       8.347  11.436  17.813  0.00  0.00    +0.000 A 
ATOM     23  C   UNL     1       8.690  12.744  17.536  0.00  0.00    +0.000 A 
ATOM     24  C   UNL     1       9.875  13.305  18.008  0.00  0.00    +0.000 A 
ATOM     25  C   UNL     1      10.694  12.499  18.808  0.00  0.00    +0.000 A 
ATOM     26  C   UNL     1      10.357  11.177  19.102  0.00  0.00    +0.000 A 
BRANCH  24  27
ATOM     27  N   UNL     1      10.222  14.601  17.708  0.00  0.00    +0.000 N 
ATOM     28  C   UNL     1      11.502  14.947  17.079  0.00  0.00    +0.000 C 
ATOM     29  C   UNL     1      12.332  15.860  17.989  0.00  0.00    +0.000 C 
ATOM     30  O   UNL     1      11.581  17.009  18.411  0.00  0.00    +0.000 OA
ATOM     31  C   UNL     1      10.418  16.596  19.146  0.00  0.00    +0.000 C 
ATOM     32  C   UNL     1       9.478  15.725  18.293  0.00  0.00    +0.000 C 
ENDBRANCH  24  27
ENDBRANCH  20  21
ENDBRANCH  19  20
ENDBRANCH  17  19
ENDBRANCH   1  17
TORSDOF 7
ENDMDL
MODEL 6
REMARK VINA RESULT:      -8.0      1.626      2.751
REMARK  Name = 
REMARK  8 active torsions:
REMARK  status: ('A' for Active; 'I' for Inactive)
REMARK    1  A    between atoms: C_1  and  C_2
REMARK    2  A    between atoms: C_2  and  C_3
REMARK    3  A    between atoms: C_4  and  S_5
REMARK    4  A    between atoms: S_5  and  N_8
REMARK    5  A    between atoms: N_8  and  C_9
REMARK    6  A    between atoms: C_9  and  C_10
REMARK    7  A    between atoms: C_10  and  C_11
REMARK    8  A    between atoms: C_14  and  N_15
REMARK                            x       y       z     vdW  Elec       q    Type
REMARK                         _______ _______ _______ _____ _____    ______ ____
ROOT
ATOM      1  S   UNL     1       4.235   3.550  19.278  0.00  0.00    +0.000 S 
ATOM      2  O   UNL     1       3.013   2.927  18.832  0.00  0.00    +0.000 OA
ATOM      3  O   UNL     1       5.207   2.881  20.134  0.00  0.00    +0.000 OA
ENDROOT
BRANCH   1   5
ATOM      4  C   UNL     1       6.302   4.645  17.567  0.00  0.00    +0.000 A 
ATOM      5  C   UNL     1       5.134   3.925  17.798  0.00  0.00    +0.000 A 
ATOM      6  N   UNL     1       4.703   3.469  16.581  0.00  0.00    +0.000 N 
ATOM      7  C   UNL     1       5.521   3.860  15.562  0.00  0.00    +0.000 A 
ATOM      8  C   UNL     1       5.433   3.601  14.188  0.00  0.00    +0.000 A 
ATOM      9  C   UNL     1       6.388   4.195  13.363  0.00  0.00    +0.000 A 
ATOM     10  C   UNL     1       7.389   4.997  13.903  0.00  0.00    +0.000 A 
ATOM     11 CL   UNL     1       8.549   5.729  12.859  0.00  0.00    +0.000 Cl
ATOM     12  C   UNL     1       7.477   5.222  15.283  0.00  0.00    +0.000 A 
ATOM     13  C   UNL     1       6.525   4.635  16.142  0.00  0.00    +0.000 A 
ATOM     14  H   UNL     1       3.902   2.864  16.438  0.00  0.00    +0.000 HD
BRANCH   4  16
ATOM     15  C   UNL     1       7.643   6.721  18.214  0.00  0.00    +0.000 C 
ATOM     16  C   UNL     1       7.095   5.362  18.621  0.00  0.00    +0.000 C 
ENDBRANCH   4  16
ENDBRANCH   1   5
BRANCH   1  17
ATOM     17  N   UNL     1       3.870   5.060  19.944  0.00  0.00    +0.000 NA
ATOM     18  H   UNL     1       4.644   5.718  19.893  0.00  0.00    +0.000 HD
BRANCH  17  19
ATOM     19  C   UNL     1       2.568   5.608  19.522  0.00  0.00    +0.000 C 
BRANCH  19  20
ATOM     20  C   UNL     1       2.734   6.751  18.510  0.00  0.00    +0.000 C 
BRANCH  20  21
ATOM     21  C   UNL     1       2.088   8.028  18.929  0.00  0.00    +0.000 A 
ATOM     22  C   UNL     1       1.668   8.212  20.249  0.00  0.00    +0.000 A 
ATOM     23  C   UNL     1       1.037   9.378  20.633  0.00  0.00    +0.000 A 
ATOM     24  C   UNL     1       0.800  10.412  19.732  0.00  0.00    +0.000 A 
ATOM     25  C   UNL     1       1.261  10.241  18.420  0.00  0.00    +0.000 A 
ATOM     26  C   UNL     1       1.906   9.070  18.019  0.00  0.00    +0.000 A 
BRANCH  24  27
ATOM     27  N   UNL     1       0.149  11.561  20.115  0.00  0.00    +0.000 N 
ATOM     28  C   UNL     1       0.744  12.893  19.957  0.00  0.00    +0.000 C 
ATOM     29  C   UNL     1       0.919  13.582  21.315  0.00  0.00    +0.000 C 
ATOM     30  O   UNL     1      -0.308  13.597  22.061  0.00  0.00    +0.000 OA
ATOM     31  C   UNL     1      -0.754  12.253  22.304  0.00  0.00    +0.000 C 
ATOM     32  C   UNL     1      -1.026  11.492  20.995  0.00  0.00    +0.000 C 
ENDBRANCH  24  27
ENDBRANCH  20  21
ENDBRANCH  19  20
ENDBRANCH  17  19
ENDBRANCH   1  17
TORSDOF 7
ENDMDL
MODEL 7
REMARK VINA RESULT:      -7.9      1.557      2.573
REMARK  Name = 
REMARK  8 active torsions:
REMARK  status: ('A' for Active; 'I' for Inactive)
REMARK    1  A    between atoms: C_1  and  C_2
REMARK    2  A    between atoms: C_2  and  C_3
REMARK    3  A    between atoms: C_4  and  S_5
REMARK    4  A    between atoms: S_5  and  N_8
REMARK    5  A    between atoms: N_8  and  C_9
REMARK    6  A    between atoms: C_9  and  C_10
REMARK    7  A    between atoms: C_10  and  C_11
REMARK    8  A    between atoms: C_14  and  N_15
REMARK                            x       y       z     vdW  Elec       q    Type
REMARK                         _______ _______ _______ _____ _____    ______ ____
ROOT
ATOM      1  S   UNL     1       3.904   3.354  19.185  0.00  0.00    +0.000 S 
ATOM      2  O   UNL     1       2.825   2.542  18.676  0.00  0.00    +0.000 OA
ATOM      3  O   UNL     1       4.883   2.867  20.148  0.00  0.00    +0.000 OA
ENDROOT
BRANCH   1   5
ATOM      4  C   UNL     1       5.906   4.701  17.581  0.00  0.00    +0.000 A 
ATOM      5  C   UNL     1       4.864   3.798  17.764  0.00  0.00    +0.000 A 
ATOM      6  N   UNL     1       4.639   3.203  16.551  0.00  0.00    +0.000 N 
ATOM      7  C   UNL     1       5.472   3.675  15.580  0.00  0.00    +0.000 A 
ATOM      8  C   UNL     1       5.564   3.326  14.226  0.00  0.00    +0.000 A 
ATOM      9  C   UNL     1       6.477   4.033  13.445  0.00  0.00    +0.000 A 
ATOM     10  C   UNL     1       7.266   5.032  14.008  0.00  0.00    +0.000 A 
ATOM     11 CL   UNL     1       8.378   5.899  13.016  0.00  0.00    +0.000 Cl
ATOM     12  C   UNL     1       7.179   5.348  15.370  0.00  0.00    +0.000 A 
ATOM     13  C   UNL     1       6.265   4.650  16.186  0.00  0.00    +0.000 A 
ATOM     14  H   UNL     1       3.973   2.457  16.385  0.00  0.00    +0.000 HD
BRANCH   4  16
ATOM     15  C   UNL     1       7.942   5.458  18.926  0.00  0.00    +0.000 C 
ATOM     16  C   UNL     1       6.456   5.609  18.644  0.00  0.00    +0.000 C 
ENDBRANCH   4  16
ENDBRANCH   1   5
BRANCH   1  17
ATOM     17  N   UNL     1       3.272   4.819  19.743  0.00  0.00    +0.000 NA
ATOM     18  H   UNL     1       3.974   5.424  20.162  0.00  0.00    +0.000 HD
BRANCH  17  19
ATOM     19  C   UNL     1       2.371   5.491  18.789  0.00  0.00    +0.000 C 
BRANCH  19  20
ATOM     20  C   UNL     1       2.949   6.829  18.307  0.00  0.00    +0.000 C 
BRANCH  20  21
ATOM     21  C   UNL     1       2.172   8.020  18.755  0.00  0.00    +0.000 A 
ATOM     22  C   UNL     1       1.910   9.071  17.872  0.00  0.00    +0.000 A 
ATOM     23  C   UNL     1       1.222  10.191  18.292  0.00  0.00    +0.000 A 
ATOM     24  C   UNL     1       0.759  10.318  19.599  0.00  0.00    +0.000 A 
ATOM     25  C   UNL     1       0.987   9.244  20.469  0.00  0.00    +0.000 A 
ATOM     26  C   UNL     1       1.675   8.102  20.057  0.00  0.00    +0.000 A 
BRANCH  24  27
ATOM     27  N   UNL     1       0.096  11.447  20.017  0.00  0.00    +0.000 N 
ATOM     28  C   UNL     1       0.010  11.831  21.431  0.00  0.00    +0.000 C 
ATOM     29  C   UNL     1      -1.447  11.861  21.905  0.00  0.00    +0.000 C 
ATOM     30  O   UNL     1      -2.264  12.675  21.049  0.00  0.00    +0.000 OA
ATOM     31  C   UNL     1      -2.248  12.153  19.710  0.00  0.00    +0.000 C 
ATOM     32  C   UNL     1      -0.830  12.145  19.113  0.00  0.00    +0.000 C 
ENDBRANCH  24  27
ENDBRANCH  20  21
ENDBRANCH  19  20
ENDBRANCH  17  19
ENDBRANCH   1  17
TORSDOF 7
ENDMDL
MODEL 8
REMARK VINA RESULT:      -7.9      2.240      2.920
REMARK  Name = 
REMARK  8 active torsions:
REMARK  status: ('A' for Active; 'I' for Inactive)
REMARK    1  A    between atoms: C_1  and  C_2
REMARK    2  A    between atoms: C_2  and  C_3
REMARK    3  A    between atoms: C_4  and  S_5
REMARK    4  A    between atoms: S_5  and  N_8
REMARK    5  A    between atoms: N_8  and  C_9
REMARK    6  A    between atoms: C_9  and  C_10
REMARK    7  A    between atoms: C_10  and  C_11
REMARK    8  A    between atoms: C_14  and  N_15
REMARK                            x       y       z     vdW  Elec       q    Type
REMARK                         _______ _______ _______ _____ _____    ______ ____
ROOT
ATOM      1  S   UNL     1       2.061   4.379  20.479  0.00  0.00    +0.000 S 
ATOM      2  O   UNL     1       0.727   4.182  19.967  0.00  0.00    +0.000 OA
ATOM      3  O   UNL     1       2.762   3.386  21.283  0.00  0.00    +0.000 OA
ENDROOT
BRANCH   1   5
ATOM      4  C   UNL     1       3.348   3.770  17.954  0.00  0.00    +0.000 A 
ATOM      5  C   UNL     1       3.083   4.590  19.047  0.00  0.00    +0.000 A 
ATOM      6  N   UNL     1       3.798   5.742  18.859  0.00  0.00    +0.000 N 
ATOM      7  C   UNL     1       4.525   5.718  17.705  0.00  0.00    +0.000 A 
ATOM      8  C   UNL     1       5.372   6.690  17.156  0.00  0.00    +0.000 A 
ATOM      9  C   UNL     1       6.046   6.358  15.981  0.00  0.00    +0.000 A 
ATOM     10  C   UNL     1       5.861   5.114  15.385  0.00  0.00    +0.000 A 
ATOM     11 CL   UNL     1       6.717   4.726  13.940  0.00  0.00    +0.000 Cl
ATOM     12  C   UNL     1       4.989   4.166  15.935  0.00  0.00    +0.000 A 
ATOM     13  C   UNL     1       4.293   4.472  17.123  0.00  0.00    +0.000 A 
ATOM     14  H   UNL     1       3.762   6.553  19.466  0.00  0.00    +0.000 HD
BRANCH   4  16
ATOM     15  C   UNL     1       3.537   1.287  18.526  0.00  0.00    +0.000 C 
ATOM     16  C   UNL     1       2.804   2.382  17.767  0.00  0.00    +0.000 C 
ENDBRANCH   4  16
ENDBRANCH   1   5
BRANCH   1  17
ATOM     17  N   UNL     1       2.131   5.870  21.271  0.00  0.00    +0.000 NA
ATOM     18  H   UNL     1       3.070   6.260  21.309  0.00  0.00    +0.000 HD
BRANCH  17  19
ATOM     19  C   UNL     1       1.085   6.824  20.858  0.00  0.00    +0.000 C 
BRANCH  19  20
ATOM     20  C   UNL     1       1.671   8.209  20.545  0.00  0.00    +0.000 C 
BRANCH  20  21
ATOM     21  C   UNL     1       0.767   9.341  20.898  0.00  0.00    +0.000 A 
ATOM     22  C   UNL     1       0.254   9.464  22.192  0.00  0.00    +0.000 A 
ATOM     23  C   UNL     1      -0.612  10.489  22.513  0.00  0.00    +0.000 A 
ATOM     24  C   UNL     1      -1.001  11.439  21.572  0.00  0.00    +0.000 A 
ATOM     25  C   UNL     1      -0.451  11.337  20.288  0.00  0.00    +0.000 A 
ATOM     26  C   UNL     1       0.431  10.309  19.950  0.00  0.00    +0.000 A 
BRANCH  24  27
ATOM     27  N   UNL     1      -1.883  12.444  21.893  0.00  0.00    +0.000 N 
ATOM     28  C   UNL     1      -2.183  12.816  23.280  0.00  0.00    +0.000 C 
ATOM     29  C   UNL     1      -3.668  12.604  23.597  0.00  0.00    +0.000 C 
ATOM     30  O   UNL     1      -4.512  13.265  22.642  0.00  0.00    +0.000 OA
ATOM     31  C   UNL     1      -4.265  12.747  21.324  0.00  0.00    +0.000 C 
ATOM     32  C   UNL     1      -2.809  12.973  20.881  0.00  0.00    +0.000 C 
ENDBRANCH  24  27
ENDBRANCH  20  21
ENDBRANCH  19  20
ENDBRANCH  17  19
ENDBRANCH   1  17
TORSDOF 7
ENDMDL
MODEL 9
REMARK VINA RESULT:      -7.9      3.115      4.369
REMARK  Name = 
REMARK  8 active torsions:
REMARK  status: ('A' for Active; 'I' for Inactive)
REMARK    1  A    between atoms: C_1  and  C_2
REMARK    2  A    between atoms: C_2  and  C_3
REMARK    3  A    between atoms: C_4  and  S_5
REMARK    4  A    between atoms: S_5  and  N_8
REMARK    5  A    between atoms: N_8  and  C_9
REMARK    6  A    between atoms: C_9  and  C_10
REMARK    7  A    between atoms: C_10  and  C_11
REMARK    8  A    between atoms: C_14  and  N_15
REMARK                            x       y       z     vdW  Elec       q    Type
REMARK                         _______ _______ _______ _____ _____    ______ ____
ROOT
ATOM      1  S   UNL     1       7.444   5.197  17.725  0.00  0.00    +0.000 S 
ATOM      2  O   UNL     1       7.952   5.591  19.016  0.00  0.00    +0.000 OA
ATOM      3  O   UNL     1       8.144   4.277  16.838  0.00  0.00    +0.000 OA
ENDROOT
BRANCH   1   5
ATOM      4  C   UNL     1       5.021   3.681  17.249  0.00  0.00    +0.000 A 
ATOM      5  C   UNL     1       5.896   4.402  18.055  0.00  0.00    +0.000 A 
ATOM      6  N   UNL     1       5.351   4.422  19.311  0.00  0.00    +0.000 N 
ATOM      7  C   UNL     1       4.160   3.761  19.369  0.00  0.00    +0.000 A 
ATOM      8  C   UNL     1       3.299   3.552  20.455  0.00  0.00    +0.000 A 
ATOM      9  C   UNL     1       2.099   2.888  20.201  0.00  0.00    +0.000 A 
ATOM     10  C   UNL     1       1.793   2.445  18.917  0.00  0.00    +0.000 A 
ATOM     11 CL   UNL     1       0.298   1.638  18.628  0.00  0.00    +0.000 Cl
ATOM     12  C   UNL     1       2.679   2.640  17.849  0.00  0.00    +0.000 A 
ATOM     13  C   UNL     1       3.901   3.308  18.075  0.00  0.00    +0.000 A 
ATOM     14  H   UNL     1       5.792   4.828  20.129  0.00  0.00    +0.000 HD
BRANCH   4  16
ATOM     15  C   UNL     1       5.149   4.690  14.905  0.00  0.00    +0.000 C 
ATOM     16  C   UNL     1       5.203   3.445  15.777  0.00  0.00    +0.000 C 
ENDBRANCH   4  16
ENDBRANCH   1   5
BRANCH   1  17
ATOM     17  N   UNL     1       7.028   6.584  16.852  0.00  0.00    +0.000 NA
ATOM     18  H   UNL     1       6.857   6.401  15.867  0.00  0.00    +0.000 HD
BRANCH  17  19
ATOM     19  C   UNL     1       6.012   7.428  17.507  0.00  0.00    +0.000 C 
BRANCH  19  20
ATOM     20  C   UNL     1       4.606   7.160  16.950  0.00  0.00    +0.000 C 
BRANCH  20  21
ATOM     21  C   UNL     1       3.505   7.657  17.824  0.00  0.00    +0.000 A 
ATOM     22  C   UNL     1       2.823   8.834  17.507  0.00  0.00    +0.000 A 
ATOM     23  C   UNL     1       1.827   9.317  18.332  0.00  0.00    +0.000 A 
ATOM     24  C   UNL     1       1.460   8.654  19.499  0.00  0.00    +0.000 A 
ATOM     25  C   UNL     1       2.117   7.452  19.791  0.00  0.00    +0.000 A 
ATOM     26  C   UNL     1       3.121   6.948  18.963  0.00  0.00    +0.000 A 
BRANCH  24  27
ATOM     27  N   UNL     1       0.484   9.153  20.330  0.00  0.00    +0.000 N 
ATOM     28  C   UNL     1      -0.077  10.499  20.164  0.00  0.00    +0.000 C 
ATOM     29  C   UNL     1       0.190  11.361  21.403  0.00  0.00    +0.000 C 
ATOM     30  O   UNL     1      -0.251  10.710  22.605  0.00  0.00    +0.000 OA
ATOM     31  C   UNL     1       0.448   9.466  22.776  0.00  0.00    +0.000 C 
ATOM     32  C   UNL     1       0.189   8.496  21.611  0.00  0.00    +0.000 C 
ENDBRANCH  24  27
ENDBRANCH  20  21
ENDBRANCH  19  20
ENDBRANCH  17  19
ENDBRANCH   1  17
TORSDOF 7
ENDMDL
