MODEL 1
REMARK VINA RESULT:      -9.6      0.000      0.000
REMARK  Name = 
REMARK  5 active torsions:
REMARK  status: ('A' for Active; 'I' for Inactive)
REMARK    1  A    between atoms: C_1  and  N_2
REMARK    2  A    between atoms: C_6  and  C_7
REMARK    3  A    between atoms: C_7  and  N_8
REMARK    4  A    between atoms: C_12  and  C_13
REMARK    5  A    between atoms: C_15  and  C_16
REMARK                            x       y       z     vdW  Elec       q    Type
REMARK                         _______ _______ _______ _____ _____    ______ ____
ROOT
ATOM      1  N   UNL     1       2.968   4.555  19.651  0.00  0.00    +0.000 NA
ATOM      2  C   UNL     1       3.118   3.308  20.399  0.00  0.00    +0.000 C 
ATOM      3  C   UNL     1       3.930   2.247  19.656  0.00  0.00    +0.000 C 
ATOM      4  C   UNL     1       3.389   2.028  18.247  0.00  0.00    +0.000 C 
ATOM      5  C   UNL     1       3.367   3.349  17.472  0.00  0.00    +0.000 C 
ATOM      6  C   UNL     1       2.541   4.386  18.255  0.00  0.00    +0.000 C 
ENDROOT
BRANCH   5   7
ATOM      7  C   UNL     1       4.772   3.837  17.124  0.00  0.00    +0.000 A 
ATOM      8  N   UNL     1       5.155   3.971  15.897  0.00  0.00    +0.000 NA
ATOM      9  C   UNL     1       6.424   4.436  15.665  0.00  0.00    +0.000 A 
ATOM     10  C   UNL     1       7.298   4.768  16.622  0.00  0.00    +0.000 A 
ATOM     11  C   UNL     1       6.864   4.592  18.010  0.00  0.00    +0.000 A 
ATOM     12  O   UNL     1       7.599   4.862  18.954  0.00  0.00    +0.000 OA
ATOM     13  N   UNL     1       5.600   4.108  18.180  0.00  0.00    +0.000 N 
ATOM     14  H   UNL     1       5.305   3.982  19.134  0.00  0.00    +0.000 HD
BRANCH   9  15
ATOM     15  C   UNL     1       6.795   4.539  14.289  0.00  0.00    +0.000 A 
ATOM     16  C   UNL     1       6.340   3.795  13.200  0.00  0.00    +0.000 A 
ATOM     17  C   UNL     1       7.030   4.222  12.046  0.00  0.00    +0.000 A 
ATOM     18  C   UNL     1       7.868   5.223  12.466  0.00  0.00    +0.000 A 
ATOM     19  O   UNL     1       7.734   5.428  13.799  0.00  0.00    +0.000 OA
ENDBRANCH   9  15
ENDBRANCH   5   7
BRANCH   1  20
ATOM     20  C   UNL     1       2.210   5.592  20.367  0.00  0.00    +0.000 C 
BRANCH  20  26
ATOM     21  C   UNL     1       1.620  11.701  18.728  0.00  0.00    +0.000 C 
ATOM     22  N   UNL     1       1.757  10.577  17.828  0.00  0.00    +0.000 N 
ATOM     23  C   UNL     1       1.853   9.353  18.474  0.00  0.00    +0.000 A 
ATOM     24  N   UNL     1       1.281   9.183  19.672  0.00  0.00    +0.000 NA
ATOM     25  C   UNL     1       1.429   7.981  20.257  0.00  0.00    +0.000 A 
ATOM     26  C   UNL     1       2.115   6.927  19.694  0.00  0.00    +0.000 A 
ATOM     27  C   UNL     1       2.667   7.210  18.465  0.00  0.00    +0.000 A 
ATOM     28  N   UNL     1       2.562   8.404  17.845  0.00  0.00    +0.000 NA
ATOM     29  H   UNL     1       2.532  10.618  17.178  0.00  0.00    +0.000 HD
ENDBRANCH  20  26
ENDBRANCH   1  20
TORSDOF 4
ENDMDL
MODEL 2
REMARK VINA RESULT:      -9.2      2.943      7.825
REMARK  Name = 
REMARK  5 active torsions:
REMARK  status: ('A' for Active; 'I' for Inactive)
REMARK    1  A    between atoms: C_1  and  N_2
REMARK    2  A    between atoms: C_6  and  C_7
REMARK    3  A    between atoms: C_7  and  N_8
REMARK    4  A    between atoms: C_12  and  C_13
REMARK    5  A    between atoms: C_15  and  C_16
REMARK                            x       y       z     vdW  Elec       q    Type
REMARK                         _______ _______ _______ _____ _____    ______ ____
ROOT
ATOM      1  N   UNL     1       3.920   4.397  18.781  0.00  0.00    +0.000 NA
ATOM      2  C   UNL     1       2.969   3.603  18.005  0.00  0.00    +0.000 C 
ATOM      3  C   UNL     1       1.516   4.038  18.195  0.00  0.00    +0.000 C 
ATOM      4  C   UNL     1       1.154   4.113  19.675  0.00  0.00    +0.000 C 
ATOM      5  C   UNL     1       2.112   5.052  20.413  0.00  0.00    +0.000 C 
ATOM      6  C   UNL     1       3.560   4.578  20.194  0.00  0.00    +0.000 C 
ENDROOT
BRANCH   5   7
ATOM      7  C   UNL     1       1.894   6.515  20.031  0.00  0.00    +0.000 A 
ATOM      8  N   UNL     1       1.290   7.337  20.826  0.00  0.00    +0.000 NA
ATOM      9  C   UNL     1       1.152   8.640  20.422  0.00  0.00    +0.000 A 
ATOM     10  C   UNL     1       1.603   9.127  19.260  0.00  0.00    +0.000 A 
ATOM     11  C   UNL     1       2.266   8.184  18.356  0.00  0.00    +0.000 A 
ATOM     12  O   UNL     1       2.705   8.536  17.266  0.00  0.00    +0.000 OA
ATOM     13  N   UNL     1       2.357   6.898  18.801  0.00  0.00    +0.000 N 
ATOM     14  H   UNL     1       2.807   6.249  18.177  0.00  0.00    +0.000 HD
BRANCH   9  15
ATOM     15  C   UNL     1       0.456   9.492  21.334  0.00  0.00    +0.000 A 
ATOM     16  C   UNL     1      -0.282   9.148  22.466  0.00  0.00    +0.000 A 
ATOM     17  C   UNL     1      -0.828  10.325  23.021  0.00  0.00    +0.000 A 
ATOM     18  C   UNL     1      -0.390  11.348  22.219  0.00  0.00    +0.000 A 
ATOM     19  O   UNL     1       0.382  10.868  21.214  0.00  0.00    +0.000 OA
ENDBRANCH   9  15
ENDBRANCH   5   7
BRANCH   1  20
ATOM     20  C   UNL     1       5.324   4.004  18.587  0.00  0.00    +0.000 C 
BRANCH  20  26
ATOM     21  C   UNL     1       7.102   4.897  12.554  0.00  0.00    +0.000 C 
ATOM     22  N   UNL     1       7.744   5.441  13.731  0.00  0.00    +0.000 N 
ATOM     23  C   UNL     1       7.140   5.064  14.921  0.00  0.00    +0.000 A 
ATOM     24  N   UNL     1       6.482   3.899  14.996  0.00  0.00    +0.000 NA
ATOM     25  C   UNL     1       5.899   3.600  16.171  0.00  0.00    +0.000 A 
ATOM     26  C   UNL     1       5.951   4.406  17.288  0.00  0.00    +0.000 A 
ATOM     27  C   UNL     1       6.647   5.580  17.100  0.00  0.00    +0.000 A 
ATOM     28  N   UNL     1       7.234   5.933  15.937  0.00  0.00    +0.000 NA
ATOM     29  H   UNL     1       7.834   6.449  13.764  0.00  0.00    +0.000 HD
ENDBRANCH  20  26
ENDBRANCH   1  20
TORSDOF 4
ENDMDL
MODEL 3
REMARK VINA RESULT:      -9.1      3.597      7.596
REMARK  Name = 
REMARK  5 active torsions:
REMARK  status: ('A' for Active; 'I' for Inactive)
REMARK    1  A    between atoms: C_1  and  N_2
REMARK    2  A    between atoms: C_6  and  C_7
REMARK    3  A    between atoms: C_7  and  N_8
REMARK    4  A    between atoms: C_12  and  C_13
REMARK    5  A    between atoms: C_15  and  C_16
REMARK                            x       y       z     vdW  Elec       q    Type
REMARK                         _______ _______ _______ _____ _____    ______ ____
ROOT
ATOM      1  N   UNL     1       3.920   4.978  18.187  0.00  0.00    +0.000 NA
ATOM      2  C   UNL     1       2.913   4.070  17.641  0.00  0.00    +0.000 C 
ATOM      3  C   UNL     1       1.501   4.344  18.160  0.00  0.00    +0.000 C 
ATOM      4  C   UNL     1       1.478   4.403  19.684  0.00  0.00    +0.000 C 
ATOM      5  C   UNL     1       2.466   5.457  20.192  0.00  0.00    +0.000 C 
ATOM      6  C   UNL     1       3.872   5.143  19.647  0.00  0.00    +0.000 C 
ENDROOT
BRANCH   5   7
ATOM      7  C   UNL     1       2.004   6.880  19.882  0.00  0.00    +0.000 A 
ATOM      8  N   UNL     1       1.351   7.581  20.749  0.00  0.00    +0.000 NA
ATOM      9  C   UNL     1       0.991   8.858  20.405  0.00  0.00    +0.000 A 
ATOM     10  C   UNL     1       1.270   9.436  19.231  0.00  0.00    +0.000 A 
ATOM     11  C   UNL     1       1.991   8.626  18.246  0.00  0.00    +0.000 A 
ATOM     12  O   UNL     1       2.286   9.068  17.140  0.00  0.00    +0.000 OA
ATOM     13  N   UNL     1       2.307   7.359  18.636  0.00  0.00    +0.000 N 
ATOM     14  H   UNL     1       2.797   6.801  17.956  0.00  0.00    +0.000 HD
BRANCH   9  15
ATOM     15  C   UNL     1       0.250   9.572  21.397  0.00  0.00    +0.000 A 
ATOM     16  C   UNL     1      -0.154   9.150  22.663  0.00  0.00    +0.000 A 
ATOM     17  C   UNL     1      -0.905  10.183  23.262  0.00  0.00    +0.000 A 
ATOM     18  C   UNL     1      -0.918  11.206  22.349  0.00  0.00    +0.000 A 
ATOM     19  O   UNL     1      -0.228  10.861  21.236  0.00  0.00    +0.000 OA
ENDBRANCH   9  15
ENDBRANCH   5   7
BRANCH   1  20
ATOM     20  C   UNL     1       5.278   4.740  17.676  0.00  0.00    +0.000 C 
BRANCH  20  26
ATOM     21  C   UNL     1       8.508  10.200  18.015  0.00  0.00    +0.000 C 
ATOM     22  N   UNL     1       9.014   8.879  18.321  0.00  0.00    +0.000 N 
ATOM     23  C   UNL     1       8.080   7.869  18.142  0.00  0.00    +0.000 A 
ATOM     24  N   UNL     1       7.100   8.017  17.243  0.00  0.00    +0.000 NA
ATOM     25  C   UNL     1       6.213   7.012  17.132  0.00  0.00    +0.000 A 
ATOM     26  C   UNL     1       6.264   5.850  17.872  0.00  0.00    +0.000 A 
ATOM     27  C   UNL     1       7.308   5.803  18.769  0.00  0.00    +0.000 A 
ATOM     28  N   UNL     1       8.213   6.792  18.930  0.00  0.00    +0.000 NA
ATOM     29  H   UNL     1       9.397   8.752  19.250  0.00  0.00    +0.000 HD
ENDBRANCH  20  26
ENDBRANCH   1  20
TORSDOF 4
ENDMDL
MODEL 4
REMARK VINA RESULT:      -9.1      2.975      7.865
REMARK  Name = 
REMARK  5 active torsions:
REMARK  status: ('A' for Active; 'I' for Inactive)
REMARK    1  A    between atoms: C_1  and  N_2
REMARK    2  A    between atoms: C_6  and  C_7
REMARK    3  A    between atoms: C_7  and  N_8
REMARK    4  A    between atoms: C_12  and  C_13
REMARK    5  A    between atoms: C_15  and  C_16
REMARK                            x       y       z     vdW  Elec       q    Type
REMARK                         _______ _______ _______ _____ _____    ______ ____
ROOT
ATOM      1  N   UNL     1       4.098   4.610  18.616  0.00  0.00    +0.000 NA
ATOM      2  C   UNL     1       3.164   3.768  17.870  0.00  0.00    +0.000 C 
ATOM      3  C   UNL     1       1.697   4.123  18.114  0.00  0.00    +0.000 C 
ATOM      4  C   UNL     1       1.385   4.173  19.606  0.00  0.00    +0.000 C 
ATOM      5  C   UNL     1       2.316   5.160  20.314  0.00  0.00    +0.000 C 
ATOM      6  C   UNL     1       3.780   4.766  20.042  0.00  0.00    +0.000 C 
ENDROOT
BRANCH   5   7
ATOM      7  C   UNL     1       2.006   6.611  19.949  0.00  0.00    +0.000 A 
ATOM      8  N   UNL     1       1.367   7.389  20.759  0.00  0.00    +0.000 NA
ATOM      9  C   UNL     1       1.147   8.685  20.368  0.00  0.00    +0.000 A 
ATOM     10  C   UNL     1       1.549   9.206  19.204  0.00  0.00    +0.000 A 
ATOM     11  C   UNL     1       2.252   8.311  18.282  0.00  0.00    +0.000 A 
ATOM     12  O   UNL     1       2.653   8.697  17.189  0.00  0.00    +0.000 OA
ATOM     13  N   UNL     1       2.427   7.030  18.715  0.00  0.00    +0.000 N 
ATOM     14  H   UNL     1       2.905   6.413  18.078  0.00  0.00    +0.000 HD
BRANCH   9  15
ATOM     15  C   UNL     1       0.415   9.487  21.298  0.00  0.00    +0.000 A 
ATOM     16  C   UNL     1       0.005   9.174  22.594  0.00  0.00    +0.000 A 
ATOM     17  C   UNL     1      -0.733  10.262  23.106  0.00  0.00    +0.000 A 
ATOM     18  C   UNL     1      -0.733  11.208  22.113  0.00  0.00    +0.000 A 
ATOM     19  O   UNL     1      -0.046  10.764  21.032  0.00  0.00    +0.000 OA
ENDBRANCH   9  15
ENDBRANCH   5   7
BRANCH   1  20
ATOM     20  C   UNL     1       5.513   4.294  18.370  0.00  0.00    +0.000 C 
BRANCH  20  26
ATOM     21  C   UNL     1       8.569   5.761  12.998  0.00  0.00    +0.000 C 
ATOM     22  N   UNL     1       7.285   5.105  13.106  0.00  0.00    +0.000 N 
ATOM     23  C   UNL     1       6.858   4.926  14.414  0.00  0.00    +0.000 A 
ATOM     24  N   UNL     1       7.257   5.776  15.369  0.00  0.00    +0.000 NA
ATOM     25  C   UNL     1       6.827   5.536  16.621  0.00  0.00    +0.000 A 
ATOM     26  C   UNL     1       6.002   4.489  16.968  0.00  0.00    +0.000 A 
ATOM     27  C   UNL     1       5.656   3.674  15.912  0.00  0.00    +0.000 A 
ATOM     28  N   UNL     1       6.075   3.863  14.643  0.00  0.00    +0.000 NA
ATOM     29  H   UNL     1       7.206   4.202  12.655  0.00  0.00    +0.000 HD
ENDBRANCH  20  26
ENDBRANCH   1  20
TORSDOF 4
ENDMDL
MODEL 5
REMARK VINA RESULT:      -9.1      1.516      2.886
REMARK  Name = 
REMARK  5 active torsions:
REMARK  status: ('A' for Active; 'I' for Inactive)
REMARK    1  A    between atoms: C_1  and  N_2
REMARK    2  A    between atoms: C_6  and  C_7
REMARK    3  A    between atoms: C_7  and  N_8
REMARK    4  A    between atoms: C_12  and  C_13
REMARK    5  A    between atoms: C_15  and  C_16
REMARK                            x       y       z     vdW  Elec       q    Type
REMARK                         _______ _______ _______ _____ _____    ______ ____
ROOT
ATOM      1  N   UNL     1       3.181   4.780  19.261  0.00  0.00    +0.000 NA
ATOM      2  C   UNL     1       3.562   3.567  19.982  0.00  0.00    +0.000 C 
ATOM      3  C   UNL     1       4.301   2.549  19.113  0.00  0.00    +0.000 C 
ATOM      4  C   UNL     1       3.527   2.255  17.833  0.00  0.00    +0.000 C 
ATOM      5  C   UNL     1       3.262   3.551  17.060  0.00  0.00    +0.000 C 
ATOM      6  C   UNL     1       2.518   4.545  17.971  0.00  0.00    +0.000 C 
ENDROOT
BRANCH   5   7
ATOM      7  C   UNL     1       4.537   4.131  16.451  0.00  0.00    +0.000 A 
ATOM      8  N   UNL     1       5.240   5.018  17.075  0.00  0.00    +0.000 NA
ATOM      9  C   UNL     1       6.383   5.474  16.472  0.00  0.00    +0.000 A 
ATOM     10  C   UNL     1       6.829   5.063  15.280  0.00  0.00    +0.000 A 
ATOM     11  C   UNL     1       6.015   4.074  14.569  0.00  0.00    +0.000 A 
ATOM     12  O   UNL     1       6.339   3.643  13.467  0.00  0.00    +0.000 OA
ATOM     13  N   UNL     1       4.879   3.671  15.207  0.00  0.00    +0.000 N 
ATOM     14  H   UNL     1       4.316   2.996  14.716  0.00  0.00    +0.000 HD
BRANCH   9  15
ATOM     15  C   UNL     1       7.103   6.470  17.202  0.00  0.00    +0.000 A 
ATOM     16  C   UNL     1       7.792   6.347  18.408  0.00  0.00    +0.000 A 
ATOM     17  C   UNL     1       8.302   7.613  18.764  0.00  0.00    +0.000 A 
ATOM     18  C   UNL     1       7.923   8.461  17.755  0.00  0.00    +0.000 A 
ATOM     19  O   UNL     1       7.214   7.793  16.812  0.00  0.00    +0.000 OA
ENDBRANCH   9  15
ENDBRANCH   5   7
BRANCH   1  20
ATOM     20  C   UNL     1       2.492   5.777  20.094  0.00  0.00    +0.000 C 
BRANCH  20  26
ATOM     21  C   UNL     1       1.523  11.906  18.735  0.00  0.00    +0.000 C 
ATOM     22  N   UNL     1       1.654  10.824  17.784  0.00  0.00    +0.000 N 
ATOM     23  C   UNL     1       1.847   9.583  18.374  0.00  0.00    +0.000 A 
ATOM     24  N   UNL     1       1.359   9.343  19.598  0.00  0.00    +0.000 NA
ATOM     25  C   UNL     1       1.598   8.129  20.125  0.00  0.00    +0.000 A 
ATOM     26  C   UNL     1       2.294   7.129  19.481  0.00  0.00    +0.000 A 
ATOM     27  C   UNL     1       2.755   7.483  18.232  0.00  0.00    +0.000 A 
ATOM     28  N   UNL     1       2.556   8.693  17.667  0.00  0.00    +0.000 NA
ATOM     29  H   UNL     1       2.384  10.925  17.090  0.00  0.00    +0.000 HD
ENDBRANCH  20  26
ENDBRANCH   1  20
TORSDOF 4
ENDMDL
MODEL 6
REMARK VINA RESULT:      -9.0      0.829      1.275
REMARK  Name = 
REMARK  5 active torsions:
REMARK  status: ('A' for Active; 'I' for Inactive)
REMARK    1  A    between atoms: C_1  and  N_2
REMARK    2  A    between atoms: C_6  and  C_7
REMARK    3  A    between atoms: C_7  and  N_8
REMARK    4  A    between atoms: C_12  and  C_13
REMARK    5  A    between atoms: C_15  and  C_16
REMARK                            x       y       z     vdW  Elec       q    Type
REMARK                         _______ _______ _______ _____ _____    ______ ____
ROOT
ATOM      1  N   UNL     1       2.648   4.067  19.795  0.00  0.00    +0.000 NA
ATOM      2  C   UNL     1       2.628   2.629  20.061  0.00  0.00    +0.000 C 
ATOM      3  C   UNL     1       3.288   1.798  18.962  0.00  0.00    +0.000 C 
ATOM      4  C   UNL     1       2.723   2.153  17.590  0.00  0.00    +0.000 C 
ATOM      5  C   UNL     1       2.881   3.651  17.319  0.00  0.00    +0.000 C 
ATOM      6  C   UNL     1       2.203   4.449  18.448  0.00  0.00    +0.000 C 
ENDROOT
BRANCH   5   7
ATOM      7  C   UNL     1       4.339   4.047  17.094  0.00  0.00    +0.000 A 
ATOM      8  N   UNL     1       4.839   4.138  15.906  0.00  0.00    +0.000 NA
ATOM      9  C   UNL     1       6.150   4.520  15.785  0.00  0.00    +0.000 A 
ATOM     10  C   UNL     1       6.953   4.812  16.814  0.00  0.00    +0.000 A 
ATOM     11  C   UNL     1       6.386   4.685  18.158  0.00  0.00    +0.000 A 
ATOM     12  O   UNL     1       7.049   4.924  19.163  0.00  0.00    +0.000 OA
ATOM     13  N   UNL     1       5.085   4.283  18.219  0.00  0.00    +0.000 N 
ATOM     14  H   UNL     1       4.697   4.189  19.143  0.00  0.00    +0.000 HD
BRANCH   9  15
ATOM     15  C   UNL     1       6.648   4.579  14.447  0.00  0.00    +0.000 A 
ATOM     16  C   UNL     1       6.272   3.823  13.337  0.00  0.00    +0.000 A 
ATOM     17  C   UNL     1       7.078   4.201  12.243  0.00  0.00    +0.000 A 
ATOM     18  C   UNL     1       7.906   5.186  12.717  0.00  0.00    +0.000 A 
ATOM     19  O   UNL     1       7.657   5.427  14.027  0.00  0.00    +0.000 OA
ENDBRANCH   9  15
ENDBRANCH   5   7
BRANCH   1  20
ATOM     20  C   UNL     1       2.038   4.879  20.859  0.00  0.00    +0.000 C 
BRANCH  20  26
ATOM     21  C   UNL     1       1.237  10.609  18.238  0.00  0.00    +0.000 C 
ATOM     22  N   UNL     1       1.144  10.285  19.645  0.00  0.00    +0.000 N 
ATOM     23  C   UNL     1       1.382   8.948  19.926  0.00  0.00    +0.000 A 
ATOM     24  N   UNL     1       2.178   8.228  19.125  0.00  0.00    +0.000 NA
ATOM     25  C   UNL     1       2.351   6.931  19.438  0.00  0.00    +0.000 A 
ATOM     26  C   UNL     1       1.775   6.315  20.528  0.00  0.00    +0.000 A 
ATOM     27  C   UNL     1       0.972   7.144  21.281  0.00  0.00    +0.000 A 
ATOM     28  N   UNL     1       0.753   8.446  20.998  0.00  0.00    +0.000 NA
ATOM     29  H   UNL     1       0.272  10.522  20.101  0.00  0.00    +0.000 HD
ENDBRANCH  20  26
ENDBRANCH   1  20
TORSDOF 4
ENDMDL
MODEL 7
REMARK VINA RESULT:      -8.8      3.349      7.569
REMARK  Name = 
REMARK  5 active torsions:
REMARK  status: ('A' for Active; 'I' for Inactive)
REMARK    1  A    between atoms: C_1  and  N_2
REMARK    2  A    between atoms: C_6  and  C_7
REMARK    3  A    between atoms: C_7  and  N_8
REMARK    4  A    between atoms: C_12  and  C_13
REMARK    5  A    between atoms: C_15  and  C_16
REMARK                            x       y       z     vdW  Elec       q    Type
REMARK                         _______ _______ _______ _____ _____    ______ ____
ROOT
ATOM      1  N   UNL     1       3.223   4.330  18.641  0.00  0.00    +0.000 NA
ATOM      2  C   UNL     1       2.057   3.479  18.407  0.00  0.00    +0.000 C 
ATOM      3  C   UNL     1       0.787   3.986  19.090  0.00  0.00    +0.000 C 
ATOM      4  C   UNL     1       1.031   4.259  20.570  0.00  0.00    +0.000 C 
ATOM      5  C   UNL     1       2.185   5.250  20.747  0.00  0.00    +0.000 C 
ATOM      6  C   UNL     1       3.441   4.701  20.046  0.00  0.00    +0.000 C 
ENDROOT
BRANCH   5   7
ATOM      7  C   UNL     1       1.811   6.660  20.294  0.00  0.00    +0.000 A 
ATOM      8  N   UNL     1       1.154   7.464  21.064  0.00  0.00    +0.000 NA
ATOM      9  C   UNL     1       0.876   8.722  20.594  0.00  0.00    +0.000 A 
ATOM     10  C   UNL     1       1.239   9.181  19.392  0.00  0.00    +0.000 A 
ATOM     11  C   UNL     1       1.964   8.256  18.517  0.00  0.00    +0.000 A 
ATOM     12  O   UNL     1       2.332   8.585  17.394  0.00  0.00    +0.000 OA
ATOM     13  N   UNL     1       2.196   7.014  19.029  0.00  0.00    +0.000 N 
ATOM     14  H   UNL     1       2.689   6.376  18.425  0.00  0.00    +0.000 HD
BRANCH   9  15
ATOM     15  C   UNL     1       0.127   9.553  21.483  0.00  0.00    +0.000 A 
ATOM     16  C   UNL     1      -0.191   9.342  22.825  0.00  0.00    +0.000 A 
ATOM     17  C   UNL     1      -0.991  10.414  23.271  0.00  0.00    +0.000 A 
ATOM     18  C   UNL     1      -1.120  11.252  22.193  0.00  0.00    +0.000 A 
ATOM     19  O   UNL     1      -0.453  10.757  21.122  0.00  0.00    +0.000 OA
ENDBRANCH   9  15
ENDBRANCH   5   7
BRANCH   1  20
ATOM     20  C   UNL     1       4.445   3.865  17.968  0.00  0.00    +0.000 C 
BRANCH  20  26
ATOM     21  C   UNL     1       8.115   9.037  17.599  0.00  0.00    +0.000 C 
ATOM     22  N   UNL     1       8.401   7.736  17.034  0.00  0.00    +0.000 N 
ATOM     23  C   UNL     1       7.406   6.797  17.264  0.00  0.00    +0.000 A 
ATOM     24  N   UNL     1       6.137   7.194  17.419  0.00  0.00    +0.000 NA
ATOM     25  C   UNL     1       5.221   6.239  17.661  0.00  0.00    +0.000 A 
ATOM     26  C   UNL     1       5.510   4.894  17.743  0.00  0.00    +0.000 A 
ATOM     27  C   UNL     1       6.844   4.596  17.574  0.00  0.00    +0.000 A 
ATOM     28  N   UNL     1       7.802   5.519  17.346  0.00  0.00    +0.000 NA
ATOM     29  H   UNL     1       9.271   7.305  17.324  0.00  0.00    +0.000 HD
ENDBRANCH  20  26
ENDBRANCH   1  20
TORSDOF 4
ENDMDL
MODEL 8
REMARK VINA RESULT:      -8.6      2.916      7.667
REMARK  Name = 
REMARK  5 active torsions:
REMARK  status: ('A' for Active; 'I' for Inactive)
REMARK    1  A    between atoms: C_1  and  N_2
REMARK    2  A    between atoms: C_6  and  C_7
REMARK    3  A    between atoms: C_7  and  N_8
REMARK    4  A    between atoms: C_12  and  C_13
REMARK    5  A    between atoms: C_15  and  C_16
REMARK                            x       y       z     vdW  Elec       q    Type
REMARK                         _______ _______ _______ _____ _____    ______ ____
ROOT
ATOM      1  N   UNL     1       2.545   3.939  18.393  0.00  0.00    +0.000 NA
ATOM      2  C   UNL     1       1.428   3.226  19.011  0.00  0.00    +0.000 C 
ATOM      3  C   UNL     1       0.767   4.002  20.150  0.00  0.00    +0.000 C 
ATOM      4  C   UNL     1       1.801   4.473  21.167  0.00  0.00    +0.000 C 
ATOM      5  C   UNL     1       2.881   5.315  20.480  0.00  0.00    +0.000 C 
ATOM      6  C   UNL     1       3.519   4.497  19.342  0.00  0.00    +0.000 C 
ENDROOT
BRANCH   5   7
ATOM      7  C   UNL     1       2.350   6.672  20.021  0.00  0.00    +0.000 A 
ATOM      8  N   UNL     1       1.690   7.444  20.820  0.00  0.00    +0.000 NA
ATOM      9  C   UNL     1       1.266   8.656  20.341  0.00  0.00    +0.000 A 
ATOM     10  C   UNL     1       1.490   9.103  19.100  0.00  0.00    +0.000 A 
ATOM     11  C   UNL     1       2.220   8.213  18.194  0.00  0.00    +0.000 A 
ATOM     12  O   UNL     1       2.467   8.533  17.036  0.00  0.00    +0.000 OA
ATOM     13  N   UNL     1       2.600   7.013  18.719  0.00  0.00    +0.000 N 
ATOM     14  H   UNL     1       3.096   6.399  18.093  0.00  0.00    +0.000 HD
BRANCH   9  15
ATOM     15  C   UNL     1       0.521   9.452  21.266  0.00  0.00    +0.000 A 
ATOM     16  C   UNL     1      -0.134   9.058  22.433  0.00  0.00    +0.000 A 
ATOM     17  C   UNL     1      -0.775  10.185  22.988  0.00  0.00    +0.000 A 
ATOM     18  C   UNL     1      -0.475  11.230  22.152  0.00  0.00    +0.000 A 
ATOM     19  O   UNL     1       0.303  10.811  21.125  0.00  0.00    +0.000 OA
ENDBRANCH   9  15
ENDBRANCH   5   7
BRANCH   1  20
ATOM     20  C   UNL     1       3.173   3.213  17.279  0.00  0.00    +0.000 C 
BRANCH  20  26
ATOM     21  C   UNL     1       7.873   5.185  13.488  0.00  0.00    +0.000 C 
ATOM     22  N   UNL     1       7.479   5.775  14.749  0.00  0.00    +0.000 N 
ATOM     23  C   UNL     1       6.423   5.120  15.365  0.00  0.00    +0.000 A 
ATOM     24  N   UNL     1       6.231   3.812  15.149  0.00  0.00    +0.000 NA
ATOM     25  C   UNL     1       5.177   3.239  15.758  0.00  0.00    +0.000 A 
ATOM     26  C   UNL     1       4.305   3.909  16.588  0.00  0.00    +0.000 A 
ATOM     27  C   UNL     1       4.590   5.248  16.737  0.00  0.00    +0.000 A 
ATOM     28  N   UNL     1       5.624   5.873  16.134  0.00  0.00    +0.000 NA
ATOM     29  H   UNL     1       7.229   6.756  14.724  0.00  0.00    +0.000 HD
ENDBRANCH  20  26
ENDBRANCH   1  20
TORSDOF 4
ENDMDL
MODEL 9
REMARK VINA RESULT:      -8.4      1.386      1.799
REMARK  Name = 
REMARK  5 active torsions:
REMARK  status: ('A' for Active; 'I' for Inactive)
REMARK    1  A    between atoms: C_1  and  N_2
REMARK    2  A    between atoms: C_6  and  C_7
REMARK    3  A    between atoms: C_7  and  N_8
REMARK    4  A    between atoms: C_12  and  C_13
REMARK    5  A    between atoms: C_15  and  C_16
REMARK                            x       y       z     vdW  Elec       q    Type
REMARK                         _______ _______ _______ _____ _____    ______ ____
ROOT
ATOM      1  N   UNL     1       2.284   6.245  20.142  0.00  0.00    +0.000 NA
ATOM      2  C   UNL     1       1.886   4.978  20.755  0.00  0.00    +0.000 C 
ATOM      3  C   UNL     1       2.331   3.751  19.959  0.00  0.00    +0.000 C 
ATOM      4  C   UNL     1       1.905   3.860  18.499  0.00  0.00    +0.000 C 
ATOM      5  C   UNL     1       2.453   5.148  17.878  0.00  0.00    +0.000 C 
ATOM      6  C   UNL     1       1.982   6.356  18.709  0.00  0.00    +0.000 C 
ENDROOT
BRANCH   5   7
ATOM      7  C   UNL     1       3.968   5.101  17.691  0.00  0.00    +0.000 A 
ATOM      8  N   UNL     1       4.500   4.969  16.520  0.00  0.00    +0.000 NA
ATOM      9  C   UNL     1       5.868   4.958  16.432  0.00  0.00    +0.000 A 
ATOM     10  C   UNL     1       6.698   5.077  17.474  0.00  0.00    +0.000 A 
ATOM     11  C   UNL     1       6.087   5.203  18.800  0.00  0.00    +0.000 A 
ATOM     12  O   UNL     1       6.767   5.311  19.816  0.00  0.00    +0.000 OA
ATOM     13  N   UNL     1       4.724   5.190  18.829  0.00  0.00    +0.000 N 
ATOM     14  H   UNL     1       4.304   5.270  19.741  0.00  0.00    +0.000 HD
BRANCH   9  15
ATOM     15  C   UNL     1       6.394   4.786  15.114  0.00  0.00    +0.000 A 
ATOM     16  C   UNL     1       5.967   3.922  14.105  0.00  0.00    +0.000 A 
ATOM     17  C   UNL     1       6.824   4.070  12.995  0.00  0.00    +0.000 A 
ATOM     18  C   UNL     1       7.734   5.031  13.357  0.00  0.00    +0.000 A 
ATOM     19  O   UNL     1       7.486   5.473  14.614  0.00  0.00    +0.000 OA
ENDBRANCH   9  15
ENDBRANCH   5   7
BRANCH   1  20
ATOM     20  C   UNL     1       1.883   7.432  20.912  0.00  0.00    +0.000 C 
BRANCH  20  26
ATOM     21  C   UNL     1      -1.239  12.532  18.768  0.00  0.00    +0.000 C 
ATOM     22  N   UNL     1      -0.535  11.554  17.967  0.00  0.00    +0.000 N 
ATOM     23  C   UNL     1       0.044  10.536  18.712  0.00  0.00    +0.000 A 
ATOM     24  N   UNL     1      -0.493  10.178  19.885  0.00  0.00    +0.000 NA
ATOM     25  C   UNL     1       0.126   9.200  20.570  0.00  0.00    +0.000 A 
ATOM     26  C   UNL     1       1.258   8.548  20.133  0.00  0.00    +0.000 A 
ATOM     27  C   UNL     1       1.730   8.996  18.919  0.00  0.00    +0.000 A 
ATOM     28  N   UNL     1       1.154   9.985  18.202  0.00  0.00    +0.000 NA
ATOM     29  H   UNL     1       0.194  11.913  17.362  0.00  0.00    +0.000 HD
ENDBRANCH  20  26
ENDBRANCH   1  20
TORSDOF 4
ENDMDL
