MODEL 1
REMARK VINA RESULT:      -9.0      0.000      0.000
REMARK  Name = 
REMARK  5 active torsions:
REMARK  status: ('A' for Active; 'I' for Inactive)
REMARK    1  A    between atoms: C_1  and  C_2
REMARK    2  A    between atoms: C_5  and  C_6
REMARK    3  A    between atoms: C_12  and  N_13
REMARK    4  A    between atoms: N_13  and  C_14
REMARK    5  A    between atoms: C_23  and  N_24
REMARK                            x       y       z     vdW  Elec       q    Type
REMARK                         _______ _______ _______ _____ _____    ______ ____
ROOT
ATOM      1  C   UNL     1       3.825   2.713  18.250  0.00  0.00    +0.000 C 
ATOM      2  O   UNL     1       3.682   1.500  18.091  0.00  0.00    +0.000 OA
ATOM      3  N   UNL     1       3.131   3.424  19.237  0.00  0.00    +0.000 N 
ATOM      4  C   UNL     1       2.200   2.691  20.092  0.00  0.00    +0.000 C 
ATOM      5  C   UNL     1       0.902   3.473  20.280  0.00  0.00    +0.000 C 
ATOM      6  C   UNL     1       1.155   4.908  20.753  0.00  0.00    +0.000 C 
ATOM      7  C   UNL     1       2.136   5.633  19.814  0.00  0.00    +0.000 C 
ATOM      8  C   UNL     1       3.429   4.777  19.724  0.00  0.00    +0.000 C 
ENDROOT
BRANCH   1  13
ATOM      9  C   UNL     1       7.522   5.502  14.746  0.00  0.00    +0.000 C 
ATOM     10  C   UNL     1       6.557   4.817  15.674  0.00  0.00    +0.000 A 
ATOM     11  C   UNL     1       5.817   3.732  15.182  0.00  0.00    +0.000 A 
ATOM     12  C   UNL     1       4.972   3.003  16.019  0.00  0.00    +0.000 A 
ATOM     13  C   UNL     1       4.788   3.397  17.345  0.00  0.00    +0.000 A 
ATOM     14  C   UNL     1       5.582   4.431  17.867  0.00  0.00    +0.000 A 
ATOM     15  C   UNL     1       6.442   5.159  17.036  0.00  0.00    +0.000 A 
BRANCH  15  16
ATOM     16  N   UNL     1       7.218   6.191  17.587  0.00  0.00    +0.000 N 
ATOM     17  C   UNL     1       7.435   7.467  16.944  0.00  0.00    +0.000 C 
ATOM     18  C   UNL     1       7.937   8.329  18.098  0.00  0.00    +0.000 C 
ATOM     19  N   UNL     1       8.525   7.370  18.990  0.00  0.00    +0.000 N 
ATOM     20  C   UNL     1       7.967   6.111  18.770  0.00  0.00    +0.000 C 
ATOM     21  O   UNL     1       8.146   5.157  19.506  0.00  0.00    +0.000 OA
ATOM     22  H   UNL     1       8.956   7.564  19.885  0.00  0.00    +0.000 HD
ENDBRANCH  15  16
ENDBRANCH   1  13
BRANCH   7  23
ATOM     23  N   UNL     1       2.463   6.979  20.317  0.00  0.00    +0.000 N 
ATOM     24  H   UNL     1       3.466   7.117  20.438  0.00  0.00    +0.000 HD
BRANCH  23  25
ATOM     25  C   UNL     1       1.880   8.119  19.748  0.00  0.00    +0.000 A 
ATOM     26  C   UNL     1       2.036   8.491  18.407  0.00  0.00    +0.000 A 
ATOM     27  C   UNL     1       1.353   9.588  17.862  0.00  0.00    +0.000 A 
ATOM     28  C   UNL     1       0.494  10.336  18.657  0.00  0.00    +0.000 A 
ATOM     29  C   UNL     1       0.313   9.968  19.981  0.00  0.00    +0.000 A 
ATOM     30  F   UNL     1      -0.518  10.680  20.755  0.00  0.00    +0.000 F 
ATOM     31  C   UNL     1       0.977   8.867  20.521  0.00  0.00    +0.000 A 
ENDBRANCH  23  25
ENDBRANCH   7  23
TORSDOF 4
ENDMDL
MODEL 2
REMARK VINA RESULT:      -8.7      0.704      1.187
REMARK  Name = 
REMARK  5 active torsions:
REMARK  status: ('A' for Active; 'I' for Inactive)
REMARK    1  A    between atoms: C_1  and  C_2
REMARK    2  A    between atoms: C_5  and  C_6
REMARK    3  A    between atoms: C_12  and  N_13
REMARK    4  A    between atoms: N_13  and  C_14
REMARK    5  A    between atoms: C_23  and  N_24
REMARK                            x       y       z     vdW  Elec       q    Type
REMARK                         _______ _______ _______ _____ _____    ______ ____
ROOT
ATOM      1  C   UNL     1       3.738   2.841  18.180  0.00  0.00    +0.000 C 
ATOM      2  O   UNL     1       3.546   1.638  17.995  0.00  0.00    +0.000 OA
ATOM      3  N   UNL     1       3.069   3.561  19.177  0.00  0.00    +0.000 N 
ATOM      4  C   UNL     1       2.105   2.850  20.014  0.00  0.00    +0.000 C 
ATOM      5  C   UNL     1       0.839   3.680  20.213  0.00  0.00    +0.000 C 
ATOM      6  C   UNL     1       1.149   5.094  20.715  0.00  0.00    +0.000 C 
ATOM      7  C   UNL     1       2.163   5.797  19.795  0.00  0.00    +0.000 C 
ATOM      8  C   UNL     1       3.420   4.891  19.693  0.00  0.00    +0.000 C 
ENDROOT
BRANCH   1  13
ATOM      9  C   UNL     1       7.560   5.544  14.742  0.00  0.00    +0.000 C 
ATOM     10  C   UNL     1       6.563   4.881  15.653  0.00  0.00    +0.000 A 
ATOM     11  C   UNL     1       5.809   3.811  15.149  0.00  0.00    +0.000 A 
ATOM     12  C   UNL     1       4.933   3.102  15.970  0.00  0.00    +0.000 A 
ATOM     13  C   UNL     1       4.732   3.503  17.292  0.00  0.00    +0.000 A 
ATOM     14  C   UNL     1       5.537   4.521  17.827  0.00  0.00    +0.000 A 
ATOM     15  C   UNL     1       6.428   5.229  17.011  0.00  0.00    +0.000 A 
BRANCH  15  16
ATOM     16  N   UNL     1       7.216   6.245  17.575  0.00  0.00    +0.000 N 
ATOM     17  C   UNL     1       7.422   7.538  16.962  0.00  0.00    +0.000 C 
ATOM     18  C   UNL     1       7.946   8.368  18.130  0.00  0.00    +0.000 C 
ATOM     19  N   UNL     1       8.549   7.386  18.985  0.00  0.00    +0.000 N 
ATOM     20  C   UNL     1       7.986   6.134  18.742  0.00  0.00    +0.000 C 
ATOM     21  O   UNL     1       8.177   5.161  19.450  0.00  0.00    +0.000 OA
ATOM     22  H   UNL     1       8.996   7.556  19.877  0.00  0.00    +0.000 HD
ENDBRANCH  15  16
ENDBRANCH   1  13
BRANCH   7  23
ATOM     23  N   UNL     1       2.543   7.118  20.325  0.00  0.00    +0.000 N 
ATOM     24  H   UNL     1       3.425   7.454  19.941  0.00  0.00    +0.000 HD
BRANCH  23  25
ATOM     25  C   UNL     1       1.609   8.162  20.386  0.00  0.00    +0.000 A 
ATOM     26  C   UNL     1       0.990   8.590  21.567  0.00  0.00    +0.000 A 
ATOM     27  C   UNL     1       0.137   9.703  21.590  0.00  0.00    +0.000 A 
ATOM     28  C   UNL     1      -0.113  10.412  20.422  0.00  0.00    +0.000 A 
ATOM     29  C   UNL     1       0.509  10.012  19.249  0.00  0.00    +0.000 A 
ATOM     30  F   UNL     1       0.279  10.693  18.117  0.00  0.00    +0.000 F 
ATOM     31  C   UNL     1       1.372   8.918  19.227  0.00  0.00    +0.000 A 
ENDBRANCH  23  25
ENDBRANCH   7  23
TORSDOF 4
ENDMDL
MODEL 3
REMARK VINA RESULT:      -8.7      7.804     11.990
REMARK  Name = 
REMARK  5 active torsions:
REMARK  status: ('A' for Active; 'I' for Inactive)
REMARK    1  A    between atoms: C_1  and  C_2
REMARK    2  A    between atoms: C_5  and  C_6
REMARK    3  A    between atoms: C_12  and  N_13
REMARK    4  A    between atoms: N_13  and  C_14
REMARK    5  A    between atoms: C_23  and  N_24
REMARK                            x       y       z     vdW  Elec       q    Type
REMARK                         _______ _______ _______ _____ _____    ______ ____
ROOT
ATOM      1  C   UNL     1      -5.923  11.603  18.475  0.00  0.00    +0.000 C 
ATOM      2  O   UNL     1      -6.857  11.422  17.693  0.00  0.00    +0.000 OA
ATOM      3  N   UNL     1      -4.584  11.514  18.075  0.00  0.00    +0.000 N 
ATOM      4  C   UNL     1      -4.300  11.182  16.680  0.00  0.00    +0.000 C 
ATOM      5  C   UNL     1      -3.171  10.159  16.582  0.00  0.00    +0.000 C 
ATOM      6  C   UNL     1      -1.928  10.594  17.365  0.00  0.00    +0.000 C 
ATOM      7  C   UNL     1      -2.283  10.926  18.825  0.00  0.00    +0.000 C 
ATOM      8  C   UNL     1      -3.408  11.997  18.810  0.00  0.00    +0.000 C 
ENDROOT
BRANCH   1  13
ATOM      9  C   UNL     1      -7.216  12.841  24.000  0.00  0.00    +0.000 C 
ATOM     10  C   UNL     1      -6.840  12.514  22.581  0.00  0.00    +0.000 A 
ATOM     11  C   UNL     1      -7.792  11.881  21.768  0.00  0.00    +0.000 A 
ATOM     12  C   UNL     1      -7.532  11.632  20.421  0.00  0.00    +0.000 A 
ATOM     13  C   UNL     1      -6.283  11.938  19.880  0.00  0.00    +0.000 A 
ATOM     14  C   UNL     1      -5.352  12.641  20.662  0.00  0.00    +0.000 A 
ATOM     15  C   UNL     1      -5.611  12.906  22.013  0.00  0.00    +0.000 A 
BRANCH  15  16
ATOM     16  N   UNL     1      -4.660  13.607  22.769  0.00  0.00    +0.000 N 
ATOM     17  C   UNL     1      -4.337  15.001  22.566  0.00  0.00    +0.000 C 
ATOM     18  C   UNL     1      -3.624  15.360  23.866  0.00  0.00    +0.000 C 
ATOM     19  N   UNL     1      -3.087  14.102  24.303  0.00  0.00    +0.000 N 
ATOM     20  C   UNL     1      -3.823  13.054  23.750  0.00  0.00    +0.000 C 
ATOM     21  O   UNL     1      -3.705  11.892  24.097  0.00  0.00    +0.000 OA
ATOM     22  H   UNL     1      -2.556  13.934  25.147  0.00  0.00    +0.000 HD
ENDBRANCH  15  16
ENDBRANCH   1  13
BRANCH   7  23
ATOM     23  N   UNL     1      -1.114  11.441  19.558  0.00  0.00    +0.000 N 
ATOM     24  H   UNL     1      -1.156  12.450  19.699  0.00  0.00    +0.000 HD
BRANCH  23  25
ATOM     25  C   UNL     1      -0.658  10.806  20.721  0.00  0.00    +0.000 A 
ATOM     26  C   UNL     1      -1.036  11.178  22.016  0.00  0.00    +0.000 A 
ATOM     27  C   UNL     1      -0.629  10.448  23.142  0.00  0.00    +0.000 A 
ATOM     28  C   UNL     1       0.172   9.324  22.989  0.00  0.00    +0.000 A 
ATOM     29  C   UNL     1       0.539   8.930  21.710  0.00  0.00    +0.000 A 
ATOM     30  F   UNL     1       1.307   7.844  21.552  0.00  0.00    +0.000 F 
ATOM     31  C   UNL     1       0.119   9.643  20.588  0.00  0.00    +0.000 A 
ENDBRANCH  23  25
ENDBRANCH   7  23
TORSDOF 4
ENDMDL
MODEL 4
REMARK VINA RESULT:      -8.7      6.421     10.383
REMARK  Name = 
REMARK  5 active torsions:
REMARK  status: ('A' for Active; 'I' for Inactive)
REMARK    1  A    between atoms: C_1  and  C_2
REMARK    2  A    between atoms: C_5  and  C_6
REMARK    3  A    between atoms: C_12  and  N_13
REMARK    4  A    between atoms: N_13  and  C_14
REMARK    5  A    between atoms: C_23  and  N_24
REMARK                            x       y       z     vdW  Elec       q    Type
REMARK                         _______ _______ _______ _____ _____    ______ ____
ROOT
ATOM      1  C   UNL     1      -3.856  13.232  22.480  0.00  0.00    +0.000 C 
ATOM      2  O   UNL     1      -4.071  13.468  23.670  0.00  0.00    +0.000 OA
ATOM      3  N   UNL     1      -4.891  13.034  21.558  0.00  0.00    +0.000 N 
ATOM      4  C   UNL     1      -6.269  13.101  22.040  0.00  0.00    +0.000 C 
ATOM      5  C   UNL     1      -7.110  11.974  21.446  0.00  0.00    +0.000 C 
ATOM      6  C   UNL     1      -7.006  11.920  19.918  0.00  0.00    +0.000 C 
ATOM      7  C   UNL     1      -5.536  11.845  19.467  0.00  0.00    +0.000 C 
ATOM      8  C   UNL     1      -4.784  13.051  20.093  0.00  0.00    +0.000 C 
ENDROOT
BRANCH   1  13
ATOM      9  C   UNL     1       1.736  12.944  20.939  0.00  0.00    +0.000 C 
ATOM     10  C   UNL     1       0.293  12.982  21.361  0.00  0.00    +0.000 A 
ATOM     11  C   UNL     1      -0.326  14.233  21.505  0.00  0.00    +0.000 A 
ATOM     12  C   UNL     1      -1.684  14.331  21.809  0.00  0.00    +0.000 A 
ATOM     13  C   UNL     1      -2.431  13.178  22.057  0.00  0.00    +0.000 A 
ATOM     14  C   UNL     1      -1.842  11.922  21.841  0.00  0.00    +0.000 A 
ATOM     15  C   UNL     1      -0.482  11.817  21.523  0.00  0.00    +0.000 A 
BRANCH  15  16
ATOM     16  N   UNL     1       0.079  10.546  21.317  0.00  0.00    +0.000 N 
ATOM     17  C   UNL     1       0.170   9.906  20.025  0.00  0.00    +0.000 C 
ATOM     18  C   UNL     1       1.206   8.815  20.277  0.00  0.00    +0.000 C 
ATOM     19  N   UNL     1       1.080   8.564  21.686  0.00  0.00    +0.000 N 
ATOM     20  C   UNL     1       0.538   9.681  22.321  0.00  0.00    +0.000 C 
ATOM     21  O   UNL     1       0.494   9.812  23.531  0.00  0.00    +0.000 OA
ATOM     22  H   UNL     1       1.621   7.906  22.231  0.00  0.00    +0.000 HD
ENDBRANCH  15  16
ENDBRANCH   1  13
BRANCH   7  23
ATOM     23  N   UNL     1      -5.423  11.895  17.999  0.00  0.00    +0.000 N 
ATOM     24  H   UNL     1      -5.549  12.837  17.630  0.00  0.00    +0.000 HD
BRANCH  23  25
ATOM     25  C   UNL     1      -4.368  11.250  17.338  0.00  0.00    +0.000 A 
ATOM     26  C   UNL     1      -3.359  10.532  17.991  0.00  0.00    +0.000 A 
ATOM     27  C   UNL     1      -2.380   9.823  17.279  0.00  0.00    +0.000 A 
ATOM     28  C   UNL     1      -2.396   9.822  15.890  0.00  0.00    +0.000 A 
ATOM     29  C   UNL     1      -3.401  10.512  15.229  0.00  0.00    +0.000 A 
ATOM     30  F   UNL     1      -3.428  10.513  13.889  0.00  0.00    +0.000 F 
ATOM     31  C   UNL     1      -4.386  11.202  15.935  0.00  0.00    +0.000 A 
ENDBRANCH  23  25
ENDBRANCH   7  23
TORSDOF 4
ENDMDL
MODEL 5
REMARK VINA RESULT:      -8.6      3.137      7.081
REMARK  Name = 
REMARK  5 active torsions:
REMARK  status: ('A' for Active; 'I' for Inactive)
REMARK    1  A    between atoms: C_1  and  C_2
REMARK    2  A    between atoms: C_5  and  C_6
REMARK    3  A    between atoms: C_12  and  N_13
REMARK    4  A    between atoms: N_13  and  C_14
REMARK    5  A    between atoms: C_23  and  N_24
REMARK                            x       y       z     vdW  Elec       q    Type
REMARK                         _______ _______ _______ _____ _____    ______ ____
ROOT
ATOM      1  C   UNL     1       4.141   7.158  16.988  0.00  0.00    +0.000 C 
ATOM      2  O   UNL     1       4.440   8.082  16.231  0.00  0.00    +0.000 OA
ATOM      3  N   UNL     1       4.704   5.881  16.869  0.00  0.00    +0.000 N 
ATOM      4  C   UNL     1       5.670   5.649  15.797  0.00  0.00    +0.000 C 
ATOM      5  C   UNL     1       5.410   4.312  15.108  0.00  0.00    +0.000 C 
ATOM      6  C   UNL     1       5.326   3.154  16.107  0.00  0.00    +0.000 C 
ATOM      7  C   UNL     1       4.291   3.449  17.208  0.00  0.00    +0.000 C 
ATOM      8  C   UNL     1       4.669   4.804  17.866  0.00  0.00    +0.000 C 
ENDROOT
BRANCH   1  13
ATOM      9  C   UNL     1       0.344   8.466  21.183  0.00  0.00    +0.000 C 
ATOM     10  C   UNL     1       1.337   8.169  20.093  0.00  0.00    +0.000 A 
ATOM     11  C   UNL     1       2.018   6.943  20.128  0.00  0.00    +0.000 A 
ATOM     12  C   UNL     1       2.884   6.575  19.099  0.00  0.00    +0.000 A 
ATOM     13  C   UNL     1       3.151   7.463  18.056  0.00  0.00    +0.000 A 
ATOM     14  C   UNL     1       2.418   8.658  17.971  0.00  0.00    +0.000 A 
ATOM     15  C   UNL     1       1.536   9.028  18.994  0.00  0.00    +0.000 A 
BRANCH  15  16
ATOM     16  N   UNL     1       0.821  10.230  18.883  0.00  0.00    +0.000 N 
ATOM     17  C   UNL     1       1.148  11.432  19.615  0.00  0.00    +0.000 C 
ATOM     18  C   UNL     1       0.393  12.502  18.833  0.00  0.00    +0.000 C 
ATOM     19  N   UNL     1      -0.690  11.770  18.239  0.00  0.00    +0.000 N 
ATOM     20  C   UNL     1      -0.351  10.421  18.136  0.00  0.00    +0.000 C 
ATOM     21  O   UNL     1      -1.004   9.609  17.505  0.00  0.00    +0.000 OA
ATOM     22  H   UNL     1      -1.405  12.142  17.628  0.00  0.00    +0.000 HD
ENDBRANCH  15  16
ENDBRANCH   1  13
BRANCH   7  23
ATOM     23  N   UNL     1       4.276   2.386  18.228  0.00  0.00    +0.000 N 
ATOM     24  H   UNL     1       5.210   2.162  18.571  0.00  0.00    +0.000 HD
BRANCH  23  25
ATOM     25  C   UNL     1       3.363   2.424  19.291  0.00  0.00    +0.000 A 
ATOM     26  C   UNL     1       3.733   2.416  20.641  0.00  0.00    +0.000 A 
ATOM     27  C   UNL     1       2.786   2.554  21.666  0.00  0.00    +0.000 A 
ATOM     28  C   UNL     1       1.441   2.702  21.354  0.00  0.00    +0.000 A 
ATOM     29  C   UNL     1       1.061   2.732  20.020  0.00  0.00    +0.000 A 
ATOM     30  F   UNL     1      -0.234   2.881  19.708  0.00  0.00    +0.000 F 
ATOM     31  C   UNL     1       2.003   2.615  18.999  0.00  0.00    +0.000 A 
ENDBRANCH  23  25
ENDBRANCH   7  23
TORSDOF 4
ENDMDL
MODEL 6
REMARK VINA RESULT:      -8.5      3.178      7.272
REMARK  Name = 
REMARK  5 active torsions:
REMARK  status: ('A' for Active; 'I' for Inactive)
REMARK    1  A    between atoms: C_1  and  C_2
REMARK    2  A    between atoms: C_5  and  C_6
REMARK    3  A    between atoms: C_12  and  N_13
REMARK    4  A    between atoms: N_13  and  C_14
REMARK    5  A    between atoms: C_23  and  N_24
REMARK                            x       y       z     vdW  Elec       q    Type
REMARK                         _______ _______ _______ _____ _____    ______ ____
ROOT
ATOM      1  C   UNL     1       3.760   7.518  17.434  0.00  0.00    +0.000 C 
ATOM      2  O   UNL     1       3.992   8.530  16.772  0.00  0.00    +0.000 OA
ATOM      3  N   UNL     1       4.409   6.300  17.191  0.00  0.00    +0.000 N 
ATOM      4  C   UNL     1       5.384   6.241  16.105  0.00  0.00    +0.000 C 
ATOM      5  C   UNL     1       5.212   4.963  15.287  0.00  0.00    +0.000 C 
ATOM      6  C   UNL     1       5.211   3.710  16.168  0.00  0.00    +0.000 C 
ATOM      7  C   UNL     1       4.164   3.824  17.291  0.00  0.00    +0.000 C 
ATOM      8  C   UNL     1       4.452   5.131  18.079  0.00  0.00    +0.000 C 
ENDROOT
BRANCH   1  13
ATOM      9  C   UNL     1      -0.097   8.147  21.729  0.00  0.00    +0.000 C 
ATOM     10  C   UNL     1       0.909   8.027  20.618  0.00  0.00    +0.000 A 
ATOM     11  C   UNL     1       1.665   6.848  20.528  0.00  0.00    +0.000 A 
ATOM     12  C   UNL     1       2.550   6.643  19.470  0.00  0.00    +0.000 A 
ATOM     13  C   UNL     1       2.757   7.649  18.525  0.00  0.00    +0.000 A 
ATOM     14  C   UNL     1       1.950   8.798  18.561  0.00  0.00    +0.000 A 
ATOM     15  C   UNL     1       1.050   9.005  19.614  0.00  0.00    +0.000 A 
BRANCH  15  16
ATOM     16  N   UNL     1       0.261  10.165  19.624  0.00  0.00    +0.000 N 
ATOM     17  C   UNL     1      -0.826  10.408  18.704  0.00  0.00    +0.000 C 
ATOM     18  C   UNL     1      -1.592  11.531  19.397  0.00  0.00    +0.000 C 
ATOM     19  N   UNL     1      -0.581  12.176  20.187  0.00  0.00    +0.000 N 
ATOM     20  C   UNL     1       0.461  11.286  20.444  0.00  0.00    +0.000 C 
ATOM     21  O   UNL     1       1.356  11.508  21.240  0.00  0.00    +0.000 OA
ATOM     22  H   UNL     1      -0.712  12.966  20.805  0.00  0.00    +0.000 HD
ENDBRANCH  15  16
ENDBRANCH   1  13
BRANCH   7  23
ATOM     23  N   UNL     1       4.227   2.668  18.202  0.00  0.00    +0.000 N 
ATOM     24  H   UNL     1       5.180   2.450  18.489  0.00  0.00    +0.000 HD
BRANCH  23  25
ATOM     25  C   UNL     1       3.354   2.567  19.294  0.00  0.00    +0.000 A 
ATOM     26  C   UNL     1       3.774   2.401  20.619  0.00  0.00    +0.000 A 
ATOM     27  C   UNL     1       2.865   2.404  21.687  0.00  0.00    +0.000 A 
ATOM     28  C   UNL     1       1.508   2.573  21.443  0.00  0.00    +0.000 A 
ATOM     29  C   UNL     1       1.078   2.758  20.138  0.00  0.00    +0.000 A 
ATOM     30  F   UNL     1      -0.229   2.928  19.893  0.00  0.00    +0.000 F 
ATOM     31  C   UNL     1       1.982   2.776  19.077  0.00  0.00    +0.000 A 
ENDBRANCH  23  25
ENDBRANCH   7  23
TORSDOF 4
ENDMDL
MODEL 7
REMARK VINA RESULT:      -8.5      7.109     11.870
REMARK  Name = 
REMARK  5 active torsions:
REMARK  status: ('A' for Active; 'I' for Inactive)
REMARK    1  A    between atoms: C_1  and  C_2
REMARK    2  A    between atoms: C_5  and  C_6
REMARK    3  A    between atoms: C_12  and  N_13
REMARK    4  A    between atoms: N_13  and  C_14
REMARK    5  A    between atoms: C_23  and  N_24
REMARK                            x       y       z     vdW  Elec       q    Type
REMARK                         _______ _______ _______ _____ _____    ______ ____
ROOT
ATOM      1  C   UNL     1      -5.835  11.666  18.391  0.00  0.00    +0.000 C 
ATOM      2  O   UNL     1      -6.758  11.567  17.581  0.00  0.00    +0.000 OA
ATOM      3  N   UNL     1      -4.492  11.544  18.015  0.00  0.00    +0.000 N 
ATOM      4  C   UNL     1      -4.190  11.278  16.610  0.00  0.00    +0.000 C 
ATOM      5  C   UNL     1      -3.101  10.216  16.478  0.00  0.00    +0.000 C 
ATOM      6  C   UNL     1      -1.860  10.555  17.310  0.00  0.00    +0.000 C 
ATOM      7  C   UNL     1      -2.235  10.820  18.779  0.00  0.00    +0.000 C 
ATOM      8  C   UNL     1      -3.315  11.936  18.801  0.00  0.00    +0.000 C 
ENDROOT
BRANCH   1  13
ATOM      9  C   UNL     1      -7.199  12.660  23.949  0.00  0.00    +0.000 C 
ATOM     10  C   UNL     1      -6.804  12.399  22.521  0.00  0.00    +0.000 A 
ATOM     11  C   UNL     1      -7.722  11.746  21.685  0.00  0.00    +0.000 A 
ATOM     12  C   UNL     1      -7.448  11.554  20.331  0.00  0.00    +0.000 A 
ATOM     13  C   UNL     1      -6.214  11.937  19.805  0.00  0.00    +0.000 A 
ATOM     14  C   UNL     1      -5.321  12.660  20.612  0.00  0.00    +0.000 A 
ATOM     15  C   UNL     1      -5.595  12.868  21.970  0.00  0.00    +0.000 A 
BRANCH  15  16
ATOM     16  N   UNL     1      -4.681  13.590  22.752  0.00  0.00    +0.000 N 
ATOM     17  C   UNL     1      -4.587  15.032  22.757  0.00  0.00    +0.000 C 
ATOM     18  C   UNL     1      -3.800  15.301  24.035  0.00  0.00    +0.000 C 
ATOM     19  N   UNL     1      -3.044  14.093  24.213  0.00  0.00    +0.000 N 
ATOM     20  C   UNL     1      -3.674  13.037  23.557  0.00  0.00    +0.000 C 
ATOM     21  O   UNL     1      -3.352  11.870  23.696  0.00  0.00    +0.000 OA
ATOM     22  H   UNL     1      -2.407  13.887  24.972  0.00  0.00    +0.000 HD
ENDBRANCH  15  16
ENDBRANCH   1  13
BRANCH   7  23
ATOM     23  N   UNL     1      -1.063  11.245  19.564  0.00  0.00    +0.000 N 
ATOM     24  H   UNL     1      -1.237  12.100  20.092  0.00  0.00    +0.000 HD
BRANCH  23  25
ATOM     25  C   UNL     1      -0.351  10.326  20.346  0.00  0.00    +0.000 A 
ATOM     26  C   UNL     1       0.607   9.442  19.836  0.00  0.00    +0.000 A 
ATOM     27  C   UNL     1       1.362   8.609  20.674  0.00  0.00    +0.000 A 
ATOM     28  C   UNL     1       1.169   8.648  22.049  0.00  0.00    +0.000 A 
ATOM     29  C   UNL     1       0.238   9.533  22.571  0.00  0.00    +0.000 A 
ATOM     30  F   UNL     1       0.048   9.582  23.897  0.00  0.00    +0.000 F 
ATOM     31  C   UNL     1      -0.500  10.375  21.742  0.00  0.00    +0.000 A 
ENDBRANCH  23  25
ENDBRANCH   7  23
TORSDOF 4
ENDMDL
MODEL 8
REMARK VINA RESULT:      -8.3      3.508      6.057
REMARK  Name = 
REMARK  5 active torsions:
REMARK  status: ('A' for Active; 'I' for Inactive)
REMARK    1  A    between atoms: C_1  and  C_2
REMARK    2  A    between atoms: C_5  and  C_6
REMARK    3  A    between atoms: C_12  and  N_13
REMARK    4  A    between atoms: N_13  and  C_14
REMARK    5  A    between atoms: C_23  and  N_24
REMARK                            x       y       z     vdW  Elec       q    Type
REMARK                         _______ _______ _______ _____ _____    ______ ____
ROOT
ATOM      1  C   UNL     1       1.154   8.596  20.682  0.00  0.00    +0.000 C 
ATOM      2  O   UNL     1       0.903   7.893  21.662  0.00  0.00    +0.000 OA
ATOM      3  N   UNL     1       0.695   9.914  20.568  0.00  0.00    +0.000 N 
ATOM      4  C   UNL     1      -0.120  10.458  21.652  0.00  0.00    +0.000 C 
ATOM      5  C   UNL     1      -1.308  11.242  21.100  0.00  0.00    +0.000 C 
ATOM      6  C   UNL     1      -0.877  12.299  20.078  0.00  0.00    +0.000 C 
ATOM      7  C   UNL     1      -0.028  11.671  18.958  0.00  0.00    +0.000 C 
ATOM      8  C   UNL     1       1.167  10.935  19.623  0.00  0.00    +0.000 C 
ENDROOT
BRANCH   1  13
ATOM      9  C   UNL     1       4.512   6.171  16.611  0.00  0.00    +0.000 C 
ATOM     10  C   UNL     1       3.666   6.778  17.695  0.00  0.00    +0.000 A 
ATOM     11  C   UNL     1       3.122   8.054  17.480  0.00  0.00    +0.000 A 
ATOM     12  C   UNL     1       2.259   8.631  18.411  0.00  0.00    +0.000 A 
ATOM     13  C   UNL     1       1.989   7.979  19.615  0.00  0.00    +0.000 A 
ATOM     14  C   UNL     1       2.464   6.671  19.806  0.00  0.00    +0.000 A 
ATOM     15  C   UNL     1       3.321   6.080  18.869  0.00  0.00    +0.000 A 
BRANCH  15  16
ATOM     16  N   UNL     1       3.783   4.773  19.091  0.00  0.00    +0.000 N 
ATOM     17  C   UNL     1       2.930   3.607  19.094  0.00  0.00    +0.000 C 
ATOM     18  C   UNL     1       3.935   2.471  18.936  0.00  0.00    +0.000 C 
ATOM     19  N   UNL     1       5.141   3.022  19.488  0.00  0.00    +0.000 N 
ATOM     20  C   UNL     1       5.095   4.415  19.432  0.00  0.00    +0.000 C 
ATOM     21  O   UNL     1       6.055   5.129  19.660  0.00  0.00    +0.000 OA
ATOM     22  H   UNL     1       6.041   2.564  19.546  0.00  0.00    +0.000 HD
ENDBRANCH  15  16
ENDBRANCH   1  13
BRANCH   7  23
ATOM     23  N   UNL     1       0.474  12.696  18.027  0.00  0.00    +0.000 N 
ATOM     24  H   UNL     1      -0.277  13.173  17.530  0.00  0.00    +0.000 HD
BRANCH  23  25
ATOM     25  C   UNL     1       1.451  13.616  18.432  0.00  0.00    +0.000 A 
ATOM     26  C   UNL     1       1.235  14.618  19.386  0.00  0.00    +0.000 A 
ATOM     27  C   UNL     1       2.273  15.451  19.828  0.00  0.00    +0.000 A 
ATOM     28  C   UNL     1       3.555  15.295  19.317  0.00  0.00    +0.000 A 
ATOM     29  C   UNL     1       3.789  14.294  18.385  0.00  0.00    +0.000 A 
ATOM     30  F   UNL     1       5.024  14.132  17.890  0.00  0.00    +0.000 F 
ATOM     31  C   UNL     1       2.763  13.452  17.959  0.00  0.00    +0.000 A 
ENDBRANCH  23  25
ENDBRANCH   7  23
TORSDOF 4
ENDMDL
MODEL 9
REMARK VINA RESULT:      -8.3      3.327      6.758
REMARK  Name = 
REMARK  5 active torsions:
REMARK  status: ('A' for Active; 'I' for Inactive)
REMARK    1  A    between atoms: C_1  and  C_2
REMARK    2  A    between atoms: C_5  and  C_6
REMARK    3  A    between atoms: C_12  and  N_13
REMARK    4  A    between atoms: N_13  and  C_14
REMARK    5  A    between atoms: C_23  and  N_24
REMARK                            x       y       z     vdW  Elec       q    Type
REMARK                         _______ _______ _______ _____ _____    ______ ____
ROOT
ATOM      1  C   UNL     1       1.596   5.158  20.023  0.00  0.00    +0.000 C 
ATOM      2  O   UNL     1       0.559   4.949  20.654  0.00  0.00    +0.000 OA
ATOM      3  N   UNL     1       2.550   4.157  19.799  0.00  0.00    +0.000 N 
ATOM      4  C   UNL     1       2.297   2.827  20.348  0.00  0.00    +0.000 C 
ATOM      5  C   UNL     1       3.562   2.249  20.979  0.00  0.00    +0.000 C 
ATOM      6  C   UNL     1       4.757   2.292  20.022  0.00  0.00    +0.000 C 
ATOM      7  C   UNL     1       4.979   3.715  19.479  0.00  0.00    +0.000 C 
ATOM      8  C   UNL     1       3.651   4.189  18.828  0.00  0.00    +0.000 C 
ENDROOT
BRANCH   1  13
ATOM      9  C   UNL     1       2.214  10.540  17.930  0.00  0.00    +0.000 C 
ATOM     10  C   UNL     1       2.013   9.155  18.481  0.00  0.00    +0.000 A 
ATOM     11  C   UNL     1       2.755   8.102  17.925  0.00  0.00    +0.000 A 
ATOM     12  C   UNL     1       2.676   6.813  18.451  0.00  0.00    +0.000 A 
ATOM     13  C   UNL     1       1.789   6.535  19.492  0.00  0.00    +0.000 A 
ATOM     14  C   UNL     1       1.100   7.594  20.106  0.00  0.00    +0.000 A 
ATOM     15  C   UNL     1       1.185   8.893  19.590  0.00  0.00    +0.000 A 
BRANCH  15  16
ATOM     16  N   UNL     1       0.481   9.930  20.223  0.00  0.00    +0.000 N 
ATOM     17  C   UNL     1       0.869  10.511  21.488  0.00  0.00    +0.000 C 
ATOM     18  C   UNL     1       0.082  11.818  21.498  0.00  0.00    +0.000 C 
ATOM     19  N   UNL     1      -1.045  11.527  20.656  0.00  0.00    +0.000 N 
ATOM     20  C   UNL     1      -0.732  10.483  19.787  0.00  0.00    +0.000 C 
ATOM     21  O   UNL     1      -1.433  10.157  18.846  0.00  0.00    +0.000 OA
ATOM     22  H   UNL     1      -1.792  12.163  20.408  0.00  0.00    +0.000 HD
ENDBRANCH  15  16
ENDBRANCH   1  13
BRANCH   7  23
ATOM     23  N   UNL     1       6.062   3.744  18.480  0.00  0.00    +0.000 N 
ATOM     24  H   UNL     1       5.907   3.086  17.718  0.00  0.00    +0.000 HD
BRANCH  23  25
ATOM     25  C   UNL     1       6.545   4.962  17.982  0.00  0.00    +0.000 A 
ATOM     26  C   UNL     1       6.061   5.580  16.823  0.00  0.00    +0.000 A 
ATOM     27  C   UNL     1       6.511   6.846  16.420  0.00  0.00    +0.000 A 
ATOM     28  C   UNL     1       7.461   7.519  17.176  0.00  0.00    +0.000 A 
ATOM     29  C   UNL     1       7.935   6.929  18.338  0.00  0.00    +0.000 A 
ATOM     30  F   UNL     1       8.848   7.573  19.078  0.00  0.00    +0.000 F 
ATOM     31  C   UNL     1       7.476   5.679  18.751  0.00  0.00    +0.000 A 
ENDBRANCH  23  25
ENDBRANCH   7  23
TORSDOF 4
ENDMDL
