MODEL 1
REMARK VINA RESULT:      -8.0      0.000      0.000
REMARK  Name = 
REMARK  11 active torsions:
REMARK  status: ('A' for Active; 'I' for Inactive)
REMARK    1  A    between atoms: C_1  and  O_2
REMARK    2  A    between atoms: O_2  and  C_3
REMARK    3  A    between atoms: C_3  and  C_4
REMARK    4  A    between atoms: C_4  and  N_5
REMARK    5  A    between atoms: N_5  and  C_6
REMARK    6  A    between atoms: C_8  and  C_9
REMARK    7  A    between atoms: C_10  and  C_11
REMARK    8  A    between atoms: C_15  and  O_16
REMARK    9  A    between atoms: O_16  and  C_17
REMARK   10  A    between atoms: C_20  and  S_21
REMARK   11  A    between atoms: S_21  and  C_24
REMARK                            x       y       z     vdW  Elec       q    Type
REMARK                         _______ _______ _______ _____ _____    ______ ____
ROOT
ATOM      1  C   UNL     1       2.976   5.330  19.937  0.00  0.00    +0.000 A 
ATOM      2  O   UNL     1       2.062   6.309  19.668  0.00  0.00    +0.000 OA
ATOM      3  C   UNL     1       2.658   7.151  18.747  0.00  0.00    +0.000 A 
ATOM      4  N   UNL     1       3.860   6.721  18.391  0.00  0.00    +0.000 NA
ATOM      5  C   UNL     1       4.086   5.599  19.172  0.00  0.00    +0.000 A 
ENDROOT
BRANCH   5   6
ATOM      6  S   UNL     1       5.488   4.602  19.038  0.00  0.00    +0.000 S 
ATOM      7  O   UNL     1       6.562   5.314  19.709  0.00  0.00    +0.000 OA
ATOM      8  O   UNL     1       5.067   3.277  19.455  0.00  0.00    +0.000 OA
BRANCH   6   9
ATOM      9  C   UNL     1       5.844   4.567  17.300  0.00  0.00    +0.000 A 
ATOM     10  C   UNL     1       7.108   4.957  16.848  0.00  0.00    +0.000 A 
ATOM     11  C   UNL     1       7.363   4.993  15.477  0.00  0.00    +0.000 A 
ATOM     12  C   UNL     1       6.367   4.628  14.570  0.00  0.00    +0.000 A 
ATOM     13  C   UNL     1       5.118   4.204  15.030  0.00  0.00    +0.000 A 
ATOM     14  C   UNL     1       4.854   4.167  16.398  0.00  0.00    +0.000 A 
ENDBRANCH   6   9
ENDBRANCH   5   6
BRANCH   1  15
ATOM     15  N   UNL     1       2.639   4.372  20.818  0.00  0.00    +0.000 N 
ATOM     16  H   UNL     1       3.296   4.042  21.529  0.00  0.00    +0.000 HD
BRANCH  15  17
ATOM     17  C   UNL     1       1.337   3.725  20.801  0.00  0.00    +0.000 C 
BRANCH  17  18
ATOM     18  C   UNL     1       1.428   2.374  20.078  0.00  0.00    +0.000 C 
BRANCH  18  20
ATOM     19  C   UNL     1       2.210   2.252  17.852  0.00  0.00    +0.000 C 
ATOM     20  O   UNL     1       1.106   2.549  18.695  0.00  0.00    +0.000 OA
ENDBRANCH  18  20
ENDBRANCH  17  18
ENDBRANCH  15  17
ENDBRANCH   1  15
BRANCH   3  21
ATOM     21  C   UNL     1       2.004   8.331  18.290  0.00  0.00    +0.000 C 
ATOM     22  C   UNL     1       1.443   9.195  19.152  0.00  0.00    +0.000 C 
BRANCH  22  23
ATOM     23  C   UNL     1       0.668  10.383  18.757  0.00  0.00    +0.000 A 
ATOM     24  C   UNL     1       1.252  11.651  18.859  0.00  0.00    +0.000 A 
ATOM     25  C   UNL     1       0.512  12.798  18.566  0.00  0.00    +0.000 A 
ATOM     26  C   UNL     1      -0.824  12.686  18.181  0.00  0.00    +0.000 A 
ATOM     27  C   UNL     1      -1.427  11.431  18.086  0.00  0.00    +0.000 A 
ATOM     28  C   UNL     1      -0.680  10.287  18.375  0.00  0.00    +0.000 A 
BRANCH  27  29
ATOM     29  O   UNL     1      -2.747  11.451  17.719  0.00  0.00    +0.000 OA
ATOM     30  C   UNL     1      -3.301  10.218  17.268  0.00  0.00    +0.000 C 
ENDBRANCH  27  29
ENDBRANCH  22  23
ENDBRANCH   3  21
TORSDOF 9
ENDMDL
MODEL 2
REMARK VINA RESULT:      -8.0      2.258      3.064
REMARK  Name = 
REMARK  11 active torsions:
REMARK  status: ('A' for Active; 'I' for Inactive)
REMARK    1  A    between atoms: C_1  and  O_2
REMARK    2  A    between atoms: O_2  and  C_3
REMARK    3  A    between atoms: C_3  and  C_4
REMARK    4  A    between atoms: C_4  and  N_5
REMARK    5  A    between atoms: N_5  and  C_6
REMARK    6  A    between atoms: C_8  and  C_9
REMARK    7  A    between atoms: C_10  and  C_11
REMARK    8  A    between atoms: C_15  and  O_16
REMARK    9  A    between atoms: O_16  and  C_17
REMARK   10  A    between atoms: C_20  and  S_21
REMARK   11  A    between atoms: S_21  and  C_24
REMARK                            x       y       z     vdW  Elec       q    Type
REMARK                         _______ _______ _______ _____ _____    ______ ____
ROOT
ATOM      1  C   UNL     1       4.754   4.931  17.732  0.00  0.00    +0.000 A 
ATOM      2  O   UNL     1       3.600   5.603  18.014  0.00  0.00    +0.000 OA
ATOM      3  C   UNL     1       3.788   6.899  17.570  0.00  0.00    +0.000 A 
ATOM      4  N   UNL     1       4.966   7.052  16.982  0.00  0.00    +0.000 NA
ATOM      5  C   UNL     1       5.599   5.827  17.122  0.00  0.00    +0.000 A 
ENDROOT
BRANCH   5   6
ATOM      6  S   UNL     1       7.145   5.463  16.447  0.00  0.00    +0.000 S 
ATOM      7  O   UNL     1       7.847   6.729  16.327  0.00  0.00    +0.000 OA
ATOM      8  O   UNL     1       7.669   4.366  17.241  0.00  0.00    +0.000 OA
BRANCH   6   9
ATOM      9  C   UNL     1       6.789   4.866  14.816  0.00  0.00    +0.000 A 
ATOM     10  C   UNL     1       5.657   4.072  14.604  0.00  0.00    +0.000 A 
ATOM     11  C   UNL     1       5.416   3.548  13.333  0.00  0.00    +0.000 A 
ATOM     12  C   UNL     1       6.293   3.830  12.284  0.00  0.00    +0.000 A 
ATOM     13  C   UNL     1       7.401   4.653  12.493  0.00  0.00    +0.000 A 
ATOM     14  C   UNL     1       7.650   5.179  13.761  0.00  0.00    +0.000 A 
ENDBRANCH   6   9
ENDBRANCH   5   6
BRANCH   1  15
ATOM     15  N   UNL     1       4.831   3.632  18.070  0.00  0.00    +0.000 N 
ATOM     16  H   UNL     1       5.016   2.906  17.374  0.00  0.00    +0.000 HD
BRANCH  15  17
ATOM     17  C   UNL     1       4.633   3.173  19.436  0.00  0.00    +0.000 C 
BRANCH  17  18
ATOM     18  C   UNL     1       3.325   2.375  19.539  0.00  0.00    +0.000 C 
BRANCH  18  20
ATOM     19  C   UNL     1       1.714   2.705  21.234  0.00  0.00    +0.000 C 
ATOM     20  O   UNL     1       2.287   3.221  20.041  0.00  0.00    +0.000 OA
ENDBRANCH  18  20
ENDBRANCH  17  18
ENDBRANCH  15  17
ENDBRANCH   1  15
BRANCH   3  21
ATOM     21  C   UNL     1       2.797   7.903  17.768  0.00  0.00    +0.000 C 
ATOM     22  C   UNL     1       2.228   8.093  18.969  0.00  0.00    +0.000 C 
BRANCH  22  23
ATOM     23  C   UNL     1       1.131   9.039  19.233  0.00  0.00    +0.000 A 
ATOM     24  C   UNL     1       0.434   9.602  18.157  0.00  0.00    +0.000 A 
ATOM     25  C   UNL     1      -0.556  10.560  18.377  0.00  0.00    +0.000 A 
ATOM     26  C   UNL     1      -0.849  10.974  19.677  0.00  0.00    +0.000 A 
ATOM     27  C   UNL     1      -0.157  10.433  20.762  0.00  0.00    +0.000 A 
ATOM     28  C   UNL     1       0.829   9.471  20.535  0.00  0.00    +0.000 A 
BRANCH  27  29
ATOM     29  O   UNL     1      -0.518  10.933  21.984  0.00  0.00    +0.000 OA
ATOM     30  C   UNL     1      -0.633   9.992  23.048  0.00  0.00    +0.000 C 
ENDBRANCH  27  29
ENDBRANCH  22  23
ENDBRANCH   3  21
TORSDOF 9
ENDMDL
MODEL 3
REMARK VINA RESULT:      -8.0      1.769      2.199
REMARK  Name = 
REMARK  11 active torsions:
REMARK  status: ('A' for Active; 'I' for Inactive)
REMARK    1  A    between atoms: C_1  and  O_2
REMARK    2  A    between atoms: O_2  and  C_3
REMARK    3  A    between atoms: C_3  and  C_4
REMARK    4  A    between atoms: C_4  and  N_5
REMARK    5  A    between atoms: N_5  and  C_6
REMARK    6  A    between atoms: C_8  and  C_9
REMARK    7  A    between atoms: C_10  and  C_11
REMARK    8  A    between atoms: C_15  and  O_16
REMARK    9  A    between atoms: O_16  and  C_17
REMARK   10  A    between atoms: C_20  and  S_21
REMARK   11  A    between atoms: S_21  and  C_24
REMARK                            x       y       z     vdW  Elec       q    Type
REMARK                         _______ _______ _______ _____ _____    ______ ____
ROOT
ATOM      1  C   UNL     1       4.996   4.717  18.332  0.00  0.00    +0.000 A 
ATOM      2  O   UNL     1       3.779   5.215  18.701  0.00  0.00    +0.000 OA
ATOM      3  C   UNL     1       3.712   6.495  18.180  0.00  0.00    +0.000 A 
ATOM      4  N   UNL     1       4.788   6.794  17.467  0.00  0.00    +0.000 NA
ATOM      5  C   UNL     1       5.622   5.694  17.596  0.00  0.00    +0.000 A 
ENDROOT
BRANCH   5   6
ATOM      6  S   UNL     1       7.135   5.535  16.783  0.00  0.00    +0.000 S 
ATOM      7  O   UNL     1       7.633   6.885  16.578  0.00  0.00    +0.000 OA
ATOM      8  O   UNL     1       7.883   4.547  17.538  0.00  0.00    +0.000 OA
BRANCH   6   9
ATOM      9  C   UNL     1       6.720   4.849  15.201  0.00  0.00    +0.000 A 
ATOM     10  C   UNL     1       7.558   5.083  14.107  0.00  0.00    +0.000 A 
ATOM     11  C   UNL     1       7.195   4.600  12.850  0.00  0.00    +0.000 A 
ATOM     12  C   UNL     1       6.011   3.878  12.694  0.00  0.00    +0.000 A 
ATOM     13  C   UNL     1       5.196   3.616  13.797  0.00  0.00    +0.000 A 
ATOM     14  C   UNL     1       5.551   4.097  15.057  0.00  0.00    +0.000 A 
ENDBRANCH   6   9
ENDBRANCH   5   6
BRANCH   1  15
ATOM     15  N   UNL     1       5.314   3.470  18.721  0.00  0.00    +0.000 N 
ATOM     16  H   UNL     1       6.194   3.029  18.441  0.00  0.00    +0.000 HD
BRANCH  15  17
ATOM     17  C   UNL     1       4.424   2.660  19.537  0.00  0.00    +0.000 C 
BRANCH  17  18
ATOM     18  C   UNL     1       3.500   1.825  18.640  0.00  0.00    +0.000 C 
BRANCH  18  20
ATOM     19  C   UNL     1       1.302   2.677  18.495  0.00  0.00    +0.000 C 
ATOM     20  O   UNL     1       2.182   1.809  19.195  0.00  0.00    +0.000 OA
ENDBRANCH  18  20
ENDBRANCH  17  18
ENDBRANCH  15  17
ENDBRANCH   1  15
BRANCH   3  21
ATOM     21  C   UNL     1       2.594   7.341  18.433  0.00  0.00    +0.000 C 
ATOM     22  C   UNL     1       2.377   8.445  17.700  0.00  0.00    +0.000 C 
BRANCH  22  23
ATOM     23  C   UNL     1       1.304   9.421  17.959  0.00  0.00    +0.000 A 
ATOM     24  C   UNL     1       1.555  10.512  18.799  0.00  0.00    +0.000 A 
ATOM     25  C   UNL     1       0.534  11.406  19.123  0.00  0.00    +0.000 A 
ATOM     26  C   UNL     1      -0.752  11.209  18.618  0.00  0.00    +0.000 A 
ATOM     27  C   UNL     1      -1.024  10.120  17.789  0.00  0.00    +0.000 A 
ATOM     28  C   UNL     1       0.003   9.232  17.465  0.00  0.00    +0.000 A 
BRANCH  27  29
ATOM     29  O   UNL     1      -2.325  10.021  17.374  0.00  0.00    +0.000 OA
ATOM     30  C   UNL     1      -2.724  10.886  16.315  0.00  0.00    +0.000 C 
ENDBRANCH  27  29
ENDBRANCH  22  23
ENDBRANCH   3  21
TORSDOF 9
ENDMDL
MODEL 4
REMARK VINA RESULT:      -7.9      5.033      7.786
REMARK  Name = 
REMARK  11 active torsions:
REMARK  status: ('A' for Active; 'I' for Inactive)
REMARK    1  A    between atoms: C_1  and  O_2
REMARK    2  A    between atoms: O_2  and  C_3
REMARK    3  A    between atoms: C_3  and  C_4
REMARK    4  A    between atoms: C_4  and  N_5
REMARK    5  A    between atoms: N_5  and  C_6
REMARK    6  A    between atoms: C_8  and  C_9
REMARK    7  A    between atoms: C_10  and  C_11
REMARK    8  A    between atoms: C_15  and  O_16
REMARK    9  A    between atoms: O_16  and  C_17
REMARK   10  A    between atoms: C_20  and  S_21
REMARK   11  A    between atoms: S_21  and  C_24
REMARK                            x       y       z     vdW  Elec       q    Type
REMARK                         _______ _______ _______ _____ _____    ______ ____
ROOT
ATOM      1  C   UNL     1       6.434   6.022  16.444  0.00  0.00    +0.000 A 
ATOM      2  O   UNL     1       7.358   7.021  16.550  0.00  0.00    +0.000 OA
ATOM      3  C   UNL     1       7.557   7.221  17.905  0.00  0.00    +0.000 A 
ATOM      4  N   UNL     1       6.853   6.370  18.637  0.00  0.00    +0.000 NA
ATOM      5  C   UNL     1       6.108   5.641  17.724  0.00  0.00    +0.000 A 
ENDROOT
BRANCH   5   6
ATOM      6  S   UNL     1       5.075   4.329  18.157  0.00  0.00    +0.000 S 
ATOM      7  O   UNL     1       4.506   3.830  16.916  0.00  0.00    +0.000 OA
ATOM      8  O   UNL     1       5.864   3.484  19.035  0.00  0.00    +0.000 OA
BRANCH   6   9
ATOM      9  C   UNL     1       3.776   5.079  19.103  0.00  0.00    +0.000 A 
ATOM     10  C   UNL     1       3.132   4.337  20.099  0.00  0.00    +0.000 A 
ATOM     11  C   UNL     1       2.066   4.906  20.795  0.00  0.00    +0.000 A 
ATOM     12  C   UNL     1       1.659   6.210  20.507  0.00  0.00    +0.000 A 
ATOM     13  C   UNL     1       2.329   6.958  19.537  0.00  0.00    +0.000 A 
ATOM     14  C   UNL     1       3.395   6.396  18.835  0.00  0.00    +0.000 A 
ENDBRANCH   6   9
ENDBRANCH   5   6
BRANCH   1  15
ATOM     15  N   UNL     1       6.059   5.633  15.213  0.00  0.00    +0.000 N 
ATOM     16  H   UNL     1       5.305   6.105  14.708  0.00  0.00    +0.000 HD
BRANCH  15  17
ATOM     17  C   UNL     1       6.678   4.507  14.532  0.00  0.00    +0.000 C 
BRANCH  17  18
ATOM     18  C   UNL     1       7.678   5.011  13.482  0.00  0.00    +0.000 C 
BRANCH  18  20
ATOM     19  C   UNL     1       6.482   3.466  12.154  0.00  0.00    +0.000 C 
ATOM     20  O   UNL     1       7.197   4.694  12.173  0.00  0.00    +0.000 OA
ENDBRANCH  18  20
ENDBRANCH  17  18
ENDBRANCH  15  17
ENDBRANCH   1  15
BRANCH   3  21
ATOM     21  C   UNL     1       8.419   8.249  18.384  0.00  0.00    +0.000 C 
ATOM     22  C   UNL     1       8.181   9.542  18.110  0.00  0.00    +0.000 C 
BRANCH  22  23
ATOM     23  C   UNL     1       9.073  10.652  18.484  0.00  0.00    +0.000 A 
ATOM     24  C   UNL     1       9.886  10.530  19.618  0.00  0.00    +0.000 A 
ATOM     25  C   UNL     1      10.680  11.597  20.039  0.00  0.00    +0.000 A 
ATOM     26  C   UNL     1      10.660  12.802  19.335  0.00  0.00    +0.000 A 
ATOM     27  C   UNL     1       9.847  12.947  18.210  0.00  0.00    +0.000 A 
ATOM     28  C   UNL     1       9.058  11.874  17.791  0.00  0.00    +0.000 A 
BRANCH  27  29
ATOM     29  O   UNL     1       9.897  14.180  17.617  0.00  0.00    +0.000 OA
ATOM     30  C   UNL     1      11.174  14.809  17.560  0.00  0.00    +0.000 C 
ENDBRANCH  27  29
ENDBRANCH  22  23
ENDBRANCH   3  21
TORSDOF 9
ENDMDL
MODEL 5
REMARK VINA RESULT:      -7.9      4.762      7.773
REMARK  Name = 
REMARK  11 active torsions:
REMARK  status: ('A' for Active; 'I' for Inactive)
REMARK    1  A    between atoms: C_1  and  O_2
REMARK    2  A    between atoms: O_2  and  C_3
REMARK    3  A    between atoms: C_3  and  C_4
REMARK    4  A    between atoms: C_4  and  N_5
REMARK    5  A    between atoms: N_5  and  C_6
REMARK    6  A    between atoms: C_8  and  C_9
REMARK    7  A    between atoms: C_10  and  C_11
REMARK    8  A    between atoms: C_15  and  O_16
REMARK    9  A    between atoms: O_16  and  C_17
REMARK   10  A    between atoms: C_20  and  S_21
REMARK   11  A    between atoms: S_21  and  C_24
REMARK                            x       y       z     vdW  Elec       q    Type
REMARK                         _______ _______ _______ _____ _____    ______ ____
ROOT
ATOM      1  C   UNL     1       6.545   5.898  16.426  0.00  0.00    +0.000 A 
ATOM      2  O   UNL     1       7.520   6.841  16.584  0.00  0.00    +0.000 OA
ATOM      3  C   UNL     1       7.613   7.076  17.943  0.00  0.00    +0.000 A 
ATOM      4  N   UNL     1       6.795   6.297  18.636  0.00  0.00    +0.000 NA
ATOM      5  C   UNL     1       6.085   5.584  17.682  0.00  0.00    +0.000 A 
ENDROOT
BRANCH   5   6
ATOM      6  S   UNL     1       4.936   4.355  18.061  0.00  0.00    +0.000 S 
ATOM      7  O   UNL     1       4.357   3.933  16.797  0.00  0.00    +0.000 OA
ATOM      8  O   UNL     1       5.630   3.427  18.936  0.00  0.00    +0.000 OA
BRANCH   6   9
ATOM      9  C   UNL     1       3.682   5.191  18.996  0.00  0.00    +0.000 A 
ATOM     10  C   UNL     1       3.022   4.512  20.026  0.00  0.00    +0.000 A 
ATOM     11  C   UNL     1       1.990   5.149  20.715  0.00  0.00    +0.000 A 
ATOM     12  C   UNL     1       1.633   6.458  20.385  0.00  0.00    +0.000 A 
ATOM     13  C   UNL     1       2.320   7.143  19.381  0.00  0.00    +0.000 A 
ATOM     14  C   UNL     1       3.352   6.513  18.686  0.00  0.00    +0.000 A 
ENDBRANCH   6   9
ENDBRANCH   5   6
BRANCH   1  15
ATOM     15  N   UNL     1       6.254   5.489  15.178  0.00  0.00    +0.000 N 
ATOM     16  H   UNL     1       5.521   5.940  14.624  0.00  0.00    +0.000 HD
BRANCH  15  17
ATOM     17  C   UNL     1       6.937   4.371  14.548  0.00  0.00    +0.000 C 
BRANCH  17  18
ATOM     18  C   UNL     1       6.657   4.366  13.039  0.00  0.00    +0.000 C 
BRANCH  18  20
ATOM     19  C   UNL     1       5.533   2.662  11.849  0.00  0.00    +0.000 C 
ATOM     20  O   UNL     1       5.405   3.721  12.787  0.00  0.00    +0.000 OA
ENDBRANCH  18  20
ENDBRANCH  17  18
ENDBRANCH  15  17
ENDBRANCH   1  15
BRANCH   3  21
ATOM     21  C   UNL     1       8.496   8.064  18.466  0.00  0.00    +0.000 C 
ATOM     22  C   UNL     1       8.328   9.367  18.185  0.00  0.00    +0.000 C 
BRANCH  22  23
ATOM     23  C   UNL     1       9.249  10.437  18.605  0.00  0.00    +0.000 A 
ATOM     24  C   UNL     1      10.216  10.903  17.707  0.00  0.00    +0.000 A 
ATOM     25  C   UNL     1      11.151  11.860  18.106  0.00  0.00    +0.000 A 
ATOM     26  C   UNL     1      11.133  12.350  19.412  0.00  0.00    +0.000 A 
ATOM     27  C   UNL     1      10.184  11.888  20.325  0.00  0.00    +0.000 A 
ATOM     28  C   UNL     1       9.248  10.934  19.918  0.00  0.00    +0.000 A 
BRANCH  27  29
ATOM     29  O   UNL     1      10.280  12.426  21.580  0.00  0.00    +0.000 OA
ATOM     30  C   UNL     1       9.580  13.647  21.805  0.00  0.00    +0.000 C 
ENDBRANCH  27  29
ENDBRANCH  22  23
ENDBRANCH   3  21
TORSDOF 9
ENDMDL
MODEL 6
REMARK VINA RESULT:      -7.8      2.130      4.870
REMARK  Name = 
REMARK  11 active torsions:
REMARK  status: ('A' for Active; 'I' for Inactive)
REMARK    1  A    between atoms: C_1  and  O_2
REMARK    2  A    between atoms: O_2  and  C_3
REMARK    3  A    between atoms: C_3  and  C_4
REMARK    4  A    between atoms: C_4  and  N_5
REMARK    5  A    between atoms: N_5  and  C_6
REMARK    6  A    between atoms: C_8  and  C_9
REMARK    7  A    between atoms: C_10  and  C_11
REMARK    8  A    between atoms: C_15  and  O_16
REMARK    9  A    between atoms: O_16  and  C_17
REMARK   10  A    between atoms: C_20  and  S_21
REMARK   11  A    between atoms: S_21  and  C_24
REMARK                            x       y       z     vdW  Elec       q    Type
REMARK                         _______ _______ _______ _____ _____    ______ ____
ROOT
ATOM      1  C   UNL     1       4.923   6.610  17.227  0.00  0.00    +0.000 A 
ATOM      2  O   UNL     1       4.234   7.789  17.215  0.00  0.00    +0.000 OA
ATOM      3  C   UNL     1       2.999   7.522  17.778  0.00  0.00    +0.000 A 
ATOM      4  N   UNL     1       2.906   6.264  18.185  0.00  0.00    +0.000 NA
ATOM      5  C   UNL     1       4.098   5.672  17.799  0.00  0.00    +0.000 A 
ENDROOT
BRANCH   5   6
ATOM      6  S   UNL     1       4.524   4.042  18.170  0.00  0.00    +0.000 S 
ATOM      7  O   UNL     1       4.480   3.312  16.914  0.00  0.00    +0.000 OA
ATOM      8  O   UNL     1       5.735   4.126  18.967  0.00  0.00    +0.000 OA
BRANCH   6   9
ATOM      9  C   UNL     1       3.203   3.459  19.199  0.00  0.00    +0.000 A 
ATOM     10  C   UNL     1       2.029   2.979  18.609  0.00  0.00    +0.000 A 
ATOM     11  C   UNL     1       0.966   2.586  19.422  0.00  0.00    +0.000 A 
ATOM     12  C   UNL     1       1.083   2.658  20.811  0.00  0.00    +0.000 A 
ATOM     13  C   UNL     1       2.271   3.104  21.395  0.00  0.00    +0.000 A 
ATOM     14  C   UNL     1       3.338   3.502  20.590  0.00  0.00    +0.000 A 
ENDBRANCH   6   9
ENDBRANCH   5   6
BRANCH   1  15
ATOM     15  N   UNL     1       6.170   6.599  16.725  0.00  0.00    +0.000 N 
ATOM     16  H   UNL     1       6.347   6.425  15.732  0.00  0.00    +0.000 HD
BRANCH  15  17
ATOM     17  C   UNL     1       7.344   6.806  17.557  0.00  0.00    +0.000 C 
BRANCH  17  18
ATOM     18  C   UNL     1       7.739   8.289  17.553  0.00  0.00    +0.000 C 
BRANCH  18  20
ATOM     19  C   UNL     1       8.955   9.931  18.738  0.00  0.00    +0.000 C 
ATOM     20  O   UNL     1       8.592   8.560  18.669  0.00  0.00    +0.000 OA
ENDBRANCH  18  20
ENDBRANCH  17  18
ENDBRANCH  15  17
ENDBRANCH   1  15
BRANCH   3  21
ATOM     21  C   UNL     1       1.990   8.523  17.864  0.00  0.00    +0.000 C 
ATOM     22  C   UNL     1       1.602   9.021  19.049  0.00  0.00    +0.000 C 
BRANCH  22  23
ATOM     23  C   UNL     1       0.502   9.984  19.230  0.00  0.00    +0.000 A 
ATOM     24  C   UNL     1       0.163  10.407  20.520  0.00  0.00    +0.000 A 
ATOM     25  C   UNL     1      -0.926  11.256  20.725  0.00  0.00    +0.000 A 
ATOM     26  C   UNL     1      -1.692  11.681  19.639  0.00  0.00    +0.000 A 
ATOM     27  C   UNL     1      -1.377  11.260  18.346  0.00  0.00    +0.000 A 
ATOM     28  C   UNL     1      -0.284  10.413  18.148  0.00  0.00    +0.000 A 
BRANCH  27  29
ATOM     29  O   UNL     1      -2.214  11.725  17.368  0.00  0.00    +0.000 OA
ATOM     30  C   UNL     1      -2.634  10.781  16.387  0.00  0.00    +0.000 C 
ENDBRANCH  27  29
ENDBRANCH  22  23
ENDBRANCH   3  21
TORSDOF 9
ENDMDL
MODEL 7
REMARK VINA RESULT:      -7.7      2.344      4.913
REMARK  Name = 
REMARK  11 active torsions:
REMARK  status: ('A' for Active; 'I' for Inactive)
REMARK    1  A    between atoms: C_1  and  O_2
REMARK    2  A    between atoms: O_2  and  C_3
REMARK    3  A    between atoms: C_3  and  C_4
REMARK    4  A    between atoms: C_4  and  N_5
REMARK    5  A    between atoms: N_5  and  C_6
REMARK    6  A    between atoms: C_8  and  C_9
REMARK    7  A    between atoms: C_10  and  C_11
REMARK    8  A    between atoms: C_15  and  O_16
REMARK    9  A    between atoms: O_16  and  C_17
REMARK   10  A    between atoms: C_20  and  S_21
REMARK   11  A    between atoms: S_21  and  C_24
REMARK                            x       y       z     vdW  Elec       q    Type
REMARK                         _______ _______ _______ _____ _____    ______ ____
ROOT
ATOM      1  C   UNL     1       4.689   6.457  16.929  0.00  0.00    +0.000 A 
ATOM      2  O   UNL     1       4.082   7.681  16.931  0.00  0.00    +0.000 OA
ATOM      3  C   UNL     1       3.056   7.601  17.856  0.00  0.00    +0.000 A 
ATOM      4  N   UNL     1       3.029   6.423  18.462  0.00  0.00    +0.000 NA
ATOM      5  C   UNL     1       4.027   5.681  17.849  0.00  0.00    +0.000 A 
ENDROOT
BRANCH   5   6
ATOM      6  S   UNL     1       4.469   4.084  18.331  0.00  0.00    +0.000 S 
ATOM      7  O   UNL     1       4.478   3.280  17.121  0.00  0.00    +0.000 OA
ATOM      8  O   UNL     1       5.650   4.239  19.160  0.00  0.00    +0.000 OA
BRANCH   6   9
ATOM      9  C   UNL     1       3.124   3.539  19.351  0.00  0.00    +0.000 A 
ATOM     10  C   UNL     1       1.897   3.220  18.761  0.00  0.00    +0.000 A 
ATOM     11  C   UNL     1       0.821   2.857  19.572  0.00  0.00    +0.000 A 
ATOM     12  C   UNL     1       0.978   2.800  20.958  0.00  0.00    +0.000 A 
ATOM     13  C   UNL     1       2.216   3.085  21.538  0.00  0.00    +0.000 A 
ATOM     14  C   UNL     1       3.296   3.451  20.735  0.00  0.00    +0.000 A 
ENDBRANCH   6   9
ENDBRANCH   5   6
BRANCH   1  15
ATOM     15  N   UNL     1       5.732   6.269  16.102  0.00  0.00    +0.000 N 
ATOM     16  H   UNL     1       6.627   6.742  16.250  0.00  0.00    +0.000 HD
BRANCH  15  17
ATOM     17  C   UNL     1       5.650   5.406  14.934  0.00  0.00    +0.000 C 
BRANCH  17  18
ATOM     18  C   UNL     1       6.972   4.648  14.745  0.00  0.00    +0.000 C 
BRANCH  18  20
ATOM     19  C   UNL     1       7.975   5.343  12.722  0.00  0.00    +0.000 C 
ATOM     20  O   UNL     1       7.934   5.511  14.133  0.00  0.00    +0.000 OA
ENDBRANCH  18  20
ENDBRANCH  17  18
ENDBRANCH  15  17
ENDBRANCH   1  15
BRANCH   3  21
ATOM     21  C   UNL     1       2.163   8.690  18.068  0.00  0.00    +0.000 C 
ATOM     22  C   UNL     1       1.472   8.811  19.214  0.00  0.00    +0.000 C 
BRANCH  22  23
ATOM     23  C   UNL     1       0.460   9.849  19.472  0.00  0.00    +0.000 A 
ATOM     24  C   UNL     1      -0.355  10.293  18.423  0.00  0.00    +0.000 A 
ATOM     25  C   UNL     1      -1.266  11.331  18.624  0.00  0.00    +0.000 A 
ATOM     26  C   UNL     1      -1.362  11.943  19.874  0.00  0.00    +0.000 A 
ATOM     27  C   UNL     1      -0.550  11.523  20.928  0.00  0.00    +0.000 A 
ATOM     28  C   UNL     1       0.357  10.481  20.723  0.00  0.00    +0.000 A 
BRANCH  27  29
ATOM     29  O   UNL     1      -0.720  12.213  22.099  0.00  0.00    +0.000 OA
ATOM     30  C   UNL     1      -1.560  11.609  23.078  0.00  0.00    +0.000 C 
ENDBRANCH  27  29
ENDBRANCH  22  23
ENDBRANCH   3  21
TORSDOF 9
ENDMDL
MODEL 8
REMARK VINA RESULT:      -7.7      1.764      2.565
REMARK  Name = 
REMARK  11 active torsions:
REMARK  status: ('A' for Active; 'I' for Inactive)
REMARK    1  A    between atoms: C_1  and  O_2
REMARK    2  A    between atoms: O_2  and  C_3
REMARK    3  A    between atoms: C_3  and  C_4
REMARK    4  A    between atoms: C_4  and  N_5
REMARK    5  A    between atoms: N_5  and  C_6
REMARK    6  A    between atoms: C_8  and  C_9
REMARK    7  A    between atoms: C_10  and  C_11
REMARK    8  A    between atoms: C_15  and  O_16
REMARK    9  A    between atoms: O_16  and  C_17
REMARK   10  A    between atoms: C_20  and  S_21
REMARK   11  A    between atoms: S_21  and  C_24
REMARK                            x       y       z     vdW  Elec       q    Type
REMARK                         _______ _______ _______ _____ _____    ______ ____
ROOT
ATOM      1  C   UNL     1       4.940   4.709  18.662  0.00  0.00    +0.000 A 
ATOM      2  O   UNL     1       3.709   5.208  18.981  0.00  0.00    +0.000 OA
ATOM      3  C   UNL     1       3.627   6.449  18.376  0.00  0.00    +0.000 A 
ATOM      4  N   UNL     1       4.708   6.721  17.659  0.00  0.00    +0.000 NA
ATOM      5  C   UNL     1       5.559   5.648  17.873  0.00  0.00    +0.000 A 
ENDROOT
BRANCH   5   6
ATOM      6  S   UNL     1       7.087   5.465  17.093  0.00  0.00    +0.000 S 
ATOM      7  O   UNL     1       7.615   6.806  16.908  0.00  0.00    +0.000 OA
ATOM      8  O   UNL     1       7.799   4.458  17.858  0.00  0.00    +0.000 OA
BRANCH   6   9
ATOM      9  C   UNL     1       6.695   4.797  15.497  0.00  0.00    +0.000 A 
ATOM     10  C   UNL     1       7.550   5.041  14.418  0.00  0.00    +0.000 A 
ATOM     11  C   UNL     1       7.205   4.573  13.151  0.00  0.00    +0.000 A 
ATOM     12  C   UNL     1       6.022   3.854  12.969  0.00  0.00    +0.000 A 
ATOM     13  C   UNL     1       5.190   3.582  14.057  0.00  0.00    +0.000 A 
ATOM     14  C   UNL     1       5.527   4.049  15.327  0.00  0.00    +0.000 A 
ENDBRANCH   6   9
ENDBRANCH   5   6
BRANCH   1  15
ATOM     15  N   UNL     1       5.275   3.497  19.136  0.00  0.00    +0.000 N 
ATOM     16  H   UNL     1       6.247   3.181  19.162  0.00  0.00    +0.000 HD
BRANCH  15  17
ATOM     17  C   UNL     1       4.281   2.549  19.616  0.00  0.00    +0.000 C 
BRANCH  17  18
ATOM     18  C   UNL     1       3.558   1.897  18.429  0.00  0.00    +0.000 C 
BRANCH  18  20
ATOM     19  C   UNL     1       1.835   2.375  19.973  0.00  0.00    +0.000 C 
ATOM     20  O   UNL     1       2.151   1.867  18.685  0.00  0.00    +0.000 OA
ENDBRANCH  18  20
ENDBRANCH  17  18
ENDBRANCH  15  17
ENDBRANCH   1  15
BRANCH   3  21
ATOM     21  C   UNL     1       2.490   7.289  18.557  0.00  0.00    +0.000 C 
ATOM     22  C   UNL     1       2.415   8.496  17.972  0.00  0.00    +0.000 C 
BRANCH  22  23
ATOM     23  C   UNL     1       1.324   9.461  18.187  0.00  0.00    +0.000 A 
ATOM     24  C   UNL     1       0.060   9.202  17.643  0.00  0.00    +0.000 A 
ATOM     25  C   UNL     1      -0.969  10.137  17.764  0.00  0.00    +0.000 A 
ATOM     26  C   UNL     1      -0.738  11.346  18.421  0.00  0.00    +0.000 A 
ATOM     27  C   UNL     1       0.518  11.627  18.959  0.00  0.00    +0.000 A 
ATOM     28  C   UNL     1       1.542  10.685  18.838  0.00  0.00    +0.000 A 
BRANCH  27  29
ATOM     29  O   UNL     1       0.628  12.853  19.560  0.00  0.00    +0.000 OA
ATOM     30  C   UNL     1       0.852  13.966  18.700  0.00  0.00    +0.000 C 
ENDBRANCH  27  29
ENDBRANCH  22  23
ENDBRANCH   3  21
TORSDOF 9
ENDMDL
MODEL 9
REMARK VINA RESULT:      -7.7      1.962      4.500
REMARK  Name = 
REMARK  11 active torsions:
REMARK  status: ('A' for Active; 'I' for Inactive)
REMARK    1  A    between atoms: C_1  and  O_2
REMARK    2  A    between atoms: O_2  and  C_3
REMARK    3  A    between atoms: C_3  and  C_4
REMARK    4  A    between atoms: C_4  and  N_5
REMARK    5  A    between atoms: N_5  and  C_6
REMARK    6  A    between atoms: C_8  and  C_9
REMARK    7  A    between atoms: C_10  and  C_11
REMARK    8  A    between atoms: C_15  and  O_16
REMARK    9  A    between atoms: O_16  and  C_17
REMARK   10  A    between atoms: C_20  and  S_21
REMARK   11  A    between atoms: S_21  and  C_24
REMARK                            x       y       z     vdW  Elec       q    Type
REMARK                         _______ _______ _______ _____ _____    ______ ____
ROOT
ATOM      1  C   UNL     1       4.712   6.416  16.906  0.00  0.00    +0.000 A 
ATOM      2  O   UNL     1       4.121   7.647  16.888  0.00  0.00    +0.000 OA
ATOM      3  C   UNL     1       3.100   7.598  17.821  0.00  0.00    +0.000 A 
ATOM      4  N   UNL     1       3.062   6.432  18.449  0.00  0.00    +0.000 NA
ATOM      5  C   UNL     1       4.046   5.666  17.845  0.00  0.00    +0.000 A 
ENDROOT
BRANCH   5   6
ATOM      6  S   UNL     1       4.470   4.073  18.354  0.00  0.00    +0.000 S 
ATOM      7  O   UNL     1       4.498   3.254  17.154  0.00  0.00    +0.000 OA
ATOM      8  O   UNL     1       5.637   4.232  19.203  0.00  0.00    +0.000 OA
BRANCH   6   9
ATOM      9  C   UNL     1       3.104   3.548  19.355  0.00  0.00    +0.000 A 
ATOM     10  C   UNL     1       1.918   3.135  18.741  0.00  0.00    +0.000 A 
ATOM     11  C   UNL     1       0.822   2.786  19.531  0.00  0.00    +0.000 A 
ATOM     12  C   UNL     1       0.920   2.837  20.923  0.00  0.00    +0.000 A 
ATOM     13  C   UNL     1       2.119   3.215  21.531  0.00  0.00    +0.000 A 
ATOM     14  C   UNL     1       3.218   3.567  20.748  0.00  0.00    +0.000 A 
ENDBRANCH   6   9
ENDBRANCH   5   6
BRANCH   1  15
ATOM     15  N   UNL     1       5.747   6.198  16.076  0.00  0.00    +0.000 N 
ATOM     16  H   UNL     1       6.696   6.500  16.311  0.00  0.00    +0.000 HD
BRANCH  15  17
ATOM     17  C   UNL     1       5.584   5.548  14.786  0.00  0.00    +0.000 C 
BRANCH  17  18
ATOM     18  C   UNL     1       6.736   4.563  14.543  0.00  0.00    +0.000 C 
BRANCH  18  20
ATOM     19  C   UNL     1       6.454   3.578  12.414  0.00  0.00    +0.000 C 
ATOM     20  O   UNL     1       6.252   3.432  13.812  0.00  0.00    +0.000 OA
ENDBRANCH  18  20
ENDBRANCH  17  18
ENDBRANCH  15  17
ENDBRANCH   1  15
BRANCH   3  21
ATOM     21  C   UNL     1       2.223   8.703  18.018  0.00  0.00    +0.000 C 
ATOM     22  C   UNL     1       1.494   8.822  19.141  0.00  0.00    +0.000 C 
BRANCH  22  23
ATOM     23  C   UNL     1       0.496   9.878  19.379  0.00  0.00    +0.000 A 
ATOM     24  C   UNL     1       0.360  10.420  20.663  0.00  0.00    +0.000 A 
ATOM     25  C   UNL     1      -0.632  11.364  20.933  0.00  0.00    +0.000 A 
ATOM     26  C   UNL     1      -1.505  11.766  19.921  0.00  0.00    +0.000 A 
ATOM     27  C   UNL     1      -1.393  11.228  18.639  0.00  0.00    +0.000 A 
ATOM     28  C   UNL     1      -0.396  10.287  18.374  0.00  0.00    +0.000 A 
BRANCH  27  29
ATOM     29  O   UNL     1      -2.319  11.684  17.739  0.00  0.00    +0.000 OA
ATOM     30  C   UNL     1      -3.689  11.478  18.075  0.00  0.00    +0.000 C 
ENDBRANCH  27  29
ENDBRANCH  22  23
ENDBRANCH   3  21
TORSDOF 9
ENDMDL
