MODEL 1
REMARK VINA RESULT:      -6.7      0.000      0.000
REMARK  Name = 
REMARK  8 active torsions:
REMARK  status: ('A' for Active; 'I' for Inactive)
REMARK    1  A    between atoms: C_1  and  C_2
REMARK    2  A    between atoms: C_2  and  C_3
REMARK    3  A    between atoms: C_2  and  C_4
REMARK    4  A    between atoms: C_2  and  C_5
REMARK    5  A    between atoms: C_7  and  C_8
REMARK    6  A    between atoms: C_8  and  N_9
REMARK    7  A    between atoms: N_12  and  C_13
REMARK    8  A    between atoms: C_13  and  C_14
REMARK                            x       y       z     vdW  Elec       q    Type
REMARK                         _______ _______ _______ _____ _____    ______ ____
ROOT
ATOM      1  N   UNL     1       0.501   8.884  20.598  0.00  0.00    +0.000 NA
ATOM      2  C   UNL     1      -0.528   8.906  21.646  0.00  0.00    +0.000 C 
ATOM      3  C   UNL     1      -0.036   9.734  22.859  0.00  0.00    +0.000 C 
ATOM      4  N   UNL     1      -0.178  11.176  22.589  0.00  0.00    +0.000 NA
ATOM      5  C   UNL     1       0.426  11.476  21.266  0.00  0.00    +0.000 C 
ATOM      6  C   UNL     1       0.721  10.310  20.217  0.00  0.00    +0.000 C 
ENDROOT
BRANCH   1   7
ATOM      7  C   UNL     1       1.711   8.160  21.057  0.00  0.00    +0.000 C 
BRANCH   7  10
ATOM      8  C   UNL     1       2.035   4.707  19.747  0.00  0.00    +0.000 A 
ATOM      9  N   UNL     1       1.762   5.627  20.662  0.00  0.00    +0.000 NA
ATOM     10  C   UNL     1       2.023   6.930  20.186  0.00  0.00    +0.000 A 
ATOM     11  C   UNL     1       2.540   6.949  18.906  0.00  0.00    +0.000 A 
ATOM     12  S   UNL     1       2.658   5.363  18.273  0.00  0.00    +0.000 S 
BRANCH   8  14
ATOM     13  C   UNL     1       1.414   2.817  21.354  0.00  0.00    +0.000 C 
ATOM     14  C   UNL     1       1.857   3.180  19.922  0.00  0.00    +0.000 C 
ATOM     15  C   UNL     1       3.184   2.445  19.648  0.00  0.00    +0.000 C 
ATOM     16  C   UNL     1       0.805   2.621  18.940  0.00  0.00    +0.000 C 
ENDBRANCH   8  14
ENDBRANCH   7  10
ENDBRANCH   1   7
BRANCH   4  17
ATOM     17  C   UNL     1      -1.618  11.463  22.747  0.00  0.00    +0.000 C 
BRANCH  17  18
ATOM     18  C   UNL     1      -2.075  12.772  23.328  0.00  0.00    +0.000 A 
ATOM     19  C   UNL     1      -1.167  13.807  23.544  0.00  0.00    +0.000 A 
ATOM     20  C   UNL     1      -1.566  14.869  24.345  0.00  0.00    +0.000 A 
ATOM     21  C   UNL     1      -2.849  14.884  24.883  0.00  0.00    +0.000 A 
ATOM     22  C   UNL     1      -3.691  13.829  24.597  0.00  0.00    +0.000 A 
ATOM     23  N   UNL     1      -3.338  12.788  23.817  0.00  0.00    +0.000 NA
ENDBRANCH  17  18
ENDBRANCH   4  17
TORSDOF 5
ENDMDL
MODEL 2
REMARK VINA RESULT:      -6.6      0.734      1.087
REMARK  Name = 
REMARK  8 active torsions:
REMARK  status: ('A' for Active; 'I' for Inactive)
REMARK    1  A    between atoms: C_1  and  C_2
REMARK    2  A    between atoms: C_2  and  C_3
REMARK    3  A    between atoms: C_2  and  C_4
REMARK    4  A    between atoms: C_2  and  C_5
REMARK    5  A    between atoms: C_7  and  C_8
REMARK    6  A    between atoms: C_8  and  N_9
REMARK    7  A    between atoms: N_12  and  C_13
REMARK    8  A    between atoms: C_13  and  C_14
REMARK                            x       y       z     vdW  Elec       q    Type
REMARK                         _______ _______ _______ _____ _____    ______ ____
ROOT
ATOM      1  N   UNL     1       0.520   9.015  20.395  0.00  0.00    +0.000 NA
ATOM      2  C   UNL     1      -0.564   9.385  21.313  0.00  0.00    +0.000 C 
ATOM      3  C   UNL     1      -0.019  10.290  22.445  0.00  0.00    +0.000 C 
ATOM      4  N   UNL     1       0.142  11.674  21.965  0.00  0.00    +0.000 NA
ATOM      5  C   UNL     1       0.895  11.651  20.686  0.00  0.00    +0.000 C 
ATOM      6  C   UNL     1       1.041  10.301  19.845  0.00  0.00    +0.000 C 
ENDROOT
BRANCH   1   7
ATOM      7  C   UNL     1       1.528   8.166  21.076  0.00  0.00    +0.000 C 
BRANCH   7  10
ATOM      8  C   UNL     1       2.034   4.719  19.808  0.00  0.00    +0.000 A 
ATOM      9  N   UNL     1       1.678   5.635  20.699  0.00  0.00    +0.000 NA
ATOM     10  C   UNL     1       1.930   6.943  20.233  0.00  0.00    +0.000 A 
ATOM     11  C   UNL     1       2.525   6.972  18.988  0.00  0.00    +0.000 A 
ATOM     12  S   UNL     1       2.729   5.388  18.372  0.00  0.00    +0.000 S 
BRANCH   8  14
ATOM     13  C   UNL     1       1.395   2.817  21.392  0.00  0.00    +0.000 C 
ATOM     14  C   UNL     1       1.890   3.189  19.979  0.00  0.00    +0.000 C 
ATOM     15  C   UNL     1       3.247   2.489  19.766  0.00  0.00    +0.000 C 
ATOM     16  C   UNL     1       0.898   2.599  18.954  0.00  0.00    +0.000 C 
ENDBRANCH   8  14
ENDBRANCH   7  10
ENDBRANCH   1   7
BRANCH   4  17
ATOM     17  C   UNL     1      -1.223  12.235  21.926  0.00  0.00    +0.000 C 
BRANCH  17  18
ATOM     18  C   UNL     1      -1.780  12.967  23.116  0.00  0.00    +0.000 A 
ATOM     19  C   UNL     1      -3.100  12.768  23.517  0.00  0.00    +0.000 A 
ATOM     20  C   UNL     1      -3.653  13.670  24.416  0.00  0.00    +0.000 A 
ATOM     21  C   UNL     1      -2.880  14.719  24.904  0.00  0.00    +0.000 A 
ATOM     22  C   UNL     1      -1.574  14.826  24.472  0.00  0.00    +0.000 A 
ATOM     23  N   UNL     1      -1.006  13.963  23.608  0.00  0.00    +0.000 NA
ENDBRANCH  17  18
ENDBRANCH   4  17
TORSDOF 5
ENDMDL
MODEL 3
REMARK VINA RESULT:      -6.5      0.978      1.511
REMARK  Name = 
REMARK  8 active torsions:
REMARK  status: ('A' for Active; 'I' for Inactive)
REMARK    1  A    between atoms: C_1  and  C_2
REMARK    2  A    between atoms: C_2  and  C_3
REMARK    3  A    between atoms: C_2  and  C_4
REMARK    4  A    between atoms: C_2  and  C_5
REMARK    5  A    between atoms: C_7  and  C_8
REMARK    6  A    between atoms: C_8  and  N_9
REMARK    7  A    between atoms: N_12  and  C_13
REMARK    8  A    between atoms: C_13  and  C_14
REMARK                            x       y       z     vdW  Elec       q    Type
REMARK                         _______ _______ _______ _____ _____    ______ ____
ROOT
ATOM      1  N   UNL     1       0.345   8.859  20.802  0.00  0.00    +0.000 NA
ATOM      2  C   UNL     1      -0.561   8.807  21.957  0.00  0.00    +0.000 C 
ATOM      3  C   UNL     1      -0.009   9.685  23.107  0.00  0.00    +0.000 C 
ATOM      4  N   UNL     1      -0.300  11.107  22.854  0.00  0.00    +0.000 NA
ATOM      5  C   UNL     1       0.127  11.443  21.472  0.00  0.00    +0.000 C 
ATOM      6  C   UNL     1       0.401  10.294  20.398  0.00  0.00    +0.000 C 
ENDROOT
BRANCH   1   7
ATOM      7  C   UNL     1       1.655   8.243  21.125  0.00  0.00    +0.000 C 
BRANCH   7  10
ATOM      8  C   UNL     1       2.052   4.840  19.708  0.00  0.00    +0.000 A 
ATOM      9  N   UNL     1       1.776   5.725  20.656  0.00  0.00    +0.000 NA
ATOM     10  C   UNL     1       1.981   7.049  20.211  0.00  0.00    +0.000 A 
ATOM     11  C   UNL     1       2.460   7.119  18.918  0.00  0.00    +0.000 A 
ATOM     12  S   UNL     1       2.611   5.556  18.237  0.00  0.00    +0.000 S 
BRANCH   8  14
ATOM     13  C   UNL     1       3.303   2.611  19.774  0.00  0.00    +0.000 C 
ATOM     14  C   UNL     1       1.927   3.304  19.844  0.00  0.00    +0.000 C 
ATOM     15  C   UNL     1       1.061   2.727  18.706  0.00  0.00    +0.000 C 
ATOM     16  C   UNL     1       1.261   2.910  21.180  0.00  0.00    +0.000 C 
ENDBRANCH   8  14
ENDBRANCH   7  10
ENDBRANCH   1   7
BRANCH   4  17
ATOM     17  C   UNL     1      -1.733  11.275  23.169  0.00  0.00    +0.000 C 
BRANCH  17  18
ATOM     18  C   UNL     1      -2.378  12.630  23.084  0.00  0.00    +0.000 A 
ATOM     19  C   UNL     1      -3.534  12.819  22.328  0.00  0.00    +0.000 A 
ATOM     20  C   UNL     1      -3.919  14.120  22.038  0.00  0.00    +0.000 A 
ATOM     21  C   UNL     1      -3.167  15.186  22.520  0.00  0.00    +0.000 A 
ATOM     22  C   UNL     1      -2.051  14.909  23.282  0.00  0.00    +0.000 A 
ATOM     23  N   UNL     1      -1.655  13.658  23.589  0.00  0.00    +0.000 NA
ENDBRANCH  17  18
ENDBRANCH   4  17
TORSDOF 5
ENDMDL
MODEL 4
REMARK VINA RESULT:      -6.2      6.587     11.200
REMARK  Name = 
REMARK  8 active torsions:
REMARK  status: ('A' for Active; 'I' for Inactive)
REMARK    1  A    between atoms: C_1  and  C_2
REMARK    2  A    between atoms: C_2  and  C_3
REMARK    3  A    between atoms: C_2  and  C_4
REMARK    4  A    between atoms: C_2  and  C_5
REMARK    5  A    between atoms: C_7  and  C_8
REMARK    6  A    between atoms: C_8  and  N_9
REMARK    7  A    between atoms: N_12  and  C_13
REMARK    8  A    between atoms: C_13  and  C_14
REMARK                            x       y       z     vdW  Elec       q    Type
REMARK                         _______ _______ _______ _____ _____    ______ ____
ROOT
ATOM      1  N   UNL     1       5.643   6.193  17.434  0.00  0.00    +0.000 NA
ATOM      2  C   UNL     1       6.806   6.042  16.549  0.00  0.00    +0.000 C 
ATOM      3  C   UNL     1       7.160   4.543  16.386  0.00  0.00    +0.000 C 
ATOM      4  N   UNL     1       6.251   3.902  15.418  0.00  0.00    +0.000 NA
ATOM      5  C   UNL     1       4.851   4.239  15.783  0.00  0.00    +0.000 C 
ATOM      6  C   UNL     1       4.531   5.452  16.770  0.00  0.00    +0.000 C 
ENDROOT
BRANCH   1   7
ATOM      7  C   UNL     1       5.963   5.748  18.813  0.00  0.00    +0.000 C 
BRANCH   7  10
ATOM      8  C   UNL     1       3.102   3.656  19.903  0.00  0.00    +0.000 A 
ATOM      9  N   UNL     1       3.716   4.791  19.594  0.00  0.00    +0.000 NA
ATOM     10  C   UNL     1       5.074   4.579  19.271  0.00  0.00    +0.000 A 
ATOM     11  C   UNL     1       5.463   3.260  19.392  0.00  0.00    +0.000 A 
ATOM     12  S   UNL     1       4.142   2.275  19.858  0.00  0.00    +0.000 S 
BRANCH   8  14
ATOM     13  C   UNL     1       0.942   4.888  20.498  0.00  0.00    +0.000 C 
ATOM     14  C   UNL     1       1.613   3.514  20.294  0.00  0.00    +0.000 C 
ATOM     15  C   UNL     1       1.471   2.731  21.615  0.00  0.00    +0.000 C 
ATOM     16  C   UNL     1       0.818   2.749  19.214  0.00  0.00    +0.000 C 
ENDBRANCH   8  14
ENDBRANCH   7  10
ENDBRANCH   1   7
BRANCH   4  17
ATOM     17  C   UNL     1       6.719   4.345  14.090  0.00  0.00    +0.000 C 
BRANCH  17  18
ATOM     18  C   UNL     1       6.179   3.708  12.840  0.00  0.00    +0.000 A 
ATOM     19  C   UNL     1       4.853   3.904  12.460  0.00  0.00    +0.000 A 
ATOM     20  C   UNL     1       4.323   3.072  11.484  0.00  0.00    +0.000 A 
ATOM     21  C   UNL     1       5.123   2.095  10.901  0.00  0.00    +0.000 A 
ATOM     22  C   UNL     1       6.434   1.987  11.319  0.00  0.00    +0.000 A 
ATOM     23  N   UNL     1       6.981   2.784  12.258  0.00  0.00    +0.000 NA
ENDBRANCH  17  18
ENDBRANCH   4  17
TORSDOF 5
ENDMDL
MODEL 5
REMARK VINA RESULT:      -6.1      4.640     10.595
REMARK  Name = 
REMARK  8 active torsions:
REMARK  status: ('A' for Active; 'I' for Inactive)
REMARK    1  A    between atoms: C_1  and  C_2
REMARK    2  A    between atoms: C_2  and  C_3
REMARK    3  A    between atoms: C_2  and  C_4
REMARK    4  A    between atoms: C_2  and  C_5
REMARK    5  A    between atoms: C_7  and  C_8
REMARK    6  A    between atoms: C_8  and  N_9
REMARK    7  A    between atoms: N_12  and  C_13
REMARK    8  A    between atoms: C_13  and  C_14
REMARK                            x       y       z     vdW  Elec       q    Type
REMARK                         _______ _______ _______ _____ _____    ______ ____
ROOT
ATOM      1  N   UNL     1       4.205   4.492  19.377  0.00  0.00    +0.000 NA
ATOM      2  C   UNL     1       4.533   3.647  18.222  0.00  0.00    +0.000 C 
ATOM      3  C   UNL     1       4.107   4.351  16.909  0.00  0.00    +0.000 C 
ATOM      4  N   UNL     1       5.097   5.375  16.531  0.00  0.00    +0.000 NA
ATOM      5  C   UNL     1       5.369   6.235  17.710  0.00  0.00    +0.000 C 
ATOM      6  C   UNL     1       4.968   5.760  19.180  0.00  0.00    +0.000 C 
ENDROOT
BRANCH   1   7
ATOM      7  C   UNL     1       2.738   4.655  19.519  0.00  0.00    +0.000 C 
BRANCH   7  10
ATOM      8  C   UNL     1       1.487   8.042  20.361  0.00  0.00    +0.000 A 
ATOM      9  N   UNL     1       1.735   6.759  20.587  0.00  0.00    +0.000 NA
ATOM     10  C   UNL     1       2.304   6.130  19.458  0.00  0.00    +0.000 A 
ATOM     11  C   UNL     1       2.431   6.973  18.372  0.00  0.00    +0.000 A 
ATOM     12  S   UNL     1       1.893   8.551  18.759  0.00  0.00    +0.000 S 
BRANCH   8  14
ATOM     13  C   UNL     1       1.759   9.178  22.636  0.00  0.00    +0.000 C 
ATOM     14  C   UNL     1       0.878   9.036  21.378  0.00  0.00    +0.000 C 
ATOM     15  C   UNL     1      -0.512   8.556  21.839  0.00  0.00    +0.000 C 
ATOM     16  C   UNL     1       0.703  10.439  20.757  0.00  0.00    +0.000 C 
ENDBRANCH   8  14
ENDBRANCH   7  10
ENDBRANCH   1   7
BRANCH   4  17
ATOM     17  C   UNL     1       6.240   4.626  15.972  0.00  0.00    +0.000 C 
BRANCH  17  18
ATOM     18  C   UNL     1       6.504   4.631  14.492  0.00  0.00    +0.000 A 
ATOM     19  C   UNL     1       5.853   3.728  13.653  0.00  0.00    +0.000 A 
ATOM     20  C   UNL     1       6.340   3.568  12.363  0.00  0.00    +0.000 A 
ATOM     21  C   UNL     1       7.433   4.318  11.939  0.00  0.00    +0.000 A 
ATOM     22  C   UNL     1       8.001   5.207  12.829  0.00  0.00    +0.000 A 
ATOM     23  N   UNL     1       7.547   5.392  14.084  0.00  0.00    +0.000 NA
ENDBRANCH  17  18
ENDBRANCH   4  17
TORSDOF 5
ENDMDL
MODEL 6
REMARK VINA RESULT:      -6.1      1.872      2.645
REMARK  Name = 
REMARK  8 active torsions:
REMARK  status: ('A' for Active; 'I' for Inactive)
REMARK    1  A    between atoms: C_1  and  C_2
REMARK    2  A    between atoms: C_2  and  C_3
REMARK    3  A    between atoms: C_2  and  C_4
REMARK    4  A    between atoms: C_2  and  C_5
REMARK    5  A    between atoms: C_7  and  C_8
REMARK    6  A    between atoms: C_8  and  N_9
REMARK    7  A    between atoms: N_12  and  C_13
REMARK    8  A    between atoms: C_13  and  C_14
REMARK                            x       y       z     vdW  Elec       q    Type
REMARK                         _______ _______ _______ _____ _____    ______ ____
ROOT
ATOM      1  N   UNL     1       2.074   8.822  19.034  0.00  0.00    +0.000 NA
ATOM      2  C   UNL     1       1.528  10.134  18.664  0.00  0.00    +0.000 C 
ATOM      3  C   UNL     1      -0.014  10.055  18.543  0.00  0.00    +0.000 C 
ATOM      4  N   UNL     1      -0.637  10.093  19.878  0.00  0.00    +0.000 NA
ATOM      5  C   UNL     1       0.033   9.092  20.747  0.00  0.00    +0.000 C 
ATOM      6  C   UNL     1       1.453   8.482  20.347  0.00  0.00    +0.000 C 
ENDROOT
BRANCH   1   7
ATOM      7  C   UNL     1       1.850   7.829  17.954  0.00  0.00    +0.000 C 
BRANCH   7  10
ATOM      8  C   UNL     1       2.771   4.325  18.740  0.00  0.00    +0.000 A 
ATOM      9  N   UNL     1       1.953   5.366  18.657  0.00  0.00    +0.000 NA
ATOM     10  C   UNL     1       2.622   6.520  18.195  0.00  0.00    +0.000 A 
ATOM     11  C   UNL     1       3.970   6.318  17.979  0.00  0.00    +0.000 A 
ATOM     12  S   UNL     1       4.402   4.693  18.300  0.00  0.00    +0.000 S 
BRANCH   8  14
ATOM     13  C   UNL     1       0.925   2.556  18.801  0.00  0.00    +0.000 C 
ATOM     14  C   UNL     1       2.375   2.901  19.197  0.00  0.00    +0.000 C 
ATOM     15  C   UNL     1       2.477   2.776  20.731  0.00  0.00    +0.000 C 
ATOM     16  C   UNL     1       3.307   1.834  18.583  0.00  0.00    +0.000 C 
ENDBRANCH   8  14
ENDBRANCH   7  10
ENDBRANCH   1   7
BRANCH   4  17
ATOM     17  C   UNL     1      -0.561  11.505  20.305  0.00  0.00    +0.000 C 
BRANCH  17  18
ATOM     18  C   UNL     1      -1.624  12.092  21.191  0.00  0.00    +0.000 A 
ATOM     19  C   UNL     1      -1.594  11.882  22.569  0.00  0.00    +0.000 A 
ATOM     20  C   UNL     1      -2.736  12.181  23.300  0.00  0.00    +0.000 A 
ATOM     21  C   UNL     1      -3.854  12.697  22.653  0.00  0.00    +0.000 A 
ATOM     22  C   UNL     1      -3.788  12.897  21.289  0.00  0.00    +0.000 A 
ATOM     23  N   UNL     1      -2.693  12.625  20.552  0.00  0.00    +0.000 NA
ENDBRANCH  17  18
ENDBRANCH   4  17
TORSDOF 5
ENDMDL
MODEL 7
REMARK VINA RESULT:      -6.1      4.120     10.391
REMARK  Name = 
REMARK  8 active torsions:
REMARK  status: ('A' for Active; 'I' for Inactive)
REMARK    1  A    between atoms: C_1  and  C_2
REMARK    2  A    between atoms: C_2  and  C_3
REMARK    3  A    between atoms: C_2  and  C_4
REMARK    4  A    between atoms: C_2  and  C_5
REMARK    5  A    between atoms: C_7  and  C_8
REMARK    6  A    between atoms: C_8  and  N_9
REMARK    7  A    between atoms: N_12  and  C_13
REMARK    8  A    between atoms: C_13  and  C_14
REMARK                            x       y       z     vdW  Elec       q    Type
REMARK                         _______ _______ _______ _____ _____    ______ ____
ROOT
ATOM      1  N   UNL     1       3.586   5.893  17.995  0.00  0.00    +0.000 NA
ATOM      2  C   UNL     1       4.970   6.357  17.832  0.00  0.00    +0.000 C 
ATOM      3  C   UNL     1       5.869   5.751  18.940  0.00  0.00    +0.000 C 
ATOM      4  N   UNL     1       6.221   4.359  18.612  0.00  0.00    +0.000 NA
ATOM      5  C   UNL     1       4.981   3.622  18.260  0.00  0.00    +0.000 C 
ATOM      6  C   UNL     1       3.642   4.406  17.884  0.00  0.00    +0.000 C 
ENDROOT
BRANCH   1   7
ATOM      7  C   UNL     1       2.997   6.410  19.254  0.00  0.00    +0.000 C 
BRANCH   7  10
ATOM      8  C   UNL     1       1.006   9.497  19.756  0.00  0.00    +0.000 A 
ATOM      9  N   UNL     1       1.568   8.353  20.123  0.00  0.00    +0.000 NA
ATOM     10  C   UNL     1       2.217   7.719  19.042  0.00  0.00    +0.000 A 
ATOM     11  C   UNL     1       2.083   8.403  17.851  0.00  0.00    +0.000 A 
ATOM     12  S   UNL     1       1.199   9.852  18.075  0.00  0.00    +0.000 S 
BRANCH   8  14
ATOM     13  C   UNL     1      -0.138   9.786  22.024  0.00  0.00    +0.000 C 
ATOM     14  C   UNL     1       0.225  10.457  20.684  0.00  0.00    +0.000 C 
ATOM     15  C   UNL     1      -1.093  10.901  20.018  0.00  0.00    +0.000 C 
ATOM     16  C   UNL     1       1.041  11.730  20.992  0.00  0.00    +0.000 C 
ENDBRANCH   8  14
ENDBRANCH   7  10
ENDBRANCH   1   7
BRANCH   4  17
ATOM     17  C   UNL     1       7.261   4.454  17.568  0.00  0.00    +0.000 C 
BRANCH  17  18
ATOM     18  C   UNL     1       6.877   4.551  16.117  0.00  0.00    +0.000 A 
ATOM     19  C   UNL     1       6.027   3.606  15.544  0.00  0.00    +0.000 A 
ATOM     20  C   UNL     1       5.940   3.560  14.160  0.00  0.00    +0.000 A 
ATOM     21  C   UNL     1       6.674   4.459  13.392  0.00  0.00    +0.000 A 
ATOM     22  C   UNL     1       7.472   5.378  14.044  0.00  0.00    +0.000 A 
ATOM     23  N   UNL     1       7.571   5.454  15.385  0.00  0.00    +0.000 NA
ENDBRANCH  17  18
ENDBRANCH   4  17
TORSDOF 5
ENDMDL
MODEL 8
REMARK VINA RESULT:      -6.1      2.852      4.025
REMARK  Name = 
REMARK  8 active torsions:
REMARK  status: ('A' for Active; 'I' for Inactive)
REMARK    1  A    between atoms: C_1  and  C_2
REMARK    2  A    between atoms: C_2  and  C_3
REMARK    3  A    between atoms: C_2  and  C_4
REMARK    4  A    between atoms: C_2  and  C_5
REMARK    5  A    between atoms: C_7  and  C_8
REMARK    6  A    between atoms: C_8  and  N_9
REMARK    7  A    between atoms: N_12  and  C_13
REMARK    8  A    between atoms: C_13  and  C_14
REMARK                            x       y       z     vdW  Elec       q    Type
REMARK                         _______ _______ _______ _____ _____    ______ ____
ROOT
ATOM      1  N   UNL     1       2.067   9.035  19.021  0.00  0.00    +0.000 NA
ATOM      2  C   UNL     1       1.465  10.272  18.506  0.00  0.00    +0.000 C 
ATOM      3  C   UNL     1      -0.058  10.080  18.306  0.00  0.00    +0.000 C 
ATOM      4  N   UNL     1      -0.764  10.189  19.595  0.00  0.00    +0.000 NA
ATOM      5  C   UNL     1      -0.089   9.312  20.584  0.00  0.00    +0.000 C 
ATOM      6  C   UNL     1       1.388   8.766  20.322  0.00  0.00    +0.000 C 
ENDROOT
BRANCH   1   7
ATOM      7  C   UNL     1       1.973   7.942  18.022  0.00  0.00    +0.000 C 
BRANCH   7  10
ATOM      8  C   UNL     1       5.168   6.072  17.824  0.00  0.00    +0.000 A 
ATOM      9  N   UNL     1       4.312   7.031  17.500  0.00  0.00    +0.000 NA
ATOM     10  C   UNL     1       3.089   6.896  18.192  0.00  0.00    +0.000 A 
ATOM     11  C   UNL     1       3.045   5.783  19.006  0.00  0.00    +0.000 A 
ATOM     12  S   UNL     1       4.529   4.931  18.956  0.00  0.00    +0.000 S 
BRANCH   8  14
ATOM     13  C   UNL     1       6.599   5.487  15.788  0.00  0.00    +0.000 C 
ATOM     14  C   UNL     1       6.603   5.917  17.269  0.00  0.00    +0.000 C 
ATOM     15  C   UNL     1       7.378   4.844  18.059  0.00  0.00    +0.000 C 
ATOM     16  C   UNL     1       7.395   7.238  17.381  0.00  0.00    +0.000 C 
ENDBRANCH   8  14
ENDBRANCH   7  10
ENDBRANCH   1   7
BRANCH   4  17
ATOM     17  C   UNL     1      -0.802  11.634  19.898  0.00  0.00    +0.000 C 
BRANCH  17  18
ATOM     18  C   UNL     1      -1.771  12.174  20.913  0.00  0.00    +0.000 A 
ATOM     19  C   UNL     1      -1.516  12.042  22.277  0.00  0.00    +0.000 A 
ATOM     20  C   UNL     1      -2.559  12.281  23.162  0.00  0.00    +0.000 A 
ATOM     21  C   UNL     1      -3.804  12.664  22.674  0.00  0.00    +0.000 A 
ATOM     22  C   UNL     1      -3.961  12.795  21.310  0.00  0.00    +0.000 A 
ATOM     23  N   UNL     1      -2.968  12.578  20.425  0.00  0.00    +0.000 NA
ENDBRANCH  17  18
ENDBRANCH   4  17
TORSDOF 5
ENDMDL
MODEL 9
REMARK VINA RESULT:      -6.1      0.761      1.197
REMARK  Name = 
REMARK  8 active torsions:
REMARK  status: ('A' for Active; 'I' for Inactive)
REMARK    1  A    between atoms: C_1  and  C_2
REMARK    2  A    between atoms: C_2  and  C_3
REMARK    3  A    between atoms: C_2  and  C_4
REMARK    4  A    between atoms: C_2  and  C_5
REMARK    5  A    between atoms: C_7  and  C_8
REMARK    6  A    between atoms: C_8  and  N_9
REMARK    7  A    between atoms: N_12  and  C_13
REMARK    8  A    between atoms: C_13  and  C_14
REMARK                            x       y       z     vdW  Elec       q    Type
REMARK                         _______ _______ _______ _____ _____    ______ ____
ROOT
ATOM      1  N   UNL     1       0.605   9.286  20.111  0.00  0.00    +0.000 NA
ATOM      2  C   UNL     1      -0.566   9.667  20.911  0.00  0.00    +0.000 C 
ATOM      3  C   UNL     1      -0.131  10.552  22.105  0.00  0.00    +0.000 C 
ATOM      4  N   UNL     1       0.105  11.937  21.660  0.00  0.00    +0.000 NA
ATOM      5  C   UNL     1       0.991  11.911  20.469  0.00  0.00    +0.000 C 
ATOM      6  C   UNL     1       1.204  10.567  19.635  0.00  0.00    +0.000 C 
ENDROOT
BRANCH   1   7
ATOM      7  C   UNL     1       1.518   8.413  20.888  0.00  0.00    +0.000 C 
BRANCH   7  10
ATOM      8  C   UNL     1       2.123   4.917  19.809  0.00  0.00    +0.000 A 
ATOM      9  N   UNL     1       1.765   5.871  20.658  0.00  0.00    +0.000 NA
ATOM     10  C   UNL     1       1.937   7.157  20.102  0.00  0.00    +0.000 A 
ATOM     11  C   UNL     1       2.474   7.133  18.831  0.00  0.00    +0.000 A 
ATOM     12  S   UNL     1       2.722   5.523  18.304  0.00  0.00    +0.000 S 
BRANCH   8  14
ATOM     13  C   UNL     1       3.365   2.686  19.679  0.00  0.00    +0.000 C 
ATOM     14  C   UNL     1       2.056   3.396  20.080  0.00  0.00    +0.000 C 
ATOM     15  C   UNL     1       0.913   2.751  19.270  0.00  0.00    +0.000 C 
ATOM     16  C   UNL     1       1.789   3.102  21.572  0.00  0.00    +0.000 C 
ENDBRANCH   8  14
ENDBRANCH   7  10
ENDBRANCH   1   7
BRANCH   4  17
ATOM     17  C   UNL     1      -1.239  12.523  21.480  0.00  0.00    +0.000 C 
BRANCH  17  18
ATOM     18  C   UNL     1      -1.826  13.421  22.534  0.00  0.00    +0.000 A 
ATOM     19  C   UNL     1      -0.998  14.181  23.359  0.00  0.00    +0.000 A 
ATOM     20  C   UNL     1      -1.555  14.753  24.494  0.00  0.00    +0.000 A 
ATOM     21  C   UNL     1      -2.909  14.577  24.762  0.00  0.00    +0.000 A 
ATOM     22  C   UNL     1      -3.660  13.829  23.878  0.00  0.00    +0.000 A 
ATOM     23  N   UNL     1      -3.151  13.268  22.764  0.00  0.00    +0.000 NA
ENDBRANCH  17  18
ENDBRANCH   4  17
TORSDOF 5
ENDMDL
