MODEL 1
REMARK VINA RESULT:      -7.6      0.000      0.000
REMARK  Name = 
REMARK  12 active torsions:
REMARK  status: ('A' for Active; 'I' for Inactive)
REMARK    1  A    between atoms: C_1  and  N_2
REMARK    2  A    between atoms: N_9  and  C_10
REMARK    3  A    between atoms: C_10  and  C_11
REMARK    4  A    between atoms: N_16  and  C_17
REMARK    5  A    between atoms: C_17  and  C_18
REMARK    6  A    between atoms: C_18  and  C_19
REMARK    7  A    between atoms: C_19  and  C_20
REMARK    8  A    between atoms: N_22  and  N_23
REMARK    9  A    between atoms: C_24  and  C_25
REMARK   10  A    between atoms: C_28  and  O_29
REMARK   11  A    between atoms: C_31  and  O_32
REMARK   12  A    between atoms: N_33  and  C_34
REMARK                            x       y       z     vdW  Elec       q    Type
REMARK                         _______ _______ _______ _____ _____    ______ ____
ROOT
ATOM      1  C   UNL     1      -2.368  10.348  16.226  0.00  0.00    +0.000 C 
ATOM      2  N   UNL     1      -2.899  11.087  17.353  0.00  0.00    +0.000 N 
ATOM      3  C   UNL     1      -2.078  11.285  18.474  0.00  0.00    +0.000 A 
ATOM      4  O   UNL     1      -0.927  10.865  18.565  0.00  0.00    +0.000 OA
ATOM      5  C   UNL     1      -2.723  12.014  19.513  0.00  0.00    +0.000 A 
ATOM      6  C   UNL     1      -4.012  12.446  19.408  0.00  0.00    +0.000 A 
ATOM      7  N   UNL     1      -4.435  13.061  20.534  0.00  0.00    +0.000 NA
ATOM      8  C   UNL     1      -3.411  13.023  21.356  0.00  0.00    +0.000 A 
ATOM      9  N   UNL     1      -3.423  13.423  22.641  0.00  0.00    +0.000 N 
ATOM     10  N   UNL     1      -2.313  12.424  20.762  0.00  0.00    +0.000 N 
ATOM     11  N   UNL     1      -4.773  12.237  18.286  0.00  0.00    +0.000 N 
ATOM     12  C   UNL     1      -6.139  12.712  18.190  0.00  0.00    +0.000 C 
ATOM     13  C   UNL     1      -4.227  11.537  17.216  0.00  0.00    +0.000 A 
ATOM     14  O   UNL     1      -4.879  11.315  16.192  0.00  0.00    +0.000 OA
ATOM     15  H   UNL     1      -2.638  13.940  23.027  0.00  0.00    +0.000 HD
ENDROOT
BRANCH   9  16
ATOM     16  C   UNL     1      -4.719  13.785  23.208  0.00  0.00    +0.000 C 
BRANCH  16  17
ATOM     17  C   UNL     1      -4.736  15.104  23.900  0.00  0.00    +0.000 A 
ATOM     18  C   UNL     1      -3.792  15.799  24.629  0.00  0.00    +0.000 A 
ATOM     19  C   UNL     1      -4.432  16.974  25.090  0.00  0.00    +0.000 A 
ATOM     20  C   UNL     1      -5.721  16.921  24.614  0.00  0.00    +0.000 A 
ATOM     21  O   UNL     1      -5.915  15.790  23.888  0.00  0.00    +0.000 OA
ENDBRANCH  16  17
ENDBRANCH   9  16
BRANCH  10  22
ATOM     22  C   UNL     1      -0.991  12.254  21.348  0.00  0.00    +0.000 C 
BRANCH  22  23
ATOM     23  C   UNL     1      -0.887  11.081  22.332  0.00  0.00    +0.000 C 
BRANCH  23  24
ATOM     24  C   UNL     1       0.480  10.372  22.280  0.00  0.00    +0.000 C 
BRANCH  24  25
ATOM     25  C   UNL     1       0.376   8.950  21.758  0.00  0.00    +0.000 C 
ATOM     26  O   UNL     1      -0.706   8.356  21.741  0.00  0.00    +0.000 OA
ATOM     27  N   UNL     1       1.574   8.408  21.308  0.00  0.00    +0.000 N 
ATOM     28  H   UNL     1       2.441   8.930  21.327  0.00  0.00    +0.000 HD
BRANCH  27  29
ATOM     29  N   UNL     1       1.564   7.120  20.868  0.00  0.00    +0.000 NA
ATOM     30  C   UNL     1       2.292   6.809  19.838  0.00  0.00    +0.000 C 
BRANCH  30  31
ATOM     31  C   UNL     1       2.298   5.410  19.333  0.00  0.00    +0.000 A 
ATOM     32  C   UNL     1       2.186   5.178  17.953  0.00  0.00    +0.000 A 
ATOM     33  C   UNL     1       2.204   3.876  17.447  0.00  0.00    +0.000 A 
ATOM     34  C   UNL     1       2.330   2.808  18.326  0.00  0.00    +0.000 A 
ATOM     35  C   UNL     1       2.433   3.016  19.699  0.00  0.00    +0.000 A 
ATOM     36  C   UNL     1       2.419   4.321  20.203  0.00  0.00    +0.000 A 
BRANCH  34  37
ATOM     37  O   UNL     1       2.361   1.521  17.874  0.00  0.00    +0.000 OA
ATOM     38  H   UNL     1       3.079   1.046  18.325  0.00  0.00    +0.000 HD
ENDBRANCH  34  37
BRANCH  36  39
ATOM     39  O   UNL     1       2.526   4.524  21.552  0.00  0.00    +0.000 OA
ATOM     40  H   UNL     1       2.802   3.690  21.969  0.00  0.00    +0.000 HD
ENDBRANCH  36  39
ENDBRANCH  30  31
ENDBRANCH  27  29
ENDBRANCH  24  25
ENDBRANCH  23  24
ENDBRANCH  22  23
ENDBRANCH  10  22
TORSDOF 10
ENDMDL
MODEL 2
REMARK VINA RESULT:      -7.5      0.986      1.089
REMARK  Name = 
REMARK  12 active torsions:
REMARK  status: ('A' for Active; 'I' for Inactive)
REMARK    1  A    between atoms: C_1  and  N_2
REMARK    2  A    between atoms: N_9  and  C_10
REMARK    3  A    between atoms: C_10  and  C_11
REMARK    4  A    between atoms: N_16  and  C_17
REMARK    5  A    between atoms: C_17  and  C_18
REMARK    6  A    between atoms: C_18  and  C_19
REMARK    7  A    between atoms: C_19  and  C_20
REMARK    8  A    between atoms: N_22  and  N_23
REMARK    9  A    between atoms: C_24  and  C_25
REMARK   10  A    between atoms: C_28  and  O_29
REMARK   11  A    between atoms: C_31  and  O_32
REMARK   12  A    between atoms: N_33  and  C_34
REMARK                            x       y       z     vdW  Elec       q    Type
REMARK                         _______ _______ _______ _____ _____    ______ ____
ROOT
ATOM      1  C   UNL     1      -2.579  10.957  16.225  0.00  0.00    +0.000 C 
ATOM      2  N   UNL     1      -2.933  11.462  17.535  0.00  0.00    +0.000 N 
ATOM      3  C   UNL     1      -1.904  11.777  18.435  0.00  0.00    +0.000 A 
ATOM      4  O   UNL     1      -0.708  11.648  18.183  0.00  0.00    +0.000 OA
ATOM      5  C   UNL     1      -2.386  12.252  19.688  0.00  0.00    +0.000 A 
ATOM      6  C   UNL     1      -3.718  12.361  19.962  0.00  0.00    +0.000 A 
ATOM      7  N   UNL     1      -3.944  12.773  21.227  0.00  0.00    +0.000 NA
ATOM      8  C   UNL     1      -2.753  12.931  21.759  0.00  0.00    +0.000 A 
ATOM      9  N   UNL     1      -2.503  13.225  23.048  0.00  0.00    +0.000 N 
ATOM     10  N   UNL     1      -1.753  12.662  20.840  0.00  0.00    +0.000 N 
ATOM     11  N   UNL     1      -4.689  12.049  19.044  0.00  0.00    +0.000 N 
ATOM     12  C   UNL     1      -6.100  12.180  19.352  0.00  0.00    +0.000 C 
ATOM     13  C   UNL     1      -4.314  11.580  17.790  0.00  0.00    +0.000 A 
ATOM     14  O   UNL     1      -5.154  11.277  16.938  0.00  0.00    +0.000 OA
ATOM     15  H   UNL     1      -1.776  13.891  23.294  0.00  0.00    +0.000 HD
ENDROOT
BRANCH   9  16
ATOM     16  C   UNL     1      -3.645  13.218  23.960  0.00  0.00    +0.000 C 
BRANCH  16  17
ATOM     17  C   UNL     1      -4.224  14.564  24.224  0.00  0.00    +0.000 A 
ATOM     18  C   UNL     1      -5.385  15.190  23.814  0.00  0.00    +0.000 A 
ATOM     19  C   UNL     1      -5.339  16.500  24.348  0.00  0.00    +0.000 A 
ATOM     20  C   UNL     1      -4.159  16.589  25.047  0.00  0.00    +0.000 A 
ATOM     21  O   UNL     1      -3.475  15.418  24.980  0.00  0.00    +0.000 OA
ENDBRANCH  16  17
ENDBRANCH   9  16
BRANCH  10  22
ATOM     22  C   UNL     1      -0.318  12.782  21.054  0.00  0.00    +0.000 C 
BRANCH  22  23
ATOM     23  C   UNL     1       0.420  11.438  21.121  0.00  0.00    +0.000 C 
BRANCH  23  24
ATOM     24  C   UNL     1      -0.321  10.388  21.971  0.00  0.00    +0.000 C 
BRANCH  24  25
ATOM     25  C   UNL     1       0.038   8.966  21.576  0.00  0.00    +0.000 C 
ATOM     26  O   UNL     1      -0.790   8.055  21.657  0.00  0.00    +0.000 OA
ATOM     27  N   UNL     1       1.341   8.803  21.121  0.00  0.00    +0.000 N 
ATOM     28  H   UNL     1       1.990   9.577  21.057  0.00  0.00    +0.000 HD
BRANCH  27  29
ATOM     29  N   UNL     1       1.747   7.546  20.792  0.00  0.00    +0.000 NA
ATOM     30  C   UNL     1       2.232   7.340  19.605  0.00  0.00    +0.000 C 
BRANCH  30  31
ATOM     31  C   UNL     1       2.681   5.976  19.217  0.00  0.00    +0.000 A 
ATOM     32  C   UNL     1       3.061   5.731  17.888  0.00  0.00    +0.000 A 
ATOM     33  C   UNL     1       3.501   4.464  17.496  0.00  0.00    +0.000 A 
ATOM     34  C   UNL     1       3.555   3.443  18.437  0.00  0.00    +0.000 A 
ATOM     35  C   UNL     1       3.173   3.663  19.757  0.00  0.00    +0.000 A 
ATOM     36  C   UNL     1       2.737   4.933  20.148  0.00  0.00    +0.000 A 
BRANCH  34  37
ATOM     37  O   UNL     1       3.986   2.194  18.099  0.00  0.00    +0.000 OA
ATOM     38  H   UNL     1       4.765   1.974  18.637  0.00  0.00    +0.000 HD
ENDBRANCH  34  37
BRANCH  36  39
ATOM     39  O   UNL     1       2.368   5.149  21.448  0.00  0.00    +0.000 OA
ATOM     40  H   UNL     1       1.538   4.671  21.618  0.00  0.00    +0.000 HD
ENDBRANCH  36  39
ENDBRANCH  30  31
ENDBRANCH  27  29
ENDBRANCH  24  25
ENDBRANCH  23  24
ENDBRANCH  22  23
ENDBRANCH  10  22
TORSDOF 10
ENDMDL
MODEL 3
REMARK VINA RESULT:      -7.4      2.932      3.788
REMARK  Name = 
REMARK  12 active torsions:
REMARK  status: ('A' for Active; 'I' for Inactive)
REMARK    1  A    between atoms: C_1  and  N_2
REMARK    2  A    between atoms: N_9  and  C_10
REMARK    3  A    between atoms: C_10  and  C_11
REMARK    4  A    between atoms: N_16  and  C_17
REMARK    5  A    between atoms: C_17  and  C_18
REMARK    6  A    between atoms: C_18  and  C_19
REMARK    7  A    between atoms: C_19  and  C_20
REMARK    8  A    between atoms: N_22  and  N_23
REMARK    9  A    between atoms: C_24  and  C_25
REMARK   10  A    between atoms: C_28  and  O_29
REMARK   11  A    between atoms: C_31  and  O_32
REMARK   12  A    between atoms: N_33  and  C_34
REMARK                            x       y       z     vdW  Elec       q    Type
REMARK                         _______ _______ _______ _____ _____    ______ ____
ROOT
ATOM      1  C   UNL     1       2.274  11.174  17.739  0.00  0.00    +0.000 C 
ATOM      2  N   UNL     1       1.876  11.962  18.886  0.00  0.00    +0.000 N 
ATOM      3  C   UNL     1       0.806  11.511  19.674  0.00  0.00    +0.000 A 
ATOM      4  O   UNL     1       0.176  10.480  19.450  0.00  0.00    +0.000 OA
ATOM      5  C   UNL     1       0.509  12.381  20.761  0.00  0.00    +0.000 A 
ATOM      6  C   UNL     1       1.199  13.537  20.977  0.00  0.00    +0.000 A 
ATOM      7  N   UNL     1       0.709  14.233  22.026  0.00  0.00    +0.000 NA
ATOM      8  C   UNL     1      -0.294  13.515  22.479  0.00  0.00    +0.000 A 
ATOM      9  N   UNL     1      -1.146  13.887  23.453  0.00  0.00    +0.000 N 
ATOM     10  N   UNL     1      -0.437  12.341  21.761  0.00  0.00    +0.000 N 
ATOM     11  N   UNL     1       2.246  13.933  20.184  0.00  0.00    +0.000 N 
ATOM     12  C   UNL     1       2.974  15.162  20.436  0.00  0.00    +0.000 C 
ATOM     13  C   UNL     1       2.612  13.144  19.099  0.00  0.00    +0.000 A 
ATOM     14  O   UNL     1       3.541  13.467  18.352  0.00  0.00    +0.000 OA
ATOM     15  H   UNL     1      -1.448  13.219  24.156  0.00  0.00    +0.000 HD
ENDROOT
BRANCH   9  16
ATOM     16  C   UNL     1      -1.037  15.262  23.936  0.00  0.00    +0.000 C 
BRANCH  16  17
ATOM     17  C   UNL     1      -2.346  15.931  24.171  0.00  0.00    +0.000 A 
ATOM     18  C   UNL     1      -3.249  15.900  25.216  0.00  0.00    +0.000 A 
ATOM     19  C   UNL     1      -4.345  16.702  24.818  0.00  0.00    +0.000 A 
ATOM     20  C   UNL     1      -4.042  17.170  23.562  0.00  0.00    +0.000 A 
ATOM     21  O   UNL     1      -2.829  16.710  23.161  0.00  0.00    +0.000 OA
ENDBRANCH  16  17
ENDBRANCH   9  16
BRANCH  10  22
ATOM     22  C   UNL     1      -1.401  11.279  22.010  0.00  0.00    +0.000 C 
BRANCH  22  23
ATOM     23  C   UNL     1      -1.047  10.376  23.199  0.00  0.00    +0.000 C 
BRANCH  23  24
ATOM     24  C   UNL     1       0.322   9.686  23.042  0.00  0.00    +0.000 C 
BRANCH  24  25
ATOM     25  C   UNL     1       0.295   8.574  22.010  0.00  0.00    +0.000 C 
ATOM     26  O   UNL     1      -0.763   8.022  21.696  0.00  0.00    +0.000 OA
ATOM     27  N   UNL     1       1.535   8.258  21.465  0.00  0.00    +0.000 N 
ATOM     28  H   UNL     1       2.381   8.740  21.740  0.00  0.00    +0.000 HD
BRANCH  27  29
ATOM     29  N   UNL     1       1.593   7.238  20.566  0.00  0.00    +0.000 NA
ATOM     30  C   UNL     1       1.816   6.036  21.003  0.00  0.00    +0.000 C 
BRANCH  30  31
ATOM     31  C   UNL     1       1.889   4.902  20.042  0.00  0.00    +0.000 A 
ATOM     32  C   UNL     1       0.987   3.834  20.173  0.00  0.00    +0.000 A 
ATOM     33  C   UNL     1       1.020   2.762  19.277  0.00  0.00    +0.000 A 
ATOM     34  C   UNL     1       1.961   2.761  18.255  0.00  0.00    +0.000 A 
ATOM     35  C   UNL     1       2.870   3.806  18.115  0.00  0.00    +0.000 A 
ATOM     36  C   UNL     1       2.832   4.879  19.010  0.00  0.00    +0.000 A 
BRANCH  34  37
ATOM     37  O   UNL     1       2.023   1.738  17.353  0.00  0.00    +0.000 OA
ATOM     38  H   UNL     1       1.214   1.744  16.815  0.00  0.00    +0.000 HD
ENDBRANCH  34  37
BRANCH  36  39
ATOM     39  O   UNL     1       3.723   5.908  18.867  0.00  0.00    +0.000 OA
ATOM     40  H   UNL     1       4.590   5.615  19.195  0.00  0.00    +0.000 HD
ENDBRANCH  36  39
ENDBRANCH  30  31
ENDBRANCH  27  29
ENDBRANCH  24  25
ENDBRANCH  23  24
ENDBRANCH  22  23
ENDBRANCH  10  22
TORSDOF 10
ENDMDL
MODEL 4
REMARK VINA RESULT:      -7.4      2.771      4.647
REMARK  Name = 
REMARK  12 active torsions:
REMARK  status: ('A' for Active; 'I' for Inactive)
REMARK    1  A    between atoms: C_1  and  N_2
REMARK    2  A    between atoms: N_9  and  C_10
REMARK    3  A    between atoms: C_10  and  C_11
REMARK    4  A    between atoms: N_16  and  C_17
REMARK    5  A    between atoms: C_17  and  C_18
REMARK    6  A    between atoms: C_18  and  C_19
REMARK    7  A    between atoms: C_19  and  C_20
REMARK    8  A    between atoms: N_22  and  N_23
REMARK    9  A    between atoms: C_24  and  C_25
REMARK   10  A    between atoms: C_28  and  O_29
REMARK   11  A    between atoms: C_31  and  O_32
REMARK   12  A    between atoms: N_33  and  C_34
REMARK                            x       y       z     vdW  Elec       q    Type
REMARK                         _______ _______ _______ _____ _____    ______ ____
ROOT
ATOM      1  C   UNL     1      -6.352  11.943  18.796  0.00  0.00    +0.000 C 
ATOM      2  N   UNL     1      -4.908  11.888  18.692  0.00  0.00    +0.000 N 
ATOM      3  C   UNL     1      -4.140  12.284  19.797  0.00  0.00    +0.000 A 
ATOM      4  O   UNL     1      -4.615  12.682  20.858  0.00  0.00    +0.000 OA
ATOM      5  C   UNL     1      -2.738  12.193  19.561  0.00  0.00    +0.000 A 
ATOM      6  C   UNL     1      -2.227  11.778  18.367  0.00  0.00    +0.000 A 
ATOM      7  N   UNL     1      -0.877  11.828  18.347  0.00  0.00    +0.000 NA
ATOM      8  C   UNL     1      -0.530  12.273  19.534  0.00  0.00    +0.000 A 
ATOM      9  N   UNL     1       0.722  12.586  19.918  0.00  0.00    +0.000 N 
ATOM     10  N   UNL     1      -1.638  12.476  20.339  0.00  0.00    +0.000 N 
ATOM     11  N   UNL     1      -3.020  11.391  17.317  0.00  0.00    +0.000 N 
ATOM     12  C   UNL     1      -2.456  10.945  16.058  0.00  0.00    +0.000 C 
ATOM     13  C   UNL     1      -4.403  11.442  17.455  0.00  0.00    +0.000 A 
ATOM     14  O   UNL     1      -5.155  11.114  16.532  0.00  0.00    +0.000 OA
ATOM     15  H   UNL     1       1.056  12.332  20.843  0.00  0.00    +0.000 HD
ENDROOT
BRANCH   9  16
ATOM     16  C   UNL     1       1.752  12.574  18.882  0.00  0.00    +0.000 C 
BRANCH  16  17
ATOM     17  C   UNL     1       2.317  13.916  18.568  0.00  0.00    +0.000 A 
ATOM     18  C   UNL     1       3.568  14.345  18.170  0.00  0.00    +0.000 A 
ATOM     19  C   UNL     1       3.499  15.757  18.098  0.00  0.00    +0.000 A 
ATOM     20  C   UNL     1       2.216  16.098  18.454  0.00  0.00    +0.000 A 
ATOM     21  O   UNL     1       1.489  14.987  18.739  0.00  0.00    +0.000 OA
ENDBRANCH  16  17
ENDBRANCH   9  16
BRANCH  10  22
ATOM     22  C   UNL     1      -1.637  12.910  21.728  0.00  0.00    +0.000 C 
BRANCH  22  23
ATOM     23  C   UNL     1      -0.599  12.198  22.607  0.00  0.00    +0.000 C 
BRANCH  23  24
ATOM     24  C   UNL     1      -0.871  10.689  22.755  0.00  0.00    +0.000 C 
BRANCH  24  25
ATOM     25  C   UNL     1       0.341   9.845  22.402  0.00  0.00    +0.000 C 
ATOM     26  O   UNL     1       1.265   9.690  23.205  0.00  0.00    +0.000 OA
ATOM     27  N   UNL     1       0.302   9.277  21.134  0.00  0.00    +0.000 N 
ATOM     28  H   UNL     1      -0.479   9.417  20.505  0.00  0.00    +0.000 HD
BRANCH  27  29
ATOM     29  N   UNL     1       1.376   8.544  20.731  0.00  0.00    +0.000 NA
ATOM     30  C   UNL     1       1.328   7.954  19.576  0.00  0.00    +0.000 C 
BRANCH  30  31
ATOM     31  C   UNL     1       2.486   7.144  19.112  0.00  0.00    +0.000 A 
ATOM     32  C   UNL     1       3.133   7.495  17.916  0.00  0.00    +0.000 A 
ATOM     33  C   UNL     1       4.233   6.762  17.462  0.00  0.00    +0.000 A 
ATOM     34  C   UNL     1       4.679   5.677  18.205  0.00  0.00    +0.000 A 
ATOM     35  C   UNL     1       4.045   5.306  19.387  0.00  0.00    +0.000 A 
ATOM     36  C   UNL     1       2.947   6.043  19.842  0.00  0.00    +0.000 A 
BRANCH  34  37
ATOM     37  O   UNL     1       5.754   4.939  17.802  0.00  0.00    +0.000 OA
ATOM     38  H   UNL     1       5.549   3.996  17.916  0.00  0.00    +0.000 HD
ENDBRANCH  34  37
BRANCH  36  39
ATOM     39  O   UNL     1       2.329   5.682  21.008  0.00  0.00    +0.000 OA
ATOM     40  H   UNL     1       2.955   5.164  21.543  0.00  0.00    +0.000 HD
ENDBRANCH  36  39
ENDBRANCH  30  31
ENDBRANCH  27  29
ENDBRANCH  24  25
ENDBRANCH  23  24
ENDBRANCH  22  23
ENDBRANCH  10  22
TORSDOF 10
ENDMDL
MODEL 5
REMARK VINA RESULT:      -7.3      1.528      1.649
REMARK  Name = 
REMARK  12 active torsions:
REMARK  status: ('A' for Active; 'I' for Inactive)
REMARK    1  A    between atoms: C_1  and  N_2
REMARK    2  A    between atoms: N_9  and  C_10
REMARK    3  A    between atoms: C_10  and  C_11
REMARK    4  A    between atoms: N_16  and  C_17
REMARK    5  A    between atoms: C_17  and  C_18
REMARK    6  A    between atoms: C_18  and  C_19
REMARK    7  A    between atoms: C_19  and  C_20
REMARK    8  A    between atoms: N_22  and  N_23
REMARK    9  A    between atoms: C_24  and  C_25
REMARK   10  A    between atoms: C_28  and  O_29
REMARK   11  A    between atoms: C_31  and  O_32
REMARK   12  A    between atoms: N_33  and  C_34
REMARK                            x       y       z     vdW  Elec       q    Type
REMARK                         _______ _______ _______ _____ _____    ______ ____
ROOT
ATOM      1  C   UNL     1      -4.363  11.178  15.917  0.00  0.00    +0.000 C 
ATOM      2  N   UNL     1      -4.295  11.660  17.281  0.00  0.00    +0.000 N 
ATOM      3  C   UNL     1      -3.101  11.483  17.997  0.00  0.00    +0.000 A 
ATOM      4  O   UNL     1      -2.100  10.937  17.539  0.00  0.00    +0.000 OA
ATOM      5  C   UNL     1      -3.170  11.991  19.325  0.00  0.00    +0.000 A 
ATOM      6  C   UNL     1      -4.299  12.567  19.828  0.00  0.00    +0.000 A 
ATOM      7  N   UNL     1      -4.157  12.920  21.123  0.00  0.00    +0.000 NA
ATOM      8  C   UNL     1      -2.932  12.570  21.445  0.00  0.00    +0.000 A 
ATOM      9  N   UNL     1      -2.398  12.633  22.679  0.00  0.00    +0.000 N 
ATOM     10  N   UNL     1      -2.263  12.028  20.361  0.00  0.00    +0.000 N 
ATOM     11  N   UNL     1      -5.441  12.727  19.084  0.00  0.00    +0.000 N 
ATOM     12  C   UNL     1      -6.629  13.351  19.633  0.00  0.00    +0.000 C 
ATOM     13  C   UNL     1      -5.468  12.266  17.773  0.00  0.00    +0.000 A 
ATOM     14  O   UNL     1      -6.477  12.378  17.071  0.00  0.00    +0.000 OA
ATOM     15  H   UNL     1      -1.442  12.951  22.812  0.00  0.00    +0.000 HD
ENDROOT
BRANCH   9  16
ATOM     16  C   UNL     1      -3.304  12.973  23.774  0.00  0.00    +0.000 C 
BRANCH  16  17
ATOM     17  C   UNL     1      -3.469  14.437  23.996  0.00  0.00    +0.000 A 
ATOM     18  C   UNL     1      -2.573  15.472  24.174  0.00  0.00    +0.000 A 
ATOM     19  C   UNL     1      -3.348  16.633  24.407  0.00  0.00    +0.000 A 
ATOM     20  C   UNL     1      -4.663  16.233  24.356  0.00  0.00    +0.000 A 
ATOM     21  O   UNL     1      -4.747  14.902  24.103  0.00  0.00    +0.000 OA
ENDBRANCH  16  17
ENDBRANCH   9  16
BRANCH  10  22
ATOM     22  C   UNL     1      -0.878  11.581  20.327  0.00  0.00    +0.000 C 
BRANCH  22  23
ATOM     23  C   UNL     1      -0.653  10.192  20.942  0.00  0.00    +0.000 C 
BRANCH  23  24
ATOM     24  C   UNL     1       0.836   9.873  21.178  0.00  0.00    +0.000 C 
BRANCH  24  25
ATOM     25  C   UNL     1       1.327   8.729  20.309  0.00  0.00    +0.000 C 
ATOM     26  O   UNL     1       1.511   8.882  19.098  0.00  0.00    +0.000 OA
ATOM     27  N   UNL     1       1.553   7.539  20.991  0.00  0.00    +0.000 N 
ATOM     28  H   UNL     1       1.402   7.454  21.988  0.00  0.00    +0.000 HD
BRANCH  27  29
ATOM     29  N   UNL     1       1.951   6.457  20.268  0.00  0.00    +0.000 NA
ATOM     30  C   UNL     1       2.185   5.344  20.893  0.00  0.00    +0.000 C 
BRANCH  30  31
ATOM     31  C   UNL     1       2.625   4.145  20.129  0.00  0.00    +0.000 A 
ATOM     32  C   UNL     1       3.949   4.076  19.665  0.00  0.00    +0.000 A 
ATOM     33  C   UNL     1       4.396   2.956  18.957  0.00  0.00    +0.000 A 
ATOM     34  C   UNL     1       3.514   1.912  18.712  0.00  0.00    +0.000 A 
ATOM     35  C   UNL     1       2.195   1.967  19.155  0.00  0.00    +0.000 A 
ATOM     36  C   UNL     1       1.751   3.086  19.866  0.00  0.00    +0.000 A 
BRANCH  34  37
ATOM     37  O   UNL     1       3.911   0.797  18.032  0.00  0.00    +0.000 OA
ATOM     38  H   UNL     1       3.562   0.841  17.126  0.00  0.00    +0.000 HD
ENDBRANCH  34  37
BRANCH  36  39
ATOM     39  O   UNL     1       0.456   3.135  20.306  0.00  0.00    +0.000 OA
ATOM     40  H   UNL     1       0.427   3.653  21.128  0.00  0.00    +0.000 HD
ENDBRANCH  36  39
ENDBRANCH  30  31
ENDBRANCH  27  29
ENDBRANCH  24  25
ENDBRANCH  23  24
ENDBRANCH  22  23
ENDBRANCH  10  22
TORSDOF 10
ENDMDL
MODEL 6
REMARK VINA RESULT:      -7.3      1.464      2.094
REMARK  Name = 
REMARK  12 active torsions:
REMARK  status: ('A' for Active; 'I' for Inactive)
REMARK    1  A    between atoms: C_1  and  N_2
REMARK    2  A    between atoms: N_9  and  C_10
REMARK    3  A    between atoms: C_10  and  C_11
REMARK    4  A    between atoms: N_16  and  C_17
REMARK    5  A    between atoms: C_17  and  C_18
REMARK    6  A    between atoms: C_18  and  C_19
REMARK    7  A    between atoms: C_19  and  C_20
REMARK    8  A    between atoms: N_22  and  N_23
REMARK    9  A    between atoms: C_24  and  C_25
REMARK   10  A    between atoms: C_28  and  O_29
REMARK   11  A    between atoms: C_31  and  O_32
REMARK   12  A    between atoms: N_33  and  C_34
REMARK                            x       y       z     vdW  Elec       q    Type
REMARK                         _______ _______ _______ _____ _____    ______ ____
ROOT
ATOM      1  C   UNL     1      -1.998   9.712  16.636  0.00  0.00    +0.000 C 
ATOM      2  N   UNL     1      -2.657  10.673  17.496  0.00  0.00    +0.000 N 
ATOM      3  C   UNL     1      -2.017  11.063  18.682  0.00  0.00    +0.000 A 
ATOM      4  O   UNL     1      -0.923  10.637  19.045  0.00  0.00    +0.000 OA
ATOM      5  C   UNL     1      -2.775  12.001  19.440  0.00  0.00    +0.000 A 
ATOM      6  C   UNL     1      -4.001  12.441  19.038  0.00  0.00    +0.000 A 
ATOM      7  N   UNL     1      -4.562  13.277  19.938  0.00  0.00    +0.000 NA
ATOM      8  C   UNL     1      -3.687  13.372  20.914  0.00  0.00    +0.000 A 
ATOM      9  N   UNL     1      -3.881  14.017  22.080  0.00  0.00    +0.000 N 
ATOM     10  N   UNL     1      -2.547  12.636  20.640  0.00  0.00    +0.000 N 
ATOM     11  N   UNL     1      -4.583  12.037  17.863  0.00  0.00    +0.000 N 
ATOM     12  C   UNL     1      -5.884  12.523  17.448  0.00  0.00    +0.000 C 
ATOM     13  C   UNL     1      -3.916  11.125  17.053  0.00  0.00    +0.000 A 
ATOM     14  O   UNL     1      -4.407  10.725  15.993  0.00  0.00    +0.000 OA
ATOM     15  H   UNL     1      -3.139  14.577  22.489  0.00  0.00    +0.000 HD
ENDROOT
BRANCH   9  16
ATOM     16  C   UNL     1      -5.228  14.520  22.340  0.00  0.00    +0.000 C 
BRANCH  16  17
ATOM     17  C   UNL     1      -6.208  13.469  22.730  0.00  0.00    +0.000 A 
ATOM     18  C   UNL     1      -7.330  12.949  22.116  0.00  0.00    +0.000 A 
ATOM     19  C   UNL     1      -7.882  12.014  23.024  0.00  0.00    +0.000 A 
ATOM     20  C   UNL     1      -7.064  12.023  24.129  0.00  0.00    +0.000 A 
ATOM     21  O   UNL     1      -6.043  12.901  23.960  0.00  0.00    +0.000 OA
ENDBRANCH  16  17
ENDBRANCH   9  16
BRANCH  10  22
ATOM     22  C   UNL     1      -1.349  12.547  21.463  0.00  0.00    +0.000 C 
BRANCH  22  23
ATOM     23  C   UNL     1      -1.319  11.329  22.397  0.00  0.00    +0.000 C 
BRANCH  23  24
ATOM     24  C   UNL     1       0.067  10.658  22.465  0.00  0.00    +0.000 C 
BRANCH  24  25
ATOM     25  C   UNL     1       0.016   9.186  22.098  0.00  0.00    +0.000 C 
ATOM     26  O   UNL     1      -0.894   8.459  22.506  0.00  0.00    +0.000 OA
ATOM     27  N   UNL     1       1.053   8.757  21.278  0.00  0.00    +0.000 N 
ATOM     28  H   UNL     1       1.777   9.386  20.953  0.00  0.00    +0.000 HD
BRANCH  27  29
ATOM     29  N   UNL     1       1.097   7.438  20.945  0.00  0.00    +0.000 NA
ATOM     30  C   UNL     1       2.020   7.034  20.126  0.00  0.00    +0.000 C 
BRANCH  30  31
ATOM     31  C   UNL     1       2.090   5.599  19.742  0.00  0.00    +0.000 A 
ATOM     32  C   UNL     1       1.390   4.650  20.504  0.00  0.00    +0.000 A 
ATOM     33  C   UNL     1       1.424   3.296  20.159  0.00  0.00    +0.000 A 
ATOM     34  C   UNL     1       2.165   2.896  19.054  0.00  0.00    +0.000 A 
ATOM     35  C   UNL     1       2.875   3.820  18.292  0.00  0.00    +0.000 A 
ATOM     36  C   UNL     1       2.835   5.175  18.636  0.00  0.00    +0.000 A 
BRANCH  34  37
ATOM     37  O   UNL     1       2.220   1.585  18.677  0.00  0.00    +0.000 OA
ATOM     38  H   UNL     1       2.741   1.092  19.332  0.00  0.00    +0.000 HD
ENDBRANCH  34  37
BRANCH  36  39
ATOM     39  O   UNL     1       3.528   6.083  17.883  0.00  0.00    +0.000 OA
ATOM     40  H   UNL     1       2.954   6.850  17.716  0.00  0.00    +0.000 HD
ENDBRANCH  36  39
ENDBRANCH  30  31
ENDBRANCH  27  29
ENDBRANCH  24  25
ENDBRANCH  23  24
ENDBRANCH  22  23
ENDBRANCH  10  22
TORSDOF 10
ENDMDL
MODEL 7
REMARK VINA RESULT:      -7.3      1.293      1.436
REMARK  Name = 
REMARK  12 active torsions:
REMARK  status: ('A' for Active; 'I' for Inactive)
REMARK    1  A    between atoms: C_1  and  N_2
REMARK    2  A    between atoms: N_9  and  C_10
REMARK    3  A    between atoms: C_10  and  C_11
REMARK    4  A    between atoms: N_16  and  C_17
REMARK    5  A    between atoms: C_17  and  C_18
REMARK    6  A    between atoms: C_18  and  C_19
REMARK    7  A    between atoms: C_19  and  C_20
REMARK    8  A    between atoms: N_22  and  N_23
REMARK    9  A    between atoms: C_24  and  C_25
REMARK   10  A    between atoms: C_28  and  O_29
REMARK   11  A    between atoms: C_31  and  O_32
REMARK   12  A    between atoms: N_33  and  C_34
REMARK                            x       y       z     vdW  Elec       q    Type
REMARK                         _______ _______ _______ _____ _____    ______ ____
ROOT
ATOM      1  C   UNL     1      -2.545  11.008  16.339  0.00  0.00    +0.000 C 
ATOM      2  N   UNL     1      -3.146  11.502  17.560  0.00  0.00    +0.000 N 
ATOM      3  C   UNL     1      -2.322  11.714  18.676  0.00  0.00    +0.000 A 
ATOM      4  O   UNL     1      -1.112  11.504  18.687  0.00  0.00    +0.000 OA
ATOM      5  C   UNL     1      -3.037  12.189  19.813  0.00  0.00    +0.000 A 
ATOM      6  C   UNL     1      -4.386  12.389  19.793  0.00  0.00    +0.000 A 
ATOM      7  N   UNL     1      -4.859  12.782  20.996  0.00  0.00    +0.000 NA
ATOM      8  C   UNL     1      -3.807  12.835  21.781  0.00  0.00    +0.000 A 
ATOM      9  N   UNL     1      -3.830  13.074  23.106  0.00  0.00    +0.000 N 
ATOM     10  N   UNL     1      -2.649  12.518  21.092  0.00  0.00    +0.000 N 
ATOM     11  N   UNL     1      -5.149  12.176  18.673  0.00  0.00    +0.000 N 
ATOM     12  C   UNL     1      -6.581  12.404  18.670  0.00  0.00    +0.000 C 
ATOM     13  C   UNL     1      -4.537  11.716  17.512  0.00  0.00    +0.000 A 
ATOM     14  O   UNL     1      -5.187  11.501  16.484  0.00  0.00    +0.000 OA
ATOM     15  H   UNL     1      -3.132  13.677  23.533  0.00  0.00    +0.000 HD
ENDROOT
BRANCH   9  16
ATOM     16  C   UNL     1      -5.143  13.126  23.745  0.00  0.00    +0.000 C 
BRANCH  16  17
ATOM     17  C   UNL     1      -5.785  14.469  23.710  0.00  0.00    +0.000 A 
ATOM     18  C   UNL     1      -5.319  15.746  23.956  0.00  0.00    +0.000 A 
ATOM     19  C   UNL     1      -6.433  16.608  23.824  0.00  0.00    +0.000 A 
ATOM     20  C   UNL     1      -7.504  15.806  23.507  0.00  0.00    +0.000 A 
ATOM     21  O   UNL     1      -7.120  14.506  23.432  0.00  0.00    +0.000 OA
ENDBRANCH  16  17
ENDBRANCH   9  16
BRANCH  10  22
ATOM     22  C   UNL     1      -1.292  12.525  21.620  0.00  0.00    +0.000 C 
BRANCH  22  23
ATOM     23  C   UNL     1      -0.703  11.127  21.852  0.00  0.00    +0.000 C 
BRANCH  23  24
ATOM     24  C   UNL     1       0.710  10.964  21.260  0.00  0.00    +0.000 C 
BRANCH  24  25
ATOM     25  C   UNL     1       1.275   9.572  21.485  0.00  0.00    +0.000 C 
ATOM     26  O   UNL     1       1.686   9.223  22.595  0.00  0.00    +0.000 OA
ATOM     27  N   UNL     1       1.273   8.757  20.359  0.00  0.00    +0.000 N 
ATOM     28  H   UNL     1       0.917   9.075  19.466  0.00  0.00    +0.000 HD
BRANCH  27  29
ATOM     29  N   UNL     1       1.807   7.511  20.475  0.00  0.00    +0.000 NA
ATOM     30  C   UNL     1       2.493   7.033  19.482  0.00  0.00    +0.000 C 
BRANCH  30  31
ATOM     31  C   UNL     1       3.086   5.673  19.579  0.00  0.00    +0.000 A 
ATOM     32  C   UNL     1       4.384   5.453  19.091  0.00  0.00    +0.000 A 
ATOM     33  C   UNL     1       4.974   4.189  19.182  0.00  0.00    +0.000 A 
ATOM     34  C   UNL     1       4.259   3.147  19.758  0.00  0.00    +0.000 A 
ATOM     35  C   UNL     1       2.967   3.342  20.238  0.00  0.00    +0.000 A 
ATOM     36  C   UNL     1       2.380   4.608  20.150  0.00  0.00    +0.000 A 
BRANCH  34  37
ATOM     37  O   UNL     1       4.799   1.899  19.874  0.00  0.00    +0.000 OA
ATOM     38  H   UNL     1       4.226   1.265  19.414  0.00  0.00    +0.000 HD
ENDBRANCH  34  37
BRANCH  36  39
ATOM     39  O   UNL     1       1.113   4.799  20.629  0.00  0.00    +0.000 OA
ATOM     40  H   UNL     1       0.492   4.306  20.066  0.00  0.00    +0.000 HD
ENDBRANCH  36  39
ENDBRANCH  30  31
ENDBRANCH  27  29
ENDBRANCH  24  25
ENDBRANCH  23  24
ENDBRANCH  22  23
ENDBRANCH  10  22
TORSDOF 10
ENDMDL
MODEL 8
REMARK VINA RESULT:      -7.2      3.005      3.956
REMARK  Name = 
REMARK  12 active torsions:
REMARK  status: ('A' for Active; 'I' for Inactive)
REMARK    1  A    between atoms: C_1  and  N_2
REMARK    2  A    between atoms: N_9  and  C_10
REMARK    3  A    between atoms: C_10  and  C_11
REMARK    4  A    between atoms: N_16  and  C_17
REMARK    5  A    between atoms: C_17  and  C_18
REMARK    6  A    between atoms: C_18  and  C_19
REMARK    7  A    between atoms: C_19  and  C_20
REMARK    8  A    between atoms: N_22  and  N_23
REMARK    9  A    between atoms: C_24  and  C_25
REMARK   10  A    between atoms: C_28  and  O_29
REMARK   11  A    between atoms: C_31  and  O_32
REMARK   12  A    between atoms: N_33  and  C_34
REMARK                            x       y       z     vdW  Elec       q    Type
REMARK                         _______ _______ _______ _____ _____    ______ ____
ROOT
ATOM      1  C   UNL     1       3.395  15.200  17.976  0.00  0.00    +0.000 C 
ATOM      2  N   UNL     1       2.087  15.031  18.574  0.00  0.00    +0.000 N 
ATOM      3  C   UNL     1       1.492  13.761  18.542  0.00  0.00    +0.000 A 
ATOM      4  O   UNL     1       2.011  12.772  18.030  0.00  0.00    +0.000 OA
ATOM      5  C   UNL     1       0.206  13.734  19.152  0.00  0.00    +0.000 A 
ATOM      6  C   UNL     1      -0.370  14.848  19.689  0.00  0.00    +0.000 A 
ATOM      7  N   UNL     1      -1.612  14.603  20.158  0.00  0.00    +0.000 NA
ATOM      8  C   UNL     1      -1.826  13.328  19.922  0.00  0.00    +0.000 A 
ATOM      9  N   UNL     1      -2.987  12.678  20.125  0.00  0.00    +0.000 N 
ATOM     10  N   UNL     1      -0.720  12.732  19.340  0.00  0.00    +0.000 N 
ATOM     11  N   UNL     1       0.257  16.068  19.706  0.00  0.00    +0.000 N 
ATOM     12  C   UNL     1      -0.368  17.240  20.289  0.00  0.00    +0.000 C 
ATOM     13  C   UNL     1       1.519  16.192  19.136  0.00  0.00    +0.000 A 
ATOM     14  O   UNL     1       2.115  17.273  19.118  0.00  0.00    +0.000 OA
ATOM     15  H   UNL     1      -2.992  11.742  20.519  0.00  0.00    +0.000 HD
ENDROOT
BRANCH   9  16
ATOM     16  C   UNL     1      -4.144  13.492  20.492  0.00  0.00    +0.000 C 
BRANCH  16  17
ATOM     17  C   UNL     1      -4.405  13.556  21.957  0.00  0.00    +0.000 A 
ATOM     18  C   UNL     1      -4.767  14.582  22.808  0.00  0.00    +0.000 A 
ATOM     19  C   UNL     1      -4.796  14.027  24.109  0.00  0.00    +0.000 A 
ATOM     20  C   UNL     1      -4.452  12.703  23.970  0.00  0.00    +0.000 A 
ATOM     21  O   UNL     1      -4.215  12.406  22.666  0.00  0.00    +0.000 OA
ENDBRANCH  16  17
ENDBRANCH   9  16
BRANCH  10  22
ATOM     22  C   UNL     1      -0.572  11.327  18.988  0.00  0.00    +0.000 C 
BRANCH  22  23
ATOM     23  C   UNL     1      -0.509  10.382  20.196  0.00  0.00    +0.000 C 
BRANCH  23  24
ATOM     24  C   UNL     1       0.933  10.067  20.638  0.00  0.00    +0.000 C 
BRANCH  24  25
ATOM     25  C   UNL     1       1.225   8.577  20.640  0.00  0.00    +0.000 C 
ATOM     26  O   UNL     1       0.673   7.821  21.444  0.00  0.00    +0.000 OA
ATOM     27  N   UNL     1       2.135   8.163  19.673  0.00  0.00    +0.000 N 
ATOM     28  H   UNL     1       2.559   8.812  19.022  0.00  0.00    +0.000 HD
BRANCH  27  29
ATOM     29  N   UNL     1       2.479   6.847  19.646  0.00  0.00    +0.000 NA
ATOM     30  C   UNL     1       2.491   6.231  18.503  0.00  0.00    +0.000 C 
BRANCH  30  31
ATOM     31  C   UNL     1       2.860   4.791  18.443  0.00  0.00    +0.000 A 
ATOM     32  C   UNL     1       1.979   3.882  17.835  0.00  0.00    +0.000 A 
ATOM     33  C   UNL     1       2.305   2.526  17.750  0.00  0.00    +0.000 A 
ATOM     34  C   UNL     1       3.511   2.083  18.279  0.00  0.00    +0.000 A 
ATOM     35  C   UNL     1       4.393   2.967  18.895  0.00  0.00    +0.000 A 
ATOM     36  C   UNL     1       4.067   4.325  18.975  0.00  0.00    +0.000 A 
BRANCH  34  37
ATOM     37  O   UNL     1       3.872   0.769  18.210  0.00  0.00    +0.000 OA
ATOM     38  H   UNL     1       4.139   0.564  17.299  0.00  0.00    +0.000 HD
ENDBRANCH  34  37
BRANCH  36  39
ATOM     39  O   UNL     1       4.937   5.193  19.575  0.00  0.00    +0.000 OA
ATOM     40  H   UNL     1       4.427   5.817  20.118  0.00  0.00    +0.000 HD
ENDBRANCH  36  39
ENDBRANCH  30  31
ENDBRANCH  27  29
ENDBRANCH  24  25
ENDBRANCH  23  24
ENDBRANCH  22  23
ENDBRANCH  10  22
TORSDOF 10
ENDMDL
MODEL 9
REMARK VINA RESULT:      -7.2      2.926      6.178
REMARK  Name = 
REMARK  12 active torsions:
REMARK  status: ('A' for Active; 'I' for Inactive)
REMARK    1  A    between atoms: C_1  and  N_2
REMARK    2  A    between atoms: N_9  and  C_10
REMARK    3  A    between atoms: C_10  and  C_11
REMARK    4  A    between atoms: N_16  and  C_17
REMARK    5  A    between atoms: C_17  and  C_18
REMARK    6  A    between atoms: C_18  and  C_19
REMARK    7  A    between atoms: C_19  and  C_20
REMARK    8  A    between atoms: N_22  and  N_23
REMARK    9  A    between atoms: C_24  and  C_25
REMARK   10  A    between atoms: C_28  and  O_29
REMARK   11  A    between atoms: C_31  and  O_32
REMARK   12  A    between atoms: N_33  and  C_34
REMARK                            x       y       z     vdW  Elec       q    Type
REMARK                         _______ _______ _______ _____ _____    ______ ____
ROOT
ATOM      1  C   UNL     1      -2.515  14.177  23.429  0.00  0.00    +0.000 C 
ATOM      2  N   UNL     1      -2.915  13.511  22.206  0.00  0.00    +0.000 N 
ATOM      3  C   UNL     1      -1.941  13.262  21.227  0.00  0.00    +0.000 A 
ATOM      4  O   UNL     1      -0.759  13.578  21.337  0.00  0.00    +0.000 OA
ATOM      5  C   UNL     1      -2.467  12.614  20.073  0.00  0.00    +0.000 A 
ATOM      6  C   UNL     1      -3.788  12.297  19.954  0.00  0.00    +0.000 A 
ATOM      7  N   UNL     1      -4.072  11.744  18.755  0.00  0.00    +0.000 NA
ATOM      8  C   UNL     1      -2.926  11.707  18.111  0.00  0.00    +0.000 A 
ATOM      9  N   UNL     1      -2.762  11.335  16.828  0.00  0.00    +0.000 N 
ATOM     10  N   UNL     1      -1.894  12.193  18.894  0.00  0.00    +0.000 N 
ATOM     11  N   UNL     1      -4.701  12.552  20.945  0.00  0.00    +0.000 N 
ATOM     12  C   UNL     1      -6.101  12.199  20.802  0.00  0.00    +0.000 C 
ATOM     13  C   UNL     1      -4.281  13.179  22.112  0.00  0.00    +0.000 A 
ATOM     14  O   UNL     1      -5.071  13.438  23.025  0.00  0.00    +0.000 OA
ATOM     15  H   UNL     1      -1.971  10.757  16.556  0.00  0.00    +0.000 HD
ENDROOT
BRANCH   9  16
ATOM     16  C   UNL     1      -3.974  11.101  16.047  0.00  0.00    +0.000 C 
BRANCH  16  17
ATOM     17  C   UNL     1      -3.729  10.512  14.701  0.00  0.00    +0.000 A 
ATOM     18  C   UNL     1      -4.541  10.288  13.606  0.00  0.00    +0.000 A 
ATOM     19  C   UNL     1      -3.737   9.631  12.644  0.00  0.00    +0.000 A 
ATOM     20  C   UNL     1      -2.492   9.497  13.211  0.00  0.00    +0.000 A 
ATOM     21  O   UNL     1      -2.476  10.032  14.459  0.00  0.00    +0.000 OA
ENDBRANCH  16  17
ENDBRANCH   9  16
BRANCH  10  22
ATOM     22  C   UNL     1      -0.484  12.255  18.535  0.00  0.00    +0.000 C 
BRANCH  22  23
ATOM     23  C   UNL     1       0.393  11.226  19.261  0.00  0.00    +0.000 C 
BRANCH  23  24
ATOM     24  C   UNL     1       0.186   9.789  18.745  0.00  0.00    +0.000 C 
BRANCH  24  25
ATOM     25  C   UNL     1       1.413   8.918  18.947  0.00  0.00    +0.000 C 
ATOM     26  O   UNL     1       1.597   8.313  20.006  0.00  0.00    +0.000 OA
ATOM     27  N   UNL     1       2.272   8.865  17.855  0.00  0.00    +0.000 N 
ATOM     28  H   UNL     1       2.083   9.367  16.997  0.00  0.00    +0.000 HD
BRANCH  27  29
ATOM     29  N   UNL     1       3.417   8.139  17.981  0.00  0.00    +0.000 NA
ATOM     30  C   UNL     1       3.546   7.056  17.278  0.00  0.00    +0.000 C 
BRANCH  30  31
ATOM     31  C   UNL     1       4.785   6.241  17.398  0.00  0.00    +0.000 A 
ATOM     32  C   UNL     1       5.646   6.134  16.294  0.00  0.00    +0.000 A 
ATOM     33  C   UNL     1       6.825   5.389  16.381  0.00  0.00    +0.000 A 
ATOM     34  C   UNL     1       7.136   4.747  17.573  0.00  0.00    +0.000 A 
ATOM     35  C   UNL     1       6.290   4.832  18.676  0.00  0.00    +0.000 A 
ATOM     36  C   UNL     1       5.113   5.583  18.588  0.00  0.00    +0.000 A 
BRANCH  34  37
ATOM     37  O   UNL     1       8.280   4.015  17.703  0.00  0.00    +0.000 OA
ATOM     38  H   UNL     1       8.454   3.553  16.867  0.00  0.00    +0.000 HD
ENDBRANCH  34  37
BRANCH  36  39
ATOM     39  O   UNL     1       4.287   5.670  19.676  0.00  0.00    +0.000 OA
ATOM     40  H   UNL     1       4.243   4.797  20.102  0.00  0.00    +0.000 HD
ENDBRANCH  36  39
ENDBRANCH  30  31
ENDBRANCH  27  29
ENDBRANCH  24  25
ENDBRANCH  23  24
ENDBRANCH  22  23
ENDBRANCH  10  22
TORSDOF 10
ENDMDL
