MODEL 1
REMARK VINA RESULT:      -6.2      0.000      0.000
REMARK  Name = 
REMARK  1 active torsions:
REMARK  status: ('A' for Active; 'I' for Inactive)
REMARK    1  A    between atoms: C_22  and  N_23
REMARK                            x       y       z     vdW  Elec       q    Type
REMARK                         _______ _______ _______ _____ _____    ______ ____
ROOT
ATOM      1 CL   UNL     1      -6.984  12.607  20.612  0.00  0.00    +0.000 Cl
ATOM      2  C   UNL     1      -5.293  12.769  20.898  0.00  0.00    +0.000 A 
ATOM      3  N   UNL     1      -4.596  12.301  19.846  0.00  0.00    +0.000 NA
ATOM      4  C   UNL     1      -3.246  12.446  19.870  0.00  0.00    +0.000 A 
ATOM      5  C   UNL     1      -2.392  12.038  18.842  0.00  0.00    +0.000 A 
ATOM      6  N   UNL     1      -2.856  11.432  17.686  0.00  0.00    +0.000 N 
ATOM      7  C   UNL     1      -1.961  11.018  16.622  0.00  0.00    +0.000 C 
ATOM      8  C   UNL     1      -2.923  10.812  15.457  0.00  0.00    +0.000 C 
ATOM      9  C   UNL     1      -4.166  10.234  16.119  0.00  0.00    +0.000 C 
ATOM     10  C   UNL     1      -4.181  10.846  17.522  0.00  0.00    +0.000 C 
ATOM     11  N   UNL     1      -1.061  12.261  18.904  0.00  0.00    +0.000 NA
ATOM     12  C   UNL     1      -0.544  12.873  19.974  0.00  0.00    +0.000 A 
ATOM     13  N   UNL     1       0.795  13.155  19.993  0.00  0.00    +0.000 N 
ATOM     14  C   UNL     1       1.679  12.809  18.883  0.00  0.00    +0.000 C 
ATOM     15  C   UNL     1       2.585  14.020  18.551  0.00  0.00    +0.000 C 
ATOM     16  N   UNL     1       3.317  14.556  19.717  0.00  0.00    +0.000 NA
ATOM     17  C   UNL     1       2.362  14.862  20.803  0.00  0.00    +0.000 C 
ATOM     18  C   UNL     1       1.455  13.671  21.188  0.00  0.00    +0.000 C 
ATOM     19  N   UNL     1      -1.299  13.255  21.004  0.00  0.00    +0.000 NA
ATOM     20  C   UNL     1      -2.610  13.059  20.954  0.00  0.00    +0.000 A 
ATOM     21  N   UNL     1      -3.341  13.488  22.003  0.00  0.00    +0.000 NA
ATOM     22  C   UNL     1      -4.695  13.346  22.025  0.00  0.00    +0.000 A 
ATOM     23  H   UNL     1       3.787  15.418  19.443  0.00  0.00    +0.000 HD
ENDROOT
BRANCH  22  24
ATOM     24  N   UNL     1      -5.383  13.805  23.145  0.00  0.00    +0.000 N 
ATOM     25  C   UNL     1      -6.016  12.840  24.051  0.00  0.00    +0.000 C 
ATOM     26  C   UNL     1      -7.453  13.336  24.183  0.00  0.00    +0.000 C 
ATOM     27  C   UNL     1      -7.306  14.841  24.088  0.00  0.00    +0.000 C 
ATOM     28  C   UNL     1      -6.197  15.023  23.058  0.00  0.00    +0.000 C 
ENDBRANCH  22  24
TORSDOF 1
ENDMDL
MODEL 2
REMARK VINA RESULT:      -6.2      7.745      9.459
REMARK  Name = 
REMARK  1 active torsions:
REMARK  status: ('A' for Active; 'I' for Inactive)
REMARK    1  A    between atoms: C_22  and  N_23
REMARK                            x       y       z     vdW  Elec       q    Type
REMARK                         _______ _______ _______ _____ _____    ______ ____
ROOT
ATOM      1 CL   UNL     1      -0.264   8.241  21.349  0.00  0.00    +0.000 Cl
ATOM      2  C   UNL     1       1.037   8.026  20.241  0.00  0.00    +0.000 A 
ATOM      3  N   UNL     1       1.543   6.784  20.352  0.00  0.00    +0.000 NA
ATOM      4  C   UNL     1       2.515   6.418  19.477  0.00  0.00    +0.000 A 
ATOM      5  C   UNL     1       3.115   5.157  19.447  0.00  0.00    +0.000 A 
ATOM      6  N   UNL     1       2.768   4.148  20.331  0.00  0.00    +0.000 N 
ATOM      7  C   UNL     1       3.393   2.839  20.289  0.00  0.00    +0.000 C 
ATOM      8  C   UNL     1       2.431   1.999  21.122  0.00  0.00    +0.000 C 
ATOM      9  C   UNL     1       1.981   2.954  22.219  0.00  0.00    +0.000 C 
ATOM     10  C   UNL     1       2.024   4.340  21.571  0.00  0.00    +0.000 C 
ATOM     11  N   UNL     1       4.038   4.839  18.515  0.00  0.00    +0.000 NA
ATOM     12  C   UNL     1       4.398   5.751  17.606  0.00  0.00    +0.000 A 
ATOM     13  N   UNL     1       5.283   5.394  16.625  0.00  0.00    +0.000 N 
ATOM     14  C   UNL     1       5.848   4.050  16.537  0.00  0.00    +0.000 C 
ATOM     15  C   UNL     1       5.772   3.556  15.072  0.00  0.00    +0.000 C 
ATOM     16  N   UNL     1       6.370   4.490  14.095  0.00  0.00    +0.000 NA
ATOM     17  C   UNL     1       5.765   5.829  14.258  0.00  0.00    +0.000 C 
ATOM     18  C   UNL     1       5.843   6.376  15.702  0.00  0.00    +0.000 C 
ATOM     19  N   UNL     1       3.890   6.984  17.601  0.00  0.00    +0.000 NA
ATOM     20  C   UNL     1       2.970   7.309  18.499  0.00  0.00    +0.000 A 
ATOM     21  N   UNL     1       2.460   8.555  18.439  0.00  0.00    +0.000 NA
ATOM     22  C   UNL     1       1.496   8.966  19.310  0.00  0.00    +0.000 A 
ATOM     23  H   UNL     1       6.171   4.154  13.153  0.00  0.00    +0.000 HD
ENDROOT
BRANCH  22  24
ATOM     24  N   UNL     1       1.022  10.270  19.194  0.00  0.00    +0.000 N 
ATOM     25  C   UNL     1       1.161  11.194  20.326  0.00  0.00    +0.000 C 
ATOM     26  C   UNL     1      -0.246  11.747  20.533  0.00  0.00    +0.000 C 
ATOM     27  C   UNL     1      -0.808  11.787  19.127  0.00  0.00    +0.000 C 
ATOM     28  C   UNL     1      -0.232  10.534  18.479  0.00  0.00    +0.000 C 
ENDBRANCH  22  24
TORSDOF 1
ENDMDL
MODEL 3
REMARK VINA RESULT:      -6.2      3.599      3.957
REMARK  Name = 
REMARK  1 active torsions:
REMARK  status: ('A' for Active; 'I' for Inactive)
REMARK    1  A    between atoms: C_22  and  N_23
REMARK                            x       y       z     vdW  Elec       q    Type
REMARK                         _______ _______ _______ _____ _____    ______ ____
ROOT
ATOM      1 CL   UNL     1      -4.439  12.294  24.614  0.00  0.00    +0.000 Cl
ATOM      2  C   UNL     1      -3.195  13.278  23.944  0.00  0.00    +0.000 A 
ATOM      3  N   UNL     1      -2.252  12.509  23.368  0.00  0.00    +0.000 NA
ATOM      4  C   UNL     1      -1.246  13.135  22.705  0.00  0.00    +0.000 A 
ATOM      5  C   UNL     1      -0.214  12.475  22.034  0.00  0.00    +0.000 A 
ATOM      6  N   UNL     1      -0.120  11.094  21.990  0.00  0.00    +0.000 N 
ATOM      7  C   UNL     1       0.953  10.417  21.285  0.00  0.00    +0.000 C 
ATOM      8  C   UNL     1       0.412   8.996  21.170  0.00  0.00    +0.000 C 
ATOM      9  C   UNL     1      -0.327   8.787  22.485  0.00  0.00    +0.000 C 
ATOM     10  C   UNL     1      -0.837  10.177  22.870  0.00  0.00    +0.000 C 
ATOM     11  N   UNL     1       0.727  13.157  21.346  0.00  0.00    +0.000 NA
ATOM     12  C   UNL     1       0.682  14.492  21.313  0.00  0.00    +0.000 A 
ATOM     13  N   UNL     1       1.599  15.168  20.556  0.00  0.00    +0.000 N 
ATOM     14  C   UNL     1       2.629  14.478  19.782  0.00  0.00    +0.000 C 
ATOM     15  C   UNL     1       2.694  15.085  18.359  0.00  0.00    +0.000 C 
ATOM     16  N   UNL     1       2.857  16.554  18.343  0.00  0.00    +0.000 NA
ATOM     17  C   UNL     1       1.796  17.178  19.161  0.00  0.00    +0.000 C 
ATOM     18  C   UNL     1       1.712  16.622  20.602  0.00  0.00    +0.000 C 
ATOM     19  N   UNL     1      -0.256  15.184  21.961  0.00  0.00    +0.000 NA
ATOM     20  C   UNL     1      -1.198  14.531  22.629  0.00  0.00    +0.000 A 
ATOM     21  N   UNL     1      -2.145  15.268  23.244  0.00  0.00    +0.000 NA
ATOM     22  C   UNL     1      -3.160  14.678  23.934  0.00  0.00    +0.000 A 
ATOM     23  H   UNL     1       2.767  16.885  17.383  0.00  0.00    +0.000 HD
ENDROOT
BRANCH  22  24
ATOM     24  N   UNL     1      -4.097  15.503  24.550  0.00  0.00    +0.000 N 
ATOM     25  C   UNL     1      -5.417  15.685  23.934  0.00  0.00    +0.000 C 
ATOM     26  C   UNL     1      -5.590  17.199  23.859  0.00  0.00    +0.000 C 
ATOM     27  C   UNL     1      -4.862  17.689  25.094  0.00  0.00    +0.000 C 
ATOM     28  C   UNL     1      -3.668  16.748  25.197  0.00  0.00    +0.000 C 
ENDBRANCH  22  24
TORSDOF 1
ENDMDL
MODEL 4
REMARK VINA RESULT:      -6.1      2.789      6.472
REMARK  Name = 
REMARK  1 active torsions:
REMARK  status: ('A' for Active; 'I' for Inactive)
REMARK    1  A    between atoms: C_22  and  N_23
REMARK                            x       y       z     vdW  Elec       q    Type
REMARK                         _______ _______ _______ _____ _____    ______ ____
ROOT
ATOM      1 CL   UNL     1      -1.767   9.540  17.492  0.00  0.00    +0.000 Cl
ATOM      2  C   UNL     1      -1.727  10.809  18.654  0.00  0.00    +0.000 A 
ATOM      3  N   UNL     1      -2.911  11.449  18.688  0.00  0.00    +0.000 NA
ATOM      4  C   UNL     1      -3.079  12.417  19.624  0.00  0.00    +0.000 A 
ATOM      5  C   UNL     1      -4.257  13.146  19.801  0.00  0.00    +0.000 A 
ATOM      6  N   UNL     1      -5.380  12.945  19.016  0.00  0.00    +0.000 N 
ATOM      7  C   UNL     1      -6.602  13.704  19.211  0.00  0.00    +0.000 C 
ATOM      8  C   UNL     1      -7.621  12.872  18.440  0.00  0.00    +0.000 C 
ATOM      9  C   UNL     1      -6.835  12.369  17.238  0.00  0.00    +0.000 C 
ATOM     10  C   UNL     1      -5.395  12.237  17.741  0.00  0.00    +0.000 C 
ATOM     11  N   UNL     1      -4.377  14.059  20.789  0.00  0.00    +0.000 NA
ATOM     12  C   UNL     1      -3.346  14.283  21.609  0.00  0.00    +0.000 A 
ATOM     13  N   UNL     1      -3.505  15.159  22.648  0.00  0.00    +0.000 N 
ATOM     14  C   UNL     1      -4.763  15.860  22.891  0.00  0.00    +0.000 C 
ATOM     15  C   UNL     1      -5.115  15.778  24.396  0.00  0.00    +0.000 C 
ATOM     16  N   UNL     1      -4.028  16.231  25.289  0.00  0.00    +0.000 NA
ATOM     17  C   UNL     1      -2.787  15.495  24.972  0.00  0.00    +0.000 C 
ATOM     18  C   UNL     1      -2.381  15.574  23.482  0.00  0.00    +0.000 C 
ATOM     19  N   UNL     1      -2.182  13.647  21.473  0.00  0.00    +0.000 NA
ATOM     20  C   UNL     1      -2.051  12.734  20.518  0.00  0.00    +0.000 A 
ATOM     21  N   UNL     1      -0.869  12.092  20.435  0.00  0.00    +0.000 NA
ATOM     22  C   UNL     1      -0.655  11.127  19.498  0.00  0.00    +0.000 A 
ATOM     23  H   UNL     1      -4.290  16.031  26.254  0.00  0.00    +0.000 HD
ENDROOT
BRANCH  22  24
ATOM     24  N   UNL     1       0.594  10.513  19.465  0.00  0.00    +0.000 N 
ATOM     25  C   UNL     1       1.445  10.667  18.279  0.00  0.00    +0.000 C 
ATOM     26  C   UNL     1       1.824   9.238  17.901  0.00  0.00    +0.000 C 
ATOM     27  C   UNL     1       1.902   8.538  19.242  0.00  0.00    +0.000 C 
ATOM     28  C   UNL     1       0.769   9.174  20.039  0.00  0.00    +0.000 C 
ENDBRANCH  22  24
TORSDOF 1
ENDMDL
MODEL 5
REMARK VINA RESULT:      -5.9      1.173      1.412
REMARK  Name = 
REMARK  1 active torsions:
REMARK  status: ('A' for Active; 'I' for Inactive)
REMARK    1  A    between atoms: C_22  and  N_23
REMARK                            x       y       z     vdW  Elec       q    Type
REMARK                         _______ _______ _______ _____ _____    ______ ____
ROOT
ATOM      1 CL   UNL     1      -7.846  12.825  19.046  0.00  0.00    +0.000 Cl
ATOM      2  C   UNL     1      -6.291  12.895  19.783  0.00  0.00    +0.000 A 
ATOM      3  N   UNL     1      -5.368  12.334  18.979  0.00  0.00    +0.000 NA
ATOM      4  C   UNL     1      -4.070  12.394  19.370  0.00  0.00    +0.000 A 
ATOM      5  C   UNL     1      -3.000  11.885  18.631  0.00  0.00    +0.000 A 
ATOM      6  N   UNL     1      -3.173  11.255  17.410  0.00  0.00    +0.000 N 
ATOM      7  C   UNL     1      -2.054  10.734  16.647  0.00  0.00    +0.000 C 
ATOM      8  C   UNL     1      -2.674  10.533  15.268  0.00  0.00    +0.000 C 
ATOM      9  C   UNL     1      -4.090  10.067  15.578  0.00  0.00    +0.000 C 
ATOM     10  C   UNL     1      -4.443  10.745  16.903  0.00  0.00    +0.000 C 
ATOM     11  N   UNL     1      -1.724  12.027  19.051  0.00  0.00    +0.000 NA
ATOM     12  C   UNL     1      -1.476  12.656  20.204  0.00  0.00    +0.000 A 
ATOM     13  N   UNL     1      -0.176  12.854  20.583  0.00  0.00    +0.000 N 
ATOM     14  C   UNL     1       0.950  12.401  19.771  0.00  0.00    +0.000 C 
ATOM     15  C   UNL     1       1.998  13.535  19.667  0.00  0.00    +0.000 C 
ATOM     16  N   UNL     1       2.421  14.080  20.974  0.00  0.00    +0.000 NA
ATOM     17  C   UNL     1       1.231  14.497  21.744  0.00  0.00    +0.000 C 
ATOM     18  C   UNL     1       0.168  13.385  21.899  0.00  0.00    +0.000 C 
ATOM     19  N   UNL     1      -2.454  13.134  20.974  0.00  0.00    +0.000 NA
ATOM     20  C   UNL     1      -3.712  13.019  20.570  0.00  0.00    +0.000 A 
ATOM     21  N   UNL     1      -4.667  13.543  21.363  0.00  0.00    +0.000 NA
ATOM     22  C   UNL     1      -5.983  13.487  21.015  0.00  0.00    +0.000 A 
ATOM     23  H   UNL     1       3.011  14.897  20.815  0.00  0.00    +0.000 HD
ENDROOT
BRANCH  22  24
ATOM     24  N   UNL     1      -6.915  14.042  21.887  0.00  0.00    +0.000 N 
ATOM     25  C   UNL     1      -6.671  15.374  22.453  0.00  0.00    +0.000 C 
ATOM     26  C   UNL     1      -6.843  15.179  23.957  0.00  0.00    +0.000 C 
ATOM     27  C   UNL     1      -7.916  14.113  24.044  0.00  0.00    +0.000 C 
ATOM     28  C   UNL     1      -7.596  13.193  22.871  0.00  0.00    +0.000 C 
ENDBRANCH  22  24
TORSDOF 1
ENDMDL
MODEL 6
REMARK VINA RESULT:      -5.9      4.750      7.227
REMARK  Name = 
REMARK  1 active torsions:
REMARK  status: ('A' for Active; 'I' for Inactive)
REMARK    1  A    between atoms: C_22  and  N_23
REMARK                            x       y       z     vdW  Elec       q    Type
REMARK                         _______ _______ _______ _____ _____    ______ ____
ROOT
ATOM      1 CL   UNL     1      -1.609  11.950  19.397  0.00  0.00    +0.000 Cl
ATOM      2  C   UNL     1       0.015  12.378  19.017  0.00  0.00    +0.000 A 
ATOM      3  N   UNL     1       0.158  13.716  19.022  0.00  0.00    +0.000 NA
ATOM      4  C   UNL     1       1.405  14.219  18.837  0.00  0.00    +0.000 A 
ATOM      5  C   UNL     1       1.716  15.580  18.844  0.00  0.00    +0.000 A 
ATOM      6  N   UNL     1       0.756  16.560  19.040  0.00  0.00    +0.000 N 
ATOM      7  C   UNL     1       1.090  17.972  19.052  0.00  0.00    +0.000 C 
ATOM      8  C   UNL     1      -0.150  18.588  19.692  0.00  0.00    +0.000 C 
ATOM      9  C   UNL     1      -1.292  17.745  19.141  0.00  0.00    +0.000 C 
ATOM     10  C   UNL     1      -0.684  16.357  18.927  0.00  0.00    +0.000 C 
ATOM     11  N   UNL     1       2.988  16.012  18.709  0.00  0.00    +0.000 NA
ATOM     12  C   UNL     1       3.973  15.123  18.551  0.00  0.00    +0.000 A 
ATOM     13  N   UNL     1       5.264  15.570  18.485  0.00  0.00    +0.000 N 
ATOM     14  C   UNL     1       5.603  16.988  18.579  0.00  0.00    +0.000 C 
ATOM     15  C   UNL     1       6.790  17.168  19.558  0.00  0.00    +0.000 C 
ATOM     16  N   UNL     1       7.959  16.322  19.241  0.00  0.00    +0.000 NA
ATOM     17  C   UNL     1       7.536  14.910  19.141  0.00  0.00    +0.000 C 
ATOM     18  C   UNL     1       6.370  14.678  18.152  0.00  0.00    +0.000 C 
ATOM     19  N   UNL     1       3.740  13.811  18.499  0.00  0.00    +0.000 NA
ATOM     20  C   UNL     1       2.499  13.367  18.647  0.00  0.00    +0.000 A 
ATOM     21  N   UNL     1       2.312  12.033  18.619  0.00  0.00    +0.000 NA
ATOM     22  C   UNL     1       1.073  11.490  18.783  0.00  0.00    +0.000 A 
ATOM     23  H   UNL     1       8.641  16.407  19.995  0.00  0.00    +0.000 HD
ENDROOT
BRANCH  22  24
ATOM     24  N   UNL     1       0.954  10.104  18.735  0.00  0.00    +0.000 N 
ATOM     25  C   UNL     1       0.730   9.354  19.976  0.00  0.00    +0.000 C 
ATOM     26  C   UNL     1       1.812   8.278  19.964  0.00  0.00    +0.000 C 
ATOM     27  C   UNL     1       1.969   7.967  18.490  0.00  0.00    +0.000 C 
ATOM     28  C   UNL     1       1.799   9.326  17.822  0.00  0.00    +0.000 C 
ENDBRANCH  22  24
TORSDOF 1
ENDMDL
MODEL 7
REMARK VINA RESULT:      -5.9      4.005      7.230
REMARK  Name = 
REMARK  1 active torsions:
REMARK  status: ('A' for Active; 'I' for Inactive)
REMARK    1  A    between atoms: C_22  and  N_23
REMARK                            x       y       z     vdW  Elec       q    Type
REMARK                         _______ _______ _______ _____ _____    ______ ____
ROOT
ATOM      1 CL   UNL     1      -0.408   8.351  21.629  0.00  0.00    +0.000 Cl
ATOM      2  C   UNL     1       0.312   9.631  20.729  0.00  0.00    +0.000 A 
ATOM      3  N   UNL     1      -0.038  10.822  21.250  0.00  0.00    +0.000 NA
ATOM      4  C   UNL     1       0.526  11.935  20.715  0.00  0.00    +0.000 A 
ATOM      5  C   UNL     1       0.285  13.235  21.166  0.00  0.00    +0.000 A 
ATOM      6  N   UNL     1      -0.574  13.509  22.217  0.00  0.00    +0.000 N 
ATOM      7  C   UNL     1      -0.813  14.863  22.682  0.00  0.00    +0.000 C 
ATOM      8  C   UNL     1      -1.454  14.624  24.045  0.00  0.00    +0.000 C 
ATOM      9  C   UNL     1      -2.308  13.383  23.825  0.00  0.00    +0.000 C 
ATOM     10  C   UNL     1      -1.564  12.582  22.755  0.00  0.00    +0.000 C 
ATOM     11  N   UNL     1       0.922  14.295  20.625  0.00  0.00    +0.000 NA
ATOM     12  C   UNL     1       1.792  14.105  19.629  0.00  0.00    +0.000 A 
ATOM     13  N   UNL     1       2.482  15.180  19.138  0.00  0.00    +0.000 N 
ATOM     14  C   UNL     1       2.298  16.530  19.664  0.00  0.00    +0.000 C 
ATOM     15  C   UNL     1       3.682  17.186  19.891  0.00  0.00    +0.000 C 
ATOM     16  N   UNL     1       4.561  17.151  18.703  0.00  0.00    +0.000 NA
ATOM     17  C   UNL     1       4.682  15.761  18.217  0.00  0.00    +0.000 C 
ATOM     18  C   UNL     1       3.323  15.075  17.949  0.00  0.00    +0.000 C 
ATOM     19  N   UNL     1       2.041  12.894  19.129  0.00  0.00    +0.000 NA
ATOM     20  C   UNL     1       1.438  11.838  19.658  0.00  0.00    +0.000 A 
ATOM     21  N   UNL     1       1.741  10.629  19.144  0.00  0.00    +0.000 NA
ATOM     22  C   UNL     1       1.183   9.491  19.641  0.00  0.00    +0.000 A 
ATOM     23  H   UNL     1       5.487  17.487  18.969  0.00  0.00    +0.000 HD
ENDROOT
BRANCH  22  24
ATOM     24  N   UNL     1       1.537   8.279  19.055  0.00  0.00    +0.000 N 
ATOM     25  C   UNL     1       2.015   7.179  19.901  0.00  0.00    +0.000 C 
ATOM     26  C   UNL     1       3.328   6.751  19.252  0.00  0.00    +0.000 C 
ATOM     27  C   UNL     1       3.076   6.992  17.777  0.00  0.00    +0.000 C 
ATOM     28  C   UNL     1       2.237   8.264  17.765  0.00  0.00    +0.000 C 
ENDBRANCH  22  24
TORSDOF 1
ENDMDL
MODEL 8
REMARK VINA RESULT:      -5.9      2.348      6.909
REMARK  Name = 
REMARK  1 active torsions:
REMARK  status: ('A' for Active; 'I' for Inactive)
REMARK    1  A    between atoms: C_22  and  N_23
REMARK                            x       y       z     vdW  Elec       q    Type
REMARK                         _______ _______ _______ _____ _____    ______ ____
ROOT
ATOM      1 CL   UNL     1       2.582  12.539  18.144  0.00  0.00    +0.000 Cl
ATOM      2  C   UNL     1       1.307  13.244  19.062  0.00  0.00    +0.000 A 
ATOM      3  N   UNL     1       0.137  12.644  18.775  0.00  0.00    +0.000 NA
ATOM      4  C   UNL     1      -0.956  13.017  19.488  0.00  0.00    +0.000 A 
ATOM      5  C   UNL     1      -2.229  12.466  19.325  0.00  0.00    +0.000 A 
ATOM      6  N   UNL     1      -2.495  11.473  18.397  0.00  0.00    +0.000 N 
ATOM      7  C   UNL     1      -3.821  10.902  18.239  0.00  0.00    +0.000 C 
ATOM      8  C   UNL     1      -3.529   9.631  17.450  0.00  0.00    +0.000 C 
ATOM      9  C   UNL     1      -2.404  10.043  16.511  0.00  0.00    +0.000 C 
ATOM     10  C   UNL     1      -1.629  11.117  17.279  0.00  0.00    +0.000 C 
ATOM     11  N   UNL     1      -3.264  12.844  20.105  0.00  0.00    +0.000 NA
ATOM     12  C   UNL     1      -3.075  13.773  21.047  0.00  0.00    +0.000 A 
ATOM     13  N   UNL     1      -4.114  14.096  21.877  0.00  0.00    +0.000 N 
ATOM     14  C   UNL     1      -5.424  13.460  21.768  0.00  0.00    +0.000 C 
ATOM     15  C   UNL     1      -5.915  13.050  23.178  0.00  0.00    +0.000 C 
ATOM     16  N   UNL     1      -5.897  14.154  24.161  0.00  0.00    +0.000 NA
ATOM     17  C   UNL     1      -4.549  14.759  24.200  0.00  0.00    +0.000 C 
ATOM     18  C   UNL     1      -4.029  15.211  22.816  0.00  0.00    +0.000 C 
ATOM     19  N   UNL     1      -1.894  14.364  21.231  0.00  0.00    +0.000 NA
ATOM     20  C   UNL     1      -0.861  13.994  20.484  0.00  0.00    +0.000 A 
ATOM     21  N   UNL     1       0.322  14.594  20.724  0.00  0.00    +0.000 NA
ATOM     22  C   UNL     1       1.438  14.260  20.018  0.00  0.00    +0.000 A 
ATOM     23  H   UNL     1      -6.113  13.776  25.083  0.00  0.00    +0.000 HD
ENDROOT
BRANCH  22  24
ATOM     24  N   UNL     1       2.623  14.928  20.314  0.00  0.00    +0.000 N 
ATOM     25  C   UNL     1       3.223  15.816  19.311  0.00  0.00    +0.000 C 
ATOM     26  C   UNL     1       4.668  15.340  19.204  0.00  0.00    +0.000 C 
ATOM     27  C   UNL     1       4.983  14.881  20.613  0.00  0.00    +0.000 C 
ATOM     28  C   UNL     1       3.676  14.250  21.080  0.00  0.00    +0.000 C 
ENDBRANCH  22  24
TORSDOF 1
ENDMDL
MODEL 9
REMARK VINA RESULT:      -5.9      9.784     11.297
REMARK  Name = 
REMARK  1 active torsions:
REMARK  status: ('A' for Active; 'I' for Inactive)
REMARK    1  A    between atoms: C_22  and  N_23
REMARK                            x       y       z     vdW  Elec       q    Type
REMARK                         _______ _______ _______ _____ _____    ______ ____
ROOT
ATOM      1 CL   UNL     1       5.266  14.509  25.441  0.00  0.00    +0.000 Cl
ATOM      2  C   UNL     1       6.278  13.712  24.298  0.00  0.00    +0.000 A 
ATOM      3  N   UNL     1       6.276  14.378  23.128  0.00  0.00    +0.000 NA
ATOM      4  C   UNL     1       7.103  13.934  22.148  0.00  0.00    +0.000 A 
ATOM      5  C   UNL     1       7.234  14.536  20.894  0.00  0.00    +0.000 A 
ATOM      6  N   UNL     1       6.511  15.661  20.531  0.00  0.00    +0.000 N 
ATOM      7  C   UNL     1       6.657  16.283  19.228  0.00  0.00    +0.000 C 
ATOM      8  C   UNL     1       6.015  17.648  19.452  0.00  0.00    +0.000 C 
ATOM      9  C   UNL     1       4.853  17.346  20.388  0.00  0.00    +0.000 C 
ATOM     10  C   UNL     1       5.324  16.153  21.222  0.00  0.00    +0.000 C 
ATOM     11  N   UNL     1       8.116  14.077  19.982  0.00  0.00    +0.000 NA
ATOM     12  C   UNL     1       8.875  13.016  20.274  0.00  0.00    +0.000 A 
ATOM     13  N   UNL     1       9.813  12.603  19.368  0.00  0.00    +0.000 N 
ATOM     14  C   UNL     1      10.015  13.283  18.090  0.00  0.00    +0.000 C 
ATOM     15  C   UNL     1      11.530  13.497  17.855  0.00  0.00    +0.000 C 
ATOM     16  N   UNL     1      12.333  12.262  17.977  0.00  0.00    +0.000 NA
ATOM     17  C   UNL     1      12.062  11.622  19.281  0.00  0.00    +0.000 C 
ATOM     18  C   UNL     1      10.561  11.362  19.547  0.00  0.00    +0.000 C 
ATOM     19  N   UNL     1       8.775  12.374  21.438  0.00  0.00    +0.000 NA
ATOM     20  C   UNL     1       7.925  12.821  22.353  0.00  0.00    +0.000 A 
ATOM     21  N   UNL     1       7.877  12.161  23.528  0.00  0.00    +0.000 NA
ATOM     22  C   UNL     1       7.048  12.564  24.530  0.00  0.00    +0.000 A 
ATOM     23  H   UNL     1      13.322  12.507  17.932  0.00  0.00    +0.000 HD
ENDROOT
BRANCH  22  24
ATOM     24  N   UNL     1       7.046  11.830  25.713  0.00  0.00    +0.000 N 
ATOM     25  C   UNL     1       5.879  11.006  26.051  0.00  0.00    +0.000 C 
ATOM     26  C   UNL     1       5.515  11.435  27.470  0.00  0.00    +0.000 C 
ATOM     27  C   UNL     1       6.861  11.762  28.084  0.00  0.00    +0.000 C 
ATOM     28  C   UNL     1       7.630  12.400  26.933  0.00  0.00    +0.000 C 
ENDBRANCH  22  24
TORSDOF 1
ENDMDL
