MODEL 1
REMARK VINA RESULT:      -6.8      0.000      0.000
REMARK  Name = 
REMARK  7 active torsions:
REMARK  status: ('A' for Active; 'I' for Inactive)
REMARK    1  A    between atoms: C_1  and  C_2
REMARK    2  A    between atoms: C_2  and  C_3
REMARK    3  A    between atoms: C_2  and  C_4
REMARK    4  A    between atoms: C_8  and  C_9
REMARK    5  A    between atoms: C_15  and  C_16
REMARK    6  A    between atoms: C_16  and  C_17
REMARK    7  A    between atoms: C_17  and  O_19
REMARK                            x       y       z     vdW  Elec       q    Type
REMARK                         _______ _______ _______ _____ _____    ______ ____
ROOT
ATOM      1  C   UNL     1       5.397   4.951  19.142  0.00  0.00    +0.000 C 
ATOM      2  O   UNL     1       6.381   5.289  19.803  0.00  0.00    +0.000 OA
ATOM      3  N   UNL     1       5.499   4.787  17.758  0.00  0.00    +0.000 N 
ATOM      4  C   UNL     1       6.733   5.176  17.103  0.00  0.00    +0.000 C 
ATOM      5  C   UNL     1       6.297   5.330  15.661  0.00  0.00    +0.000 C 
ATOM      6  C   UNL     1       5.279   4.208  15.466  0.00  0.00    +0.000 C 
ATOM      7  C   UNL     1       4.814   3.806  16.885  0.00  0.00    +0.000 C 
ENDROOT
BRANCH   1  12
ATOM      8  C   UNL     1       2.977   5.595  19.927  0.00  0.00    +0.000 A 
ATOM      9  C   UNL     1       2.037   4.843  20.692  0.00  0.00    +0.000 A 
ATOM     10  C   UNL     1       2.569   3.589  20.856  0.00  0.00    +0.000 A 
ATOM     11  O   UNL     1       3.787   3.519  20.269  0.00  0.00    +0.000 OA
ATOM     12  C   UNL     1       4.088   4.760  19.762  0.00  0.00    +0.000 A 
BRANCH   8  14
ATOM     13  C   UNL     1       2.451   7.075  17.951  0.00  0.00    +0.000 C 
ATOM     14  C   UNL     1       2.767   7.002  19.444  0.00  0.00    +0.000 C 
ATOM     15  C   UNL     1       1.750   7.746  20.311  0.00  0.00    +0.000 C 
ENDBRANCH   8  14
ENDBRANCH   1  12
BRANCH   7  16
ATOM     16  C   UNL     1       3.301   3.692  17.000  0.00  0.00    +0.000 C 
BRANCH  16  17
ATOM     17  C   UNL     1       2.802   2.401  17.582  0.00  0.00    +0.000 C 
ATOM     18  O   UNL     1       1.632   2.096  17.750  0.00  0.00    +0.000 OA
BRANCH  17  19
ATOM     19  O   UNL     1       3.824   1.566  17.884  0.00  0.00    +0.000 OA
ATOM     20  H   UNL     1       3.806   0.731  17.377  0.00  0.00    +0.000 HD
ENDBRANCH  17  19
ENDBRANCH  16  17
ENDBRANCH   7  16
TORSDOF 5
ENDMDL
MODEL 2
REMARK VINA RESULT:      -6.7      2.019      4.999
REMARK  Name = 
REMARK  7 active torsions:
REMARK  status: ('A' for Active; 'I' for Inactive)
REMARK    1  A    between atoms: C_1  and  C_2
REMARK    2  A    between atoms: C_2  and  C_3
REMARK    3  A    between atoms: C_2  and  C_4
REMARK    4  A    between atoms: C_8  and  C_9
REMARK    5  A    between atoms: C_15  and  C_16
REMARK    6  A    between atoms: C_16  and  C_17
REMARK    7  A    between atoms: C_17  and  O_19
REMARK                            x       y       z     vdW  Elec       q    Type
REMARK                         _______ _______ _______ _____ _____    ______ ____
ROOT
ATOM      1  C   UNL     1       4.547   3.216  19.815  0.00  0.00    +0.000 C 
ATOM      2  O   UNL     1       4.956   2.117  20.193  0.00  0.00    +0.000 OA
ATOM      3  N   UNL     1       3.217   3.588  20.033  0.00  0.00    +0.000 N 
ATOM      4  C   UNL     1       2.299   2.597  20.563  0.00  0.00    +0.000 C 
ATOM      5  C   UNL     1       0.951   3.176  20.190  0.00  0.00    +0.000 C 
ATOM      6  C   UNL     1       1.137   4.681  20.371  0.00  0.00    +0.000 C 
ATOM      7  C   UNL     1       2.663   4.926  20.340  0.00  0.00    +0.000 C 
ENDROOT
BRANCH   1  12
ATOM      8  C   UNL     1       5.599   4.405  17.725  0.00  0.00    +0.000 A 
ATOM      9  C   UNL     1       6.645   5.373  17.659  0.00  0.00    +0.000 A 
ATOM     10  C   UNL     1       6.952   5.719  18.950  0.00  0.00    +0.000 A 
ATOM     11  O   UNL     1       6.187   5.012  19.816  0.00  0.00    +0.000 OA
ATOM     12  C   UNL     1       5.409   4.145  19.087  0.00  0.00    +0.000 A 
BRANCH   8  14
ATOM     13  C   UNL     1       3.378   3.855  16.661  0.00  0.00    +0.000 C 
ATOM     14  C   UNL     1       4.901   3.808  16.538  0.00  0.00    +0.000 C 
ATOM     15  C   UNL     1       5.416   4.402  15.227  0.00  0.00    +0.000 C 
ENDBRANCH   8  14
ENDBRANCH   1  12
BRANCH   7  16
ATOM     16  C   UNL     1       3.058   6.081  19.431  0.00  0.00    +0.000 C 
BRANCH  16  17
ATOM     17  C   UNL     1       2.305   7.359  19.661  0.00  0.00    +0.000 C 
ATOM     18  O   UNL     1       1.857   8.092  18.794  0.00  0.00    +0.000 OA
BRANCH  17  19
ATOM     19  O   UNL     1       2.141   7.606  20.981  0.00  0.00    +0.000 OA
ATOM     20  H   UNL     1       1.581   8.385  21.165  0.00  0.00    +0.000 HD
ENDBRANCH  17  19
ENDBRANCH  16  17
ENDBRANCH   7  16
TORSDOF 5
ENDMDL
MODEL 3
REMARK VINA RESULT:      -6.6      2.113      4.926
REMARK  Name = 
REMARK  7 active torsions:
REMARK  status: ('A' for Active; 'I' for Inactive)
REMARK    1  A    between atoms: C_1  and  C_2
REMARK    2  A    between atoms: C_2  and  C_3
REMARK    3  A    between atoms: C_2  and  C_4
REMARK    4  A    between atoms: C_8  and  C_9
REMARK    5  A    between atoms: C_15  and  C_16
REMARK    6  A    between atoms: C_16  and  C_17
REMARK    7  A    between atoms: C_17  and  O_19
REMARK                            x       y       z     vdW  Elec       q    Type
REMARK                         _______ _______ _______ _____ _____    ______ ____
ROOT
ATOM      1  C   UNL     1       4.529   3.568  19.207  0.00  0.00    +0.000 C 
ATOM      2  O   UNL     1       5.273   2.790  19.805  0.00  0.00    +0.000 OA
ATOM      3  N   UNL     1       3.278   3.897  19.737  0.00  0.00    +0.000 N 
ATOM      4  C   UNL     1       2.814   3.183  20.911  0.00  0.00    +0.000 C 
ATOM      5  C   UNL     1       1.321   3.429  20.868  0.00  0.00    +0.000 C 
ATOM      6  C   UNL     1       1.202   4.865  20.361  0.00  0.00    +0.000 C 
ATOM      7  C   UNL     1       2.550   5.185  19.673  0.00  0.00    +0.000 C 
ENDROOT
BRANCH   1  12
ATOM      8  C   UNL     1       5.746   5.177  17.529  0.00  0.00    +0.000 A 
ATOM      9  C   UNL     1       5.608   5.291  16.113  0.00  0.00    +0.000 A 
ATOM     10  C   UNL     1       4.787   4.270  15.709  0.00  0.00    +0.000 A 
ATOM     11  O   UNL     1       4.382   3.546  16.779  0.00  0.00    +0.000 OA
ATOM     12  C   UNL     1       4.896   4.133  17.910  0.00  0.00    +0.000 A 
BRANCH   8  14
ATOM     13  C   UNL     1       7.755   5.268  19.053  0.00  0.00    +0.000 C 
ATOM     14  C   UNL     1       6.624   6.047  18.381  0.00  0.00    +0.000 C 
ATOM     15  C   UNL     1       7.114   7.275  17.614  0.00  0.00    +0.000 C 
ENDBRANCH   8  14
ENDBRANCH   1  12
BRANCH   7  16
ATOM     16  C   UNL     1       2.378   5.834  18.308  0.00  0.00    +0.000 C 
BRANCH  16  17
ATOM     17  C   UNL     1       2.724   7.294  18.249  0.00  0.00    +0.000 C 
ATOM     18  O   UNL     1       3.462   7.822  17.433  0.00  0.00    +0.000 OA
BRANCH  17  19
ATOM     19  O   UNL     1       2.082   7.994  19.213  0.00  0.00    +0.000 OA
ATOM     20  H   UNL     1       2.447   7.851  20.107  0.00  0.00    +0.000 HD
ENDBRANCH  17  19
ENDBRANCH  16  17
ENDBRANCH   7  16
TORSDOF 5
ENDMDL
MODEL 4
REMARK VINA RESULT:      -6.6      1.911      4.388
REMARK  Name = 
REMARK  7 active torsions:
REMARK  status: ('A' for Active; 'I' for Inactive)
REMARK    1  A    between atoms: C_1  and  C_2
REMARK    2  A    between atoms: C_2  and  C_3
REMARK    3  A    between atoms: C_2  and  C_4
REMARK    4  A    between atoms: C_8  and  C_9
REMARK    5  A    between atoms: C_15  and  C_16
REMARK    6  A    between atoms: C_16  and  C_17
REMARK    7  A    between atoms: C_17  and  O_19
REMARK                            x       y       z     vdW  Elec       q    Type
REMARK                         _______ _______ _______ _____ _____    ______ ____
ROOT
ATOM      1  C   UNL     1       4.281   6.369  17.167  0.00  0.00    +0.000 C 
ATOM      2  O   UNL     1       4.147   7.510  16.724  0.00  0.00    +0.000 OA
ATOM      3  N   UNL     1       3.486   5.925  18.228  0.00  0.00    +0.000 N 
ATOM      4  C   UNL     1       2.623   6.881  18.894  0.00  0.00    +0.000 C 
ATOM      5  C   UNL     1       2.345   6.197  20.216  0.00  0.00    +0.000 C 
ATOM      6  C   UNL     1       2.237   4.720  19.847  0.00  0.00    +0.000 C 
ATOM      7  C   UNL     1       2.940   4.571  18.478  0.00  0.00    +0.000 C 
ENDROOT
BRANCH   1  12
ATOM      8  C   UNL     1       6.647   5.251  16.959  0.00  0.00    +0.000 A 
ATOM      9  C   UNL     1       7.114   4.275  16.029  0.00  0.00    +0.000 A 
ATOM     10  C   UNL     1       6.030   3.877  15.290  0.00  0.00    +0.000 A 
ATOM     11  O   UNL     1       4.926   4.558  15.677  0.00  0.00    +0.000 OA
ATOM     12  C   UNL     1       5.299   5.460  16.644  0.00  0.00    +0.000 A 
BRANCH   8  14
ATOM     13  C   UNL     1       7.674   7.400  17.793  0.00  0.00    +0.000 C 
ATOM     14  C   UNL     1       7.486   5.901  18.021  0.00  0.00    +0.000 C 
ATOM     15  C   UNL     1       6.974   5.566  19.423  0.00  0.00    +0.000 C 
ENDBRANCH   8  14
ENDBRANCH   1  12
BRANCH   7  16
ATOM     16  C   UNL     1       3.908   3.398  18.434  0.00  0.00    +0.000 C 
BRANCH  16  17
ATOM     17  C   UNL     1       3.307   2.093  17.999  0.00  0.00    +0.000 C 
ATOM     18  O   UNL     1       2.254   1.955  17.396  0.00  0.00    +0.000 OA
BRANCH  17  19
ATOM     19  O   UNL     1       4.100   1.047  18.330  0.00  0.00    +0.000 OA
ATOM     20  H   UNL     1       4.387   0.518  17.561  0.00  0.00    +0.000 HD
ENDBRANCH  17  19
ENDBRANCH  16  17
ENDBRANCH   7  16
TORSDOF 5
ENDMDL
MODEL 5
REMARK VINA RESULT:      -6.6      1.884      2.934
REMARK  Name = 
REMARK  7 active torsions:
REMARK  status: ('A' for Active; 'I' for Inactive)
REMARK    1  A    between atoms: C_1  and  C_2
REMARK    2  A    between atoms: C_2  and  C_3
REMARK    3  A    between atoms: C_2  and  C_4
REMARK    4  A    between atoms: C_8  and  C_9
REMARK    5  A    between atoms: C_15  and  C_16
REMARK    6  A    between atoms: C_16  and  C_17
REMARK    7  A    between atoms: C_17  and  O_19
REMARK                            x       y       z     vdW  Elec       q    Type
REMARK                         _______ _______ _______ _____ _____    ______ ____
ROOT
ATOM      1  C   UNL     1       5.264   4.455  19.091  0.00  0.00    +0.000 C 
ATOM      2  O   UNL     1       5.456   4.137  20.266  0.00  0.00    +0.000 OA
ATOM      3  N   UNL     1       6.197   5.243  18.411  0.00  0.00    +0.000 N 
ATOM      4  C   UNL     1       7.304   5.807  19.160  0.00  0.00    +0.000 C 
ATOM      5  C   UNL     1       7.760   6.936  18.260  0.00  0.00    +0.000 C 
ATOM      6  C   UNL     1       7.585   6.372  16.851  0.00  0.00    +0.000 C 
ATOM      7  C   UNL     1       6.595   5.192  16.986  0.00  0.00    +0.000 C 
ENDROOT
BRANCH   1  12
ATOM      8  C   UNL     1       2.833   4.728  18.139  0.00  0.00    +0.000 A 
ATOM      9  C   UNL     1       2.010   3.781  17.459  0.00  0.00    +0.000 A 
ATOM     10  C   UNL     1       2.781   2.668  17.238  0.00  0.00    +0.000 A 
ATOM     11  O   UNL     1       4.017   2.847  17.759  0.00  0.00    +0.000 OA
ATOM     12  C   UNL     1       4.044   4.070  18.384  0.00  0.00    +0.000 A 
BRANCH   8  14
ATOM     13  C   UNL     1       2.282   6.319  20.018  0.00  0.00    +0.000 C 
ATOM     14  C   UNL     1       2.418   6.122  18.509  0.00  0.00    +0.000 C 
ATOM     15  C   UNL     1       3.313   7.169  17.846  0.00  0.00    +0.000 C 
ENDBRANCH   8  14
ENDBRANCH   1  12
BRANCH   7  16
ATOM     16  C   UNL     1       5.489   5.226  15.941  0.00  0.00    +0.000 C 
BRANCH  16  17
ATOM     17  C   UNL     1       5.541   4.124  14.922  0.00  0.00    +0.000 C 
ATOM     18  O   UNL     1       5.293   4.237  13.733  0.00  0.00    +0.000 OA
BRANCH  17  19
ATOM     19  O   UNL     1       5.939   2.956  15.477  0.00  0.00    +0.000 OA
ATOM     20  H   UNL     1       6.859   2.973  15.805  0.00  0.00    +0.000 HD
ENDBRANCH  17  19
ENDBRANCH  16  17
ENDBRANCH   7  16
TORSDOF 5
ENDMDL
MODEL 6
REMARK VINA RESULT:      -6.6      1.795      4.233
REMARK  Name = 
REMARK  7 active torsions:
REMARK  status: ('A' for Active; 'I' for Inactive)
REMARK    1  A    between atoms: C_1  and  C_2
REMARK    2  A    between atoms: C_2  and  C_3
REMARK    3  A    between atoms: C_2  and  C_4
REMARK    4  A    between atoms: C_8  and  C_9
REMARK    5  A    between atoms: C_15  and  C_16
REMARK    6  A    between atoms: C_16  and  C_17
REMARK    7  A    between atoms: C_17  and  O_19
REMARK                            x       y       z     vdW  Elec       q    Type
REMARK                         _______ _______ _______ _____ _____    ______ ____
ROOT
ATOM      1  C   UNL     1       3.461   5.606  19.180  0.00  0.00    +0.000 C 
ATOM      2  O   UNL     1       3.014   6.706  19.510  0.00  0.00    +0.000 OA
ATOM      3  N   UNL     1       2.645   4.471  19.223  0.00  0.00    +0.000 N 
ATOM      4  C   UNL     1       1.325   4.589  19.813  0.00  0.00    +0.000 C 
ATOM      5  C   UNL     1       0.984   3.148  20.129  0.00  0.00    +0.000 C 
ATOM      6  C   UNL     1       1.577   2.368  18.957  0.00  0.00    +0.000 C 
ATOM      7  C   UNL     1       2.633   3.300  18.317  0.00  0.00    +0.000 C 
ENDROOT
BRANCH   1  12
ATOM      8  C   UNL     1       5.495   5.364  17.540  0.00  0.00    +0.000 A 
ATOM      9  C   UNL     1       6.869   5.103  17.825  0.00  0.00    +0.000 A 
ATOM     10  C   UNL     1       7.006   5.133  19.189  0.00  0.00    +0.000 A 
ATOM     11  O   UNL     1       5.807   5.368  19.773  0.00  0.00    +0.000 OA
ATOM     12  C   UNL     1       4.856   5.434  18.783  0.00  0.00    +0.000 A 
BRANCH   8  14
ATOM     13  C   UNL     1       4.967   6.937  15.639  0.00  0.00    +0.000 C 
ATOM     14  C   UNL     1       4.912   5.502  16.163  0.00  0.00    +0.000 C 
ATOM     15  C   UNL     1       5.514   4.485  15.194  0.00  0.00    +0.000 C 
ENDBRANCH   8  14
ENDBRANCH   1  12
BRANCH   7  16
ATOM     16  C   UNL     1       3.956   2.598  18.050  0.00  0.00    +0.000 C 
BRANCH  16  17
ATOM     17  C   UNL     1       4.475   1.764  19.184  0.00  0.00    +0.000 C 
ATOM     18  O   UNL     1       4.804   2.178  20.284  0.00  0.00    +0.000 OA
BRANCH  17  19
ATOM     19  O   UNL     1       4.511   0.451  18.858  0.00  0.00    +0.000 OA
ATOM     20  H   UNL     1       5.280  -0.022  19.231  0.00  0.00    +0.000 HD
ENDBRANCH  17  19
ENDBRANCH  16  17
ENDBRANCH   7  16
TORSDOF 5
ENDMDL
MODEL 7
REMARK VINA RESULT:      -6.6      0.849      1.248
REMARK  Name = 
REMARK  7 active torsions:
REMARK  status: ('A' for Active; 'I' for Inactive)
REMARK    1  A    between atoms: C_1  and  C_2
REMARK    2  A    between atoms: C_2  and  C_3
REMARK    3  A    between atoms: C_2  and  C_4
REMARK    4  A    between atoms: C_8  and  C_9
REMARK    5  A    between atoms: C_15  and  C_16
REMARK    6  A    between atoms: C_16  and  C_17
REMARK    7  A    between atoms: C_17  and  O_19
REMARK                            x       y       z     vdW  Elec       q    Type
REMARK                         _______ _______ _______ _____ _____    ______ ____
ROOT
ATOM      1  C   UNL     1       5.601   5.125  19.056  0.00  0.00    +0.000 C 
ATOM      2  O   UNL     1       6.541   5.403  19.802  0.00  0.00    +0.000 OA
ATOM      3  N   UNL     1       5.842   4.655  17.761  0.00  0.00    +0.000 N 
ATOM      4  C   UNL     1       7.205   4.657  17.266  0.00  0.00    +0.000 C 
ATOM      5  C   UNL     1       7.003   4.581  15.768  0.00  0.00    +0.000 C 
ATOM      6  C   UNL     1       5.798   3.657  15.608  0.00  0.00    +0.000 C 
ATOM      7  C   UNL     1       5.077   3.659  16.976  0.00  0.00    +0.000 C 
ENDROOT
BRANCH   1  12
ATOM      8  C   UNL     1       3.263   6.309  19.189  0.00  0.00    +0.000 A 
ATOM      9  C   UNL     1       2.114   5.972  19.964  0.00  0.00    +0.000 A 
ATOM     10  C   UNL     1       2.382   4.773  20.573  0.00  0.00    +0.000 A 
ATOM     11  O   UNL     1       3.629   4.355  20.252  0.00  0.00    +0.000 OA
ATOM     12  C   UNL     1       4.213   5.320  19.468  0.00  0.00    +0.000 A 
BRANCH   8  14
ATOM     13  C   UNL     1       4.025   7.183  16.948  0.00  0.00    +0.000 C 
ATOM     14  C   UNL     1       3.376   7.508  18.292  0.00  0.00    +0.000 C 
ATOM     15  C   UNL     1       2.037   8.233  18.152  0.00  0.00    +0.000 C 
ENDBRANCH   8  14
ENDBRANCH   1  12
BRANCH   7  16
ATOM     16  C   UNL     1       3.574   3.860  16.851  0.00  0.00    +0.000 C 
BRANCH  16  17
ATOM     17  C   UNL     1       2.734   2.785  17.477  0.00  0.00    +0.000 C 
ATOM     18  O   UNL     1       3.134   1.698  17.863  0.00  0.00    +0.000 OA
BRANCH  17  19
ATOM     19  O   UNL     1       1.444   3.174  17.602  0.00  0.00    +0.000 OA
ATOM     20  H   UNL     1       0.806   2.529  17.239  0.00  0.00    +0.000 HD
ENDBRANCH  17  19
ENDBRANCH  16  17
ENDBRANCH   7  16
TORSDOF 5
ENDMDL
MODEL 8
REMARK VINA RESULT:      -6.5      1.166      2.525
REMARK  Name = 
REMARK  7 active torsions:
REMARK  status: ('A' for Active; 'I' for Inactive)
REMARK    1  A    between atoms: C_1  and  C_2
REMARK    2  A    between atoms: C_2  and  C_3
REMARK    3  A    between atoms: C_2  and  C_4
REMARK    4  A    between atoms: C_8  and  C_9
REMARK    5  A    between atoms: C_15  and  C_16
REMARK    6  A    between atoms: C_16  and  C_17
REMARK    7  A    between atoms: C_17  and  O_19
REMARK                            x       y       z     vdW  Elec       q    Type
REMARK                         _______ _______ _______ _____ _____    ______ ____
ROOT
ATOM      1  C   UNL     1       5.484   5.015  19.157  0.00  0.00    +0.000 C 
ATOM      2  O   UNL     1       6.424   5.103  19.949  0.00  0.00    +0.000 OA
ATOM      3  N   UNL     1       5.714   4.653  17.826  0.00  0.00    +0.000 N 
ATOM      4  C   UNL     1       7.084   4.544  17.365  0.00  0.00    +0.000 C 
ATOM      5  C   UNL     1       6.927   4.644  15.862  0.00  0.00    +0.000 C 
ATOM      6  C   UNL     1       5.630   3.890  15.580  0.00  0.00    +0.000 C 
ATOM      7  C   UNL     1       4.867   3.839  16.924  0.00  0.00    +0.000 C 
ENDROOT
BRANCH   1  12
ATOM      8  C   UNL     1       3.153   4.639  20.303  0.00  0.00    +0.000 A 
ATOM      9  C   UNL     1       1.980   5.450  20.267  0.00  0.00    +0.000 A 
ATOM     10  C   UNL     1       2.313   6.606  19.609  0.00  0.00    +0.000 A 
ATOM     11  O   UNL     1       3.605   6.558  19.209  0.00  0.00    +0.000 OA
ATOM     12  C   UNL     1       4.114   5.330  19.556  0.00  0.00    +0.000 A 
BRANCH   8  14
ATOM     13  C   UNL     1       1.903   2.695  21.315  0.00  0.00    +0.000 C 
ATOM     14  C   UNL     1       3.264   3.314  20.999  0.00  0.00    +0.000 C 
ATOM     15  C   UNL     1       4.197   2.362  20.249  0.00  0.00    +0.000 C 
ENDBRANCH   8  14
ENDBRANCH   1  12
BRANCH   7  16
ATOM     16  C   UNL     1       3.402   4.228  16.787  0.00  0.00    +0.000 C 
BRANCH  16  17
ATOM     17  C   UNL     1       2.421   3.176  17.216  0.00  0.00    +0.000 C 
ATOM     18  O   UNL     1       2.670   1.992  17.385  0.00  0.00    +0.000 OA
BRANCH  17  19
ATOM     19  O   UNL     1       1.194   3.702  17.437  0.00  0.00    +0.000 OA
ATOM     20  H   UNL     1       0.505   3.343  16.845  0.00  0.00    +0.000 HD
ENDBRANCH  17  19
ENDBRANCH  16  17
ENDBRANCH   7  16
TORSDOF 5
ENDMDL
MODEL 9
REMARK VINA RESULT:      -6.5      1.928      4.487
REMARK  Name = 
REMARK  7 active torsions:
REMARK  status: ('A' for Active; 'I' for Inactive)
REMARK    1  A    between atoms: C_1  and  C_2
REMARK    2  A    between atoms: C_2  and  C_3
REMARK    3  A    between atoms: C_2  and  C_4
REMARK    4  A    between atoms: C_8  and  C_9
REMARK    5  A    between atoms: C_15  and  C_16
REMARK    6  A    between atoms: C_16  and  C_17
REMARK    7  A    between atoms: C_17  and  O_19
REMARK                            x       y       z     vdW  Elec       q    Type
REMARK                         _______ _______ _______ _____ _____    ______ ____
ROOT
ATOM      1  C   UNL     1       4.157   6.194  17.415  0.00  0.00    +0.000 C 
ATOM      2  O   UNL     1       4.015   7.415  17.336  0.00  0.00    +0.000 OA
ATOM      3  N   UNL     1       3.343   5.442  18.266  0.00  0.00    +0.000 N 
ATOM      4  C   UNL     1       2.447   6.143  19.166  0.00  0.00    +0.000 C 
ATOM      5  C   UNL     1       2.147   5.087  20.209  0.00  0.00    +0.000 C 
ATOM      6  C   UNL     1       2.072   3.791  19.404  0.00  0.00    +0.000 C 
ATOM      7  C   UNL     1       2.812   4.072  18.076  0.00  0.00    +0.000 C 
ENDROOT
BRANCH   1  12
ATOM      8  C   UNL     1       6.582   5.356  16.861  0.00  0.00    +0.000 A 
ATOM      9  C   UNL     1       7.056   4.618  15.736  0.00  0.00    +0.000 A 
ATOM     10  C   UNL     1       5.955   4.266  14.997  0.00  0.00    +0.000 A 
ATOM     11  O   UNL     1       4.832   4.759  15.571  0.00  0.00    +0.000 OA
ATOM     12  C   UNL     1       5.203   5.495  16.670  0.00  0.00    +0.000 A 
BRANCH   8  14
ATOM     13  C   UNL     1       7.722   7.369  17.869  0.00  0.00    +0.000 C 
ATOM     14  C   UNL     1       7.443   5.871  17.979  0.00  0.00    +0.000 C 
ATOM     15  C   UNL     1       6.893   5.461  19.345  0.00  0.00    +0.000 C 
ENDBRANCH   8  14
ENDBRANCH   1  12
BRANCH   7  16
ATOM     16  C   UNL     1       3.800   2.975  17.706  0.00  0.00    +0.000 C 
BRANCH  16  17
ATOM     17  C   UNL     1       4.325   2.175  18.862  0.00  0.00    +0.000 C 
ATOM     18  O   UNL     1       4.847   2.629  19.868  0.00  0.00    +0.000 OA
BRANCH  17  19
ATOM     19  O   UNL     1       4.123   0.850  18.680  0.00  0.00    +0.000 OA
ATOM     20  H   UNL     1       3.236   0.549  18.958  0.00  0.00    +0.000 HD
ENDBRANCH  17  19
ENDBRANCH  16  17
ENDBRANCH   7  16
TORSDOF 5
ENDMDL
