MODEL 1
REMARK VINA RESULT:      -7.5      0.000      0.000
REMARK  Name = 
REMARK  7 active torsions:
REMARK  status: ('A' for Active; 'I' for Inactive)
REMARK    1  A    between atoms: C_1  and  C_2
REMARK    2  A    between atoms: C_2  and  N_3
REMARK    3  A    between atoms: C_2  and  C_11
REMARK    4  A    between atoms: N_3  and  C_4
REMARK    5  A    between atoms: C_4  and  C_5
REMARK    6  A    between atoms: C_14  and  N_15
REMARK    7  A    between atoms: N_18  and  C_19
REMARK                            x       y       z     vdW  Elec       q    Type
REMARK                         _______ _______ _______ _____ _____    ______ ____
ROOT
ATOM      1  C   UNL     1       2.257   7.048  19.735  0.00  0.00    +0.000 A 
ATOM      2  C   UNL     1       1.509   7.524  20.815  0.00  0.00    +0.000 A 
ATOM      3  C   UNL     1       0.907   8.785  20.767  0.00  0.00    +0.000 A 
ATOM      4  C   UNL     1       0.995   9.610  19.637  0.00  0.00    +0.000 A 
ATOM      5  C   UNL     1       1.679   9.076  18.532  0.00  0.00    +0.000 A 
ATOM      6  F   UNL     1       1.746   9.749  17.371  0.00  0.00    +0.000 F 
ATOM      7  C   UNL     1       2.313   7.837  18.580  0.00  0.00    +0.000 A 
ENDROOT
BRANCH   4   8
ATOM      8  N   UNL     1       0.513  10.904  19.687  0.00  0.00    +0.000 N 
ATOM      9  C   UNL     1      -0.746  11.265  19.017  0.00  0.00    +0.000 C 
ATOM     10  C   UNL     1      -0.626  12.689  18.433  0.00  0.00    +0.000 C 
ATOM     11  N   UNL     1      -0.237  13.687  19.447  0.00  0.00    +0.000 NA
ATOM     12  C   UNL     1      -0.108  15.010  18.837  0.00  0.00    +0.000 C 
ATOM     13  C   UNL     1       1.039  13.277  20.077  0.00  0.00    +0.000 C 
ATOM     14  C   UNL     1       0.956  11.868  20.705  0.00  0.00    +0.000 C 
ENDBRANCH   4   8
BRANCH   1  16
ATOM     15  C   UNL     1       2.292   4.716  20.702  0.00  0.00    +0.000 C 
ATOM     16  C   UNL     1       2.986   5.716  19.761  0.00  0.00    +0.000 C 
BRANCH  16  17
ATOM     17  N   UNL     1       3.131   5.109  18.429  0.00  0.00    +0.000 NA
ATOM     18  H   UNL     1       3.107   5.844  17.723  0.00  0.00    +0.000 HD
BRANCH  17  19
ATOM     19  C   UNL     1       4.404   4.384  18.275  0.00  0.00    +0.000 C 
BRANCH  19  20
ATOM     20  C   UNL     1       5.618   5.289  18.294  0.00  0.00    +0.000 A 
ATOM     21  C   UNL     1       5.745   6.324  17.371  0.00  0.00    +0.000 A 
ATOM     22  C   UNL     1       6.897   7.106  17.399  0.00  0.00    +0.000 A 
ATOM     23  C   UNL     1       7.888   6.834  18.334  0.00  0.00    +0.000 A 
ATOM     24  C   UNL     1       7.682   5.789  19.220  0.00  0.00    +0.000 A 
ATOM     25  N   UNL     1       6.574   5.017  19.221  0.00  0.00    +0.000 NA
ENDBRANCH  19  20
ENDBRANCH  17  19
ENDBRANCH  16  17
ENDBRANCH   1  16
TORSDOF 5
ENDMDL
MODEL 2
REMARK VINA RESULT:      -7.5      2.229      3.989
REMARK  Name = 
REMARK  7 active torsions:
REMARK  status: ('A' for Active; 'I' for Inactive)
REMARK    1  A    between atoms: C_1  and  C_2
REMARK    2  A    between atoms: C_2  and  N_3
REMARK    3  A    between atoms: C_2  and  C_11
REMARK    4  A    between atoms: N_3  and  C_4
REMARK    5  A    between atoms: C_4  and  C_5
REMARK    6  A    between atoms: C_14  and  N_15
REMARK    7  A    between atoms: N_18  and  C_19
REMARK                            x       y       z     vdW  Elec       q    Type
REMARK                         _______ _______ _______ _____ _____    ______ ____
ROOT
ATOM      1  C   UNL     1       3.020   6.832  18.331  0.00  0.00    +0.000 A 
ATOM      2  C   UNL     1       2.658   6.465  19.630  0.00  0.00    +0.000 A 
ATOM      3  C   UNL     1       1.961   7.353  20.455  0.00  0.00    +0.000 A 
ATOM      4  C   UNL     1       1.569   8.626  20.016  0.00  0.00    +0.000 A 
ATOM      5  C   UNL     1       1.869   8.940  18.680  0.00  0.00    +0.000 A 
ATOM      6  F   UNL     1       1.459  10.098  18.135  0.00  0.00    +0.000 F 
ATOM      7  C   UNL     1       2.593   8.079  17.860  0.00  0.00    +0.000 A 
ENDROOT
BRANCH   4   8
ATOM      8  N   UNL     1       1.015   9.524  20.909  0.00  0.00    +0.000 N 
ATOM      9  C   UNL     1       0.978   9.229  22.349  0.00  0.00    +0.000 C 
ATOM     10  C   UNL     1      -0.334   9.775  22.951  0.00  0.00    +0.000 C 
ATOM     11  N   UNL     1      -0.527  11.211  22.680  0.00  0.00    +0.000 NA
ATOM     12  C   UNL     1      -1.796  11.672  23.244  0.00  0.00    +0.000 C 
ATOM     13  C   UNL     1      -0.492  11.446  21.218  0.00  0.00    +0.000 C 
ATOM     14  C   UNL     1       0.820  10.942  20.575  0.00  0.00    +0.000 C 
ENDBRANCH   4   8
BRANCH   1  16
ATOM     15  C   UNL     1       4.765   6.752  16.507  0.00  0.00    +0.000 C 
ATOM     16  C   UNL     1       3.834   5.932  17.418  0.00  0.00    +0.000 C 
BRANCH  16  17
ATOM     17  N   UNL     1       4.628   4.932  18.149  0.00  0.00    +0.000 NA
ATOM     18  H   UNL     1       4.632   5.168  19.141  0.00  0.00    +0.000 HD
BRANCH  17  19
ATOM     19  C   UNL     1       4.079   3.571  18.018  0.00  0.00    +0.000 C 
BRANCH  19  20
ATOM     20  C   UNL     1       3.046   3.234  19.074  0.00  0.00    +0.000 A 
ATOM     21  C   UNL     1       1.692   3.192  18.752  0.00  0.00    +0.000 A 
ATOM     22  C   UNL     1       0.773   2.918  19.762  0.00  0.00    +0.000 A 
ATOM     23  C   UNL     1       1.225   2.703  21.058  0.00  0.00    +0.000 A 
ATOM     24  C   UNL     1       2.589   2.758  21.294  0.00  0.00    +0.000 A 
ATOM     25  N   UNL     1       3.504   3.016  20.334  0.00  0.00    +0.000 NA
ENDBRANCH  19  20
ENDBRANCH  17  19
ENDBRANCH  16  17
ENDBRANCH   1  16
TORSDOF 5
ENDMDL
MODEL 3
REMARK VINA RESULT:      -7.4      0.686      1.197
REMARK  Name = 
REMARK  7 active torsions:
REMARK  status: ('A' for Active; 'I' for Inactive)
REMARK    1  A    between atoms: C_1  and  C_2
REMARK    2  A    between atoms: C_2  and  N_3
REMARK    3  A    between atoms: C_2  and  C_11
REMARK    4  A    between atoms: N_3  and  C_4
REMARK    5  A    between atoms: C_4  and  C_5
REMARK    6  A    between atoms: C_14  and  N_15
REMARK    7  A    between atoms: N_18  and  C_19
REMARK                            x       y       z     vdW  Elec       q    Type
REMARK                         _______ _______ _______ _____ _____    ______ ____
ROOT
ATOM      1  C   UNL     1       2.277   6.979  19.749  0.00  0.00    +0.000 A 
ATOM      2  C   UNL     1       1.499   7.458  20.806  0.00  0.00    +0.000 A 
ATOM      3  C   UNL     1       0.882   8.711  20.730  0.00  0.00    +0.000 A 
ATOM      4  C   UNL     1       0.986   9.524  19.593  0.00  0.00    +0.000 A 
ATOM      5  C   UNL     1       1.702   8.986  18.510  0.00  0.00    +0.000 A 
ATOM      6  F   UNL     1       1.786   9.646  17.343  0.00  0.00    +0.000 F 
ATOM      7  C   UNL     1       2.350   7.756  18.586  0.00  0.00    +0.000 A 
ENDROOT
BRANCH   4   8
ATOM      8  N   UNL     1       0.487  10.813  19.617  0.00  0.00    +0.000 N 
ATOM      9  C   UNL     1       1.341  11.944  20.006  0.00  0.00    +0.000 C 
ATOM     10  C   UNL     1       0.505  12.968  20.803  0.00  0.00    +0.000 C 
ATOM     11  N   UNL     1      -0.696  13.412  20.073  0.00  0.00    +0.000 NA
ATOM     12  C   UNL     1      -1.466  14.355  20.882  0.00  0.00    +0.000 C 
ATOM     13  C   UNL     1      -1.521  12.235  19.718  0.00  0.00    +0.000 C 
ATOM     14  C   UNL     1      -0.733  11.195  18.890  0.00  0.00    +0.000 C 
ENDBRANCH   4   8
BRANCH   1  16
ATOM     15  C   UNL     1       2.354   4.681  20.793  0.00  0.00    +0.000 C 
ATOM     16  C   UNL     1       3.021   5.657  19.808  0.00  0.00    +0.000 C 
BRANCH  16  17
ATOM     17  N   UNL     1       3.152   5.008  18.495  0.00  0.00    +0.000 NA
ATOM     18  H   UNL     1       3.097   5.717  17.764  0.00  0.00    +0.000 HD
BRANCH  17  19
ATOM     19  C   UNL     1       4.437   4.305  18.338  0.00  0.00    +0.000 C 
BRANCH  19  20
ATOM     20  C   UNL     1       5.634   5.233  18.335  0.00  0.00    +0.000 A 
ATOM     21  C   UNL     1       5.755   6.230  17.371  0.00  0.00    +0.000 A 
ATOM     22  C   UNL     1       6.892   7.034  17.381  0.00  0.00    +0.000 A 
ATOM     23  C   UNL     1       7.874   6.819  18.340  0.00  0.00    +0.000 A 
ATOM     24  C   UNL     1       7.675   5.809  19.265  0.00  0.00    +0.000 A 
ATOM     25  N   UNL     1       6.582   5.017  19.285  0.00  0.00    +0.000 NA
ENDBRANCH  19  20
ENDBRANCH  17  19
ENDBRANCH  16  17
ENDBRANCH   1  16
TORSDOF 5
ENDMDL
MODEL 4
REMARK VINA RESULT:      -7.3      1.439      1.993
REMARK  Name = 
REMARK  7 active torsions:
REMARK  status: ('A' for Active; 'I' for Inactive)
REMARK    1  A    between atoms: C_1  and  C_2
REMARK    2  A    between atoms: C_2  and  N_3
REMARK    3  A    between atoms: C_2  and  C_11
REMARK    4  A    between atoms: N_3  and  C_4
REMARK    5  A    between atoms: C_4  and  C_5
REMARK    6  A    between atoms: C_14  and  N_15
REMARK    7  A    between atoms: N_18  and  C_19
REMARK                            x       y       z     vdW  Elec       q    Type
REMARK                         _______ _______ _______ _____ _____    ______ ____
ROOT
ATOM      1  C   UNL     1       2.298   5.925  19.233  0.00  0.00    +0.000 A 
ATOM      2  C   UNL     1       2.404   6.755  18.113  0.00  0.00    +0.000 A 
ATOM      3  C   UNL     1       2.038   8.103  18.184  0.00  0.00    +0.000 A 
ATOM      4  C   UNL     1       1.583   8.689  19.374  0.00  0.00    +0.000 A 
ATOM      5  C   UNL     1       1.566   7.858  20.506  0.00  0.00    +0.000 A 
ATOM      6  F   UNL     1       1.230   8.344  21.714  0.00  0.00    +0.000 F 
ATOM      7  C   UNL     1       1.893   6.506  20.441  0.00  0.00    +0.000 A 
ENDROOT
BRANCH   4   8
ATOM      8  N   UNL     1       1.093   9.981  19.364  0.00  0.00    +0.000 N 
ATOM      9  C   UNL     1       1.729  11.021  18.541  0.00  0.00    +0.000 C 
ATOM     10  C   UNL     1       1.685  12.368  19.293  0.00  0.00    +0.000 C 
ATOM     11  N   UNL     1       0.319  12.747  19.698  0.00  0.00    +0.000 NA
ATOM     12  C   UNL     1       0.336  14.013  20.431  0.00  0.00    +0.000 C 
ATOM     13  C   UNL     1      -0.265  11.671  20.531  0.00  0.00    +0.000 C 
ATOM     14  C   UNL     1      -0.271  10.306  19.805  0.00  0.00    +0.000 C 
ENDBRANCH   4   8
BRANCH   1  16
ATOM     15  C   UNL     1       2.373   3.854  17.791  0.00  0.00    +0.000 C 
ATOM     16  C   UNL     1       2.618   4.441  19.192  0.00  0.00    +0.000 C 
BRANCH  16  17
ATOM     17  N   UNL     1       3.993   4.134  19.614  0.00  0.00    +0.000 NA
ATOM     18  H   UNL     1       3.995   3.254  20.129  0.00  0.00    +0.000 HD
BRANCH  17  19
ATOM     19  C   UNL     1       4.913   3.984  18.473  0.00  0.00    +0.000 C 
BRANCH  19  20
ATOM     20  C   UNL     1       5.951   5.084  18.388  0.00  0.00    +0.000 A 
ATOM     21  C   UNL     1       5.866   6.063  17.401  0.00  0.00    +0.000 A 
ATOM     22  C   UNL     1       6.864   7.032  17.334  0.00  0.00    +0.000 A 
ATOM     23  C   UNL     1       7.916   6.995  18.242  0.00  0.00    +0.000 A 
ATOM     24  C   UNL     1       7.923   5.991  19.196  0.00  0.00    +0.000 A 
ATOM     25  N   UNL     1       6.967   5.042  19.289  0.00  0.00    +0.000 NA
ENDBRANCH  19  20
ENDBRANCH  17  19
ENDBRANCH  16  17
ENDBRANCH   1  16
TORSDOF 5
ENDMDL
MODEL 5
REMARK VINA RESULT:      -7.3      1.369      1.974
REMARK  Name = 
REMARK  7 active torsions:
REMARK  status: ('A' for Active; 'I' for Inactive)
REMARK    1  A    between atoms: C_1  and  C_2
REMARK    2  A    between atoms: C_2  and  N_3
REMARK    3  A    between atoms: C_2  and  C_11
REMARK    4  A    between atoms: N_3  and  C_4
REMARK    5  A    between atoms: C_4  and  C_5
REMARK    6  A    between atoms: C_14  and  N_15
REMARK    7  A    between atoms: N_18  and  C_19
REMARK                            x       y       z     vdW  Elec       q    Type
REMARK                         _______ _______ _______ _____ _____    ______ ____
ROOT
ATOM      1  C   UNL     1       2.481   6.866  19.436  0.00  0.00    +0.000 A 
ATOM      2  C   UNL     1       2.477   7.744  18.348  0.00  0.00    +0.000 A 
ATOM      3  C   UNL     1       1.790   8.960  18.414  0.00  0.00    +0.000 A 
ATOM      4  C   UNL     1       1.108   9.369  19.568  0.00  0.00    +0.000 A 
ATOM      5  C   UNL     1       1.197   8.510  20.676  0.00  0.00    +0.000 A 
ATOM      6  F   UNL     1       0.652   8.849  21.857  0.00  0.00    +0.000 F 
ATOM      7  C   UNL     1       1.847   7.281  20.613  0.00  0.00    +0.000 A 
ENDROOT
BRANCH   4   8
ATOM      8  N   UNL     1       0.322  10.505  19.540  0.00  0.00    +0.000 N 
ATOM      9  C   UNL     1       0.744  11.730  20.235  0.00  0.00    +0.000 C 
ATOM     10  C   UNL     1      -0.494  12.433  20.832  0.00  0.00    +0.000 C 
ATOM     11  N   UNL     1      -1.534  12.705  19.822  0.00  0.00    +0.000 NA
ATOM     12  C   UNL     1      -2.694  13.343  20.444  0.00  0.00    +0.000 C 
ATOM     13  C   UNL     1      -1.926  11.437  19.166  0.00  0.00    +0.000 C 
ATOM     14  C   UNL     1      -0.721  10.712  18.525  0.00  0.00    +0.000 C 
ENDBRANCH   4   8
BRANCH   1  16
ATOM     15  C   UNL     1       2.426   4.492  20.293  0.00  0.00    +0.000 C 
ATOM     16  C   UNL     1       3.154   5.505  19.393  0.00  0.00    +0.000 C 
BRANCH  16  17
ATOM     17  N   UNL     1       3.265   4.956  18.033  0.00  0.00    +0.000 NA
ATOM     18  H   UNL     1       3.155   5.712  17.358  0.00  0.00    +0.000 HD
BRANCH  17  19
ATOM     19  C   UNL     1       4.572   4.324  17.785  0.00  0.00    +0.000 C 
BRANCH  19  20
ATOM     20  C   UNL     1       5.745   5.256  18.009  0.00  0.00    +0.000 A 
ATOM     21  C   UNL     1       5.914   6.386  17.213  0.00  0.00    +0.000 A 
ATOM     22  C   UNL     1       7.028   7.193  17.427  0.00  0.00    +0.000 A 
ATOM     23  C   UNL     1       7.941   6.851  18.417  0.00  0.00    +0.000 A 
ATOM     24  C   UNL     1       7.697   5.713  19.168  0.00  0.00    +0.000 A 
ATOM     25  N   UNL     1       6.623   4.914  18.988  0.00  0.00    +0.000 NA
ENDBRANCH  19  20
ENDBRANCH  17  19
ENDBRANCH  16  17
ENDBRANCH   1  16
TORSDOF 5
ENDMDL
MODEL 6
REMARK VINA RESULT:      -7.3      2.057      3.013
REMARK  Name = 
REMARK  7 active torsions:
REMARK  status: ('A' for Active; 'I' for Inactive)
REMARK    1  A    between atoms: C_1  and  C_2
REMARK    2  A    between atoms: C_2  and  N_3
REMARK    3  A    between atoms: C_2  and  C_11
REMARK    4  A    between atoms: N_3  and  C_4
REMARK    5  A    between atoms: C_4  and  C_5
REMARK    6  A    between atoms: C_14  and  N_15
REMARK    7  A    between atoms: N_18  and  C_19
REMARK                            x       y       z     vdW  Elec       q    Type
REMARK                         _______ _______ _______ _____ _____    ______ ____
ROOT
ATOM      1  C   UNL     1       3.501   5.472  18.054  0.00  0.00    +0.000 A 
ATOM      2  C   UNL     1       3.693   6.706  17.427  0.00  0.00    +0.000 A 
ATOM      3  C   UNL     1       3.049   7.855  17.898  0.00  0.00    +0.000 A 
ATOM      4  C   UNL     1       2.216   7.832  19.025  0.00  0.00    +0.000 A 
ATOM      5  C   UNL     1       2.106   6.599  19.689  0.00  0.00    +0.000 A 
ATOM      6  F   UNL     1       1.403   6.490  20.829  0.00  0.00    +0.000 F 
ATOM      7  C   UNL     1       2.712   5.441  19.210  0.00  0.00    +0.000 A 
ENDROOT
BRANCH   4   8
ATOM      8  N   UNL     1       1.486   8.955  19.367  0.00  0.00    +0.000 N 
ATOM      9  C   UNL     1       1.162   9.244  20.771  0.00  0.00    +0.000 C 
ATOM     10  C   UNL     1      -0.249   9.864  20.855  0.00  0.00    +0.000 C 
ATOM     11  N   UNL     1      -0.397  11.056  20.001  0.00  0.00    +0.000 NA
ATOM     12  C   UNL     1      -1.757  11.586  20.093  0.00  0.00    +0.000 C 
ATOM     13  C   UNL     1      -0.069  10.703  18.601  0.00  0.00    +0.000 C 
ATOM     14  C   UNL     1       1.350  10.107  18.463  0.00  0.00    +0.000 C 
ENDBRANCH   4   8
BRANCH   1  16
ATOM     15  C   UNL     1       3.108   3.027  17.561  0.00  0.00    +0.000 C 
ATOM     16  C   UNL     1       4.122   4.183  17.543  0.00  0.00    +0.000 C 
BRANCH  16  17
ATOM     17  N   UNL     1       4.690   4.310  16.192  0.00  0.00    +0.000 NA
ATOM     18  H   UNL     1       4.467   5.233  15.821  0.00  0.00    +0.000 HD
BRANCH  17  19
ATOM     19  C   UNL     1       6.156   4.168  16.181  0.00  0.00    +0.000 C 
BRANCH  19  20
ATOM     20  C   UNL     1       6.866   5.183  17.052  0.00  0.00    +0.000 A 
ATOM     21  C   UNL     1       7.318   4.834  18.322  0.00  0.00    +0.000 A 
ATOM     22  C   UNL     1       7.931   5.809  19.105  0.00  0.00    +0.000 A 
ATOM     23  C   UNL     1       8.068   7.100  18.607  0.00  0.00    +0.000 A 
ATOM     24  C   UNL     1       7.595   7.363  17.332  0.00  0.00    +0.000 A 
ATOM     25  N   UNL     1       7.003   6.437  16.548  0.00  0.00    +0.000 NA
ENDBRANCH  19  20
ENDBRANCH  17  19
ENDBRANCH  16  17
ENDBRANCH   1  16
TORSDOF 5
ENDMDL
MODEL 7
REMARK VINA RESULT:      -7.2      2.040      3.940
REMARK  Name = 
REMARK  7 active torsions:
REMARK  status: ('A' for Active; 'I' for Inactive)
REMARK    1  A    between atoms: C_1  and  C_2
REMARK    2  A    between atoms: C_2  and  N_3
REMARK    3  A    between atoms: C_2  and  C_11
REMARK    4  A    between atoms: N_3  and  C_4
REMARK    5  A    between atoms: C_4  and  C_5
REMARK    6  A    between atoms: C_14  and  N_15
REMARK    7  A    between atoms: N_18  and  C_19
REMARK                            x       y       z     vdW  Elec       q    Type
REMARK                         _______ _______ _______ _____ _____    ______ ____
ROOT
ATOM      1  C   UNL     1       2.686   7.496  18.659  0.00  0.00    +0.000 A 
ATOM      2  C   UNL     1       2.532   8.541  17.745  0.00  0.00    +0.000 A 
ATOM      3  C   UNL     1       1.678   9.613  18.022  0.00  0.00    +0.000 A 
ATOM      4  C   UNL     1       0.969   9.708  19.228  0.00  0.00    +0.000 A 
ATOM      5  C   UNL     1       1.205   8.690  20.167  0.00  0.00    +0.000 A 
ATOM      6  F   UNL     1       0.643   8.732  21.386  0.00  0.00    +0.000 F 
ATOM      7  C   UNL     1       2.024   7.599  19.889  0.00  0.00    +0.000 A 
ENDROOT
BRANCH   4   8
ATOM      8  N   UNL     1       0.026  10.704  19.398  0.00  0.00    +0.000 N 
ATOM      9  C   UNL     1       0.180  11.713  20.457  0.00  0.00    +0.000 C 
ATOM     10  C   UNL     1      -1.207  12.063  21.036  0.00  0.00    +0.000 C 
ATOM     11  N   UNL     1      -2.162  12.496  20.000  0.00  0.00    +0.000 NA
ATOM     12  C   UNL     1      -3.466  12.786  20.596  0.00  0.00    +0.000 C 
ATOM     13  C   UNL     1      -2.284  11.439  18.970  0.00  0.00    +0.000 C 
ATOM     14  C   UNL     1      -0.922  11.077  18.338  0.00  0.00    +0.000 C 
ENDBRANCH   4   8
BRANCH   1  16
ATOM     15  C   UNL     1       4.501   6.524  17.197  0.00  0.00    +0.000 C 
ATOM     16  C   UNL     1       3.548   6.277  18.379  0.00  0.00    +0.000 C 
BRANCH  16  17
ATOM     17  N   UNL     1       4.326   5.837  19.547  0.00  0.00    +0.000 NA
ATOM     18  H   UNL     1       3.877   6.179  20.396  0.00  0.00    +0.000 HD
BRANCH  17  19
ATOM     19  C   UNL     1       4.412   4.370  19.649  0.00  0.00    +0.000 C 
BRANCH  19  20
ATOM     20  C   UNL     1       3.083   3.673  19.443  0.00  0.00    +0.000 A 
ATOM     21  C   UNL     1       2.058   3.814  20.375  0.00  0.00    +0.000 A 
ATOM     22  C   UNL     1       0.867   3.124  20.167  0.00  0.00    +0.000 A 
ATOM     23  C   UNL     1       0.734   2.310  19.048  0.00  0.00    +0.000 A 
ATOM     24  C   UNL     1       1.800   2.228  18.168  0.00  0.00    +0.000 A 
ATOM     25  N   UNL     1       2.964   2.890  18.339  0.00  0.00    +0.000 NA
ENDBRANCH  19  20
ENDBRANCH  17  19
ENDBRANCH  16  17
ENDBRANCH   1  16
TORSDOF 5
ENDMDL
MODEL 8
REMARK VINA RESULT:      -7.2      2.253      8.331
REMARK  Name = 
REMARK  7 active torsions:
REMARK  status: ('A' for Active; 'I' for Inactive)
REMARK    1  A    between atoms: C_1  and  C_2
REMARK    2  A    between atoms: C_2  and  N_3
REMARK    3  A    between atoms: C_2  and  C_11
REMARK    4  A    between atoms: N_3  and  C_4
REMARK    5  A    between atoms: C_4  and  C_5
REMARK    6  A    between atoms: C_14  and  N_15
REMARK    7  A    between atoms: N_18  and  C_19
REMARK                            x       y       z     vdW  Elec       q    Type
REMARK                         _______ _______ _______ _____ _____    ______ ____
ROOT
ATOM      1  C   UNL     1       1.051   9.585  19.811  0.00  0.00    +0.000 A 
ATOM      2  C   UNL     1       1.152   8.542  20.735  0.00  0.00    +0.000 A 
ATOM      3  C   UNL     1       1.767   7.335  20.386  0.00  0.00    +0.000 A 
ATOM      4  C   UNL     1       2.332   7.126  19.120  0.00  0.00    +0.000 A 
ATOM      5  C   UNL     1       2.294   8.218  18.237  0.00  0.00    +0.000 A 
ATOM      6  F   UNL     1       2.884   8.151  17.032  0.00  0.00    +0.000 F 
ATOM      7  C   UNL     1       1.654   9.411  18.559  0.00  0.00    +0.000 A 
ENDROOT
BRANCH   4   8
ATOM      8  N   UNL     1       2.796   5.872  18.770  0.00  0.00    +0.000 N 
ATOM      9  C   UNL     1       2.003   4.993  17.897  0.00  0.00    +0.000 C 
ATOM     10  C   UNL     1       2.174   3.528  18.354  0.00  0.00    +0.000 C 
ATOM     11  N   UNL     1       3.587   3.114  18.414  0.00  0.00    +0.000 NA
ATOM     12  C   UNL     1       3.695   1.731  18.879  0.00  0.00    +0.000 C 
ATOM     13  C   UNL     1       4.331   4.025  19.312  0.00  0.00    +0.000 C 
ATOM     14  C   UNL     1       4.215   5.503  18.874  0.00  0.00    +0.000 C 
ENDBRANCH   4   8
BRANCH   1  16
ATOM     15  C   UNL     1       0.843  12.031  19.219  0.00  0.00    +0.000 C 
ATOM     16  C   UNL     1       0.335  10.889  20.116  0.00  0.00    +0.000 C 
BRANCH  16  17
ATOM     17  N   UNL     1      -1.127  10.789  19.993  0.00  0.00    +0.000 NA
ATOM     18  H   UNL     1      -1.549  10.909  20.914  0.00  0.00    +0.000 HD
BRANCH  17  19
ATOM     19  C   UNL     1      -1.691  11.823  19.108  0.00  0.00    +0.000 C 
BRANCH  19  20
ATOM     20  C   UNL     1      -2.414  11.257  17.904  0.00  0.00    +0.000 A 
ATOM     21  C   UNL     1      -1.820  10.271  17.120  0.00  0.00    +0.000 A 
ATOM     22  C   UNL     1      -2.504   9.807  15.999  0.00  0.00    +0.000 A 
ATOM     23  C   UNL     1      -3.749  10.340  15.688  0.00  0.00    +0.000 A 
ATOM     24  C   UNL     1      -4.271  11.314  16.522  0.00  0.00    +0.000 A 
ATOM     25  N   UNL     1      -3.635  11.780  17.618  0.00  0.00    +0.000 NA
ENDBRANCH  19  20
ENDBRANCH  17  19
ENDBRANCH  16  17
ENDBRANCH   1  16
TORSDOF 5
ENDMDL
MODEL 9
REMARK VINA RESULT:      -7.2      1.316      1.698
REMARK  Name = 
REMARK  7 active torsions:
REMARK  status: ('A' for Active; 'I' for Inactive)
REMARK    1  A    between atoms: C_1  and  C_2
REMARK    2  A    between atoms: C_2  and  N_3
REMARK    3  A    between atoms: C_2  and  C_11
REMARK    4  A    between atoms: N_3  and  C_4
REMARK    5  A    between atoms: C_4  and  C_5
REMARK    6  A    between atoms: C_14  and  N_15
REMARK    7  A    between atoms: N_18  and  C_19
REMARK                            x       y       z     vdW  Elec       q    Type
REMARK                         _______ _______ _______ _____ _____    ______ ____
ROOT
ATOM      1  C   UNL     1       2.233   6.197  19.416  0.00  0.00    +0.000 A 
ATOM      2  C   UNL     1       2.402   7.117  18.378  0.00  0.00    +0.000 A 
ATOM      3  C   UNL     1       1.975   8.441  18.521  0.00  0.00    +0.000 A 
ATOM      4  C   UNL     1       1.394   8.913  19.707  0.00  0.00    +0.000 A 
ATOM      5  C   UNL     1       1.312   7.992  20.765  0.00  0.00    +0.000 A 
ATOM      6  F   UNL     1       0.852   8.366  21.971  0.00  0.00    +0.000 F 
ATOM      7  C   UNL     1       1.700   6.663  20.624  0.00  0.00    +0.000 A 
ENDROOT
BRANCH   4   8
ATOM      8  N   UNL     1       0.853  10.184  19.753  0.00  0.00    +0.000 N 
ATOM      9  C   UNL     1      -0.534  10.428  19.330  0.00  0.00    +0.000 C 
ATOM     10  C   UNL     1      -0.620  11.798  18.624  0.00  0.00    +0.000 C 
ATOM     11  N   UNL     1      -0.098  12.898  19.454  0.00  0.00    +0.000 NA
ATOM     12  C   UNL     1      -0.175  14.166  18.729  0.00  0.00    +0.000 C 
ATOM     13  C   UNL     1       1.301  12.603  19.840  0.00  0.00    +0.000 C 
ATOM     14  C   UNL     1       1.432  11.253  20.580  0.00  0.00    +0.000 C 
ENDBRANCH   4   8
BRANCH   1  16
ATOM     15  C   UNL     1       2.356   4.207  17.866  0.00  0.00    +0.000 C 
ATOM     16  C   UNL     1       2.617   4.733  19.288  0.00  0.00    +0.000 C 
BRANCH  16  17
ATOM     17  N   UNL     1       4.017   4.468  19.655  0.00  0.00    +0.000 NA
ATOM     18  H   UNL     1       4.063   3.604  20.194  0.00  0.00    +0.000 HD
BRANCH  17  19
ATOM     19  C   UNL     1       4.887   4.305  18.477  0.00  0.00    +0.000 C 
BRANCH  19  20
ATOM     20  C   UNL     1       5.956   5.372  18.366  0.00  0.00    +0.000 A 
ATOM     21  C   UNL     1       5.852   6.383  17.414  0.00  0.00    +0.000 A 
ATOM     22  C   UNL     1       6.878   7.320  17.320  0.00  0.00    +0.000 A 
ATOM     23  C   UNL     1       7.976   7.220  18.166  0.00  0.00    +0.000 A 
ATOM     24  C   UNL     1       8.000   6.187  19.087  0.00  0.00    +0.000 A 
ATOM     25  N   UNL     1       7.019   5.267  19.206  0.00  0.00    +0.000 NA
ENDBRANCH  19  20
ENDBRANCH  17  19
ENDBRANCH  16  17
ENDBRANCH   1  16
TORSDOF 5
ENDMDL
