MODEL 1
REMARK VINA RESULT:      -6.9      0.000      0.000
REMARK  Name = 
REMARK  4 active torsions:
REMARK  status: ('A' for Active; 'I' for Inactive)
REMARK    1  A    between atoms: C_2  and  C_4
REMARK    2  A    between atoms: C_10  and  C_12
REMARK    3  A    between atoms: C_12  and  O_13
REMARK    4  A    between atoms: O_13  and  C_14
REMARK                            x       y       z     vdW  Elec       q    Type
REMARK                         _______ _______ _______ _____ _____    ______ ____
ROOT
ATOM      1  C   UNL     1       5.447   5.968  16.710  0.00  0.00    +0.000 C 
ATOM      2  C   UNL     1       5.077   7.326  17.326  0.00  0.00    +0.000 C 
ATOM      3  C   UNL     1       3.553   7.478  17.413  0.00  0.00    +0.000 C 
ATOM      4  C   UNL     1       2.915   6.296  18.147  0.00  0.00    +0.000 C 
ATOM      5  C   UNL     1       3.356   4.968  17.530  0.00  0.00    +0.000 C 
ATOM      6  N   UNL     1       4.817   4.877  17.500  0.00  0.00    +0.000 N 
ATOM      7  C   UNL     1       5.551   4.284  18.536  0.00  0.00    +0.000 C 
ATOM      8  O   UNL     1       6.782   4.293  18.513  0.00  0.00    +0.000 OA
ENDROOT
BRANCH   1  10
ATOM      9  N   UNL     1       7.310   4.831  15.549  0.00  0.00    +0.000 N 
ATOM     10  C   UNL     1       6.947   5.898  16.325  0.00  0.00    +0.000 C 
ATOM     11  O   UNL     1       7.746   6.812  16.521  0.00  0.00    +0.000 OA
ATOM     12  H   UNL     1       8.311   4.761  15.413  0.00  0.00    +0.000 HD
ATOM     13  H   UNL     1       6.861   3.952  15.788  0.00  0.00    +0.000 HD
ENDBRANCH   1  10
BRANCH   7  14
ATOM     14  C   UNL     1       4.776   3.588  19.682  0.00  0.00    +0.000 C 
BRANCH  14  15
ATOM     15  O   UNL     1       4.224   2.296  19.477  0.00  0.00    +0.000 OA
BRANCH  15  16
ATOM     16  C   UNL     1       2.843   2.163  19.780  0.00  0.00    +0.000 C 
ATOM     17  C   UNL     1       2.218   3.369  20.472  0.00  0.00    +0.000 C 
ATOM     18  C   UNL     1       0.728   3.172  20.233  0.00  0.00    +0.000 C 
ATOM     19  C   UNL     1       0.618   2.462  18.882  0.00  0.00    +0.000 C 
ATOM     20  C   UNL     1       2.044   2.091  18.483  0.00  0.00    +0.000 C 
ENDBRANCH  15  16
ENDBRANCH  14  15
ENDBRANCH   7  14
TORSDOF 4
ENDMDL
MODEL 2
REMARK VINA RESULT:      -6.7      1.984      5.143
REMARK  Name = 
REMARK  4 active torsions:
REMARK  status: ('A' for Active; 'I' for Inactive)
REMARK    1  A    between atoms: C_2  and  C_4
REMARK    2  A    between atoms: C_10  and  C_12
REMARK    3  A    between atoms: C_12  and  O_13
REMARK    4  A    between atoms: O_13  and  C_14
REMARK                            x       y       z     vdW  Elec       q    Type
REMARK                         _______ _______ _______ _____ _____    ______ ____
ROOT
ATOM      1  C   UNL     1       2.347   4.036  19.699  0.00  0.00    +0.000 C 
ATOM      2  C   UNL     1       1.789   4.034  18.268  0.00  0.00    +0.000 C 
ATOM      3  C   UNL     1       1.577   5.471  17.773  0.00  0.00    +0.000 C 
ATOM      4  C   UNL     1       2.852   6.303  17.914  0.00  0.00    +0.000 C 
ATOM      5  C   UNL     1       3.397   6.229  19.341  0.00  0.00    +0.000 C 
ATOM      6  N   UNL     1       3.600   4.836  19.741  0.00  0.00    +0.000 N 
ATOM      7  C   UNL     1       4.826   4.179  19.570  0.00  0.00    +0.000 C 
ATOM      8  O   UNL     1       4.938   2.985  19.848  0.00  0.00    +0.000 OA
ENDROOT
BRANCH   1  10
ATOM      9  N   UNL     1       2.439   2.592  21.703  0.00  0.00    +0.000 N 
ATOM     10  C   UNL     1       2.288   2.627  20.344  0.00  0.00    +0.000 C 
ATOM     11  O   UNL     1       1.944   1.613  19.740  0.00  0.00    +0.000 OA
ATOM     12  H   UNL     1       2.507   1.651  22.071  0.00  0.00    +0.000 HD
ATOM     13  H   UNL     1       3.132   3.234  22.077  0.00  0.00    +0.000 HD
ENDBRANCH   1  10
BRANCH   7  14
ATOM     14  C   UNL     1       6.036   5.001  19.063  0.00  0.00    +0.000 C 
BRANCH  14  15
ATOM     15  O   UNL     1       6.981   4.400  18.191  0.00  0.00    +0.000 OA
BRANCH  15  16
ATOM     16  C   UNL     1       6.781   4.643  16.807  0.00  0.00    +0.000 C 
ATOM     17  C   UNL     1       5.780   3.715  16.129  0.00  0.00    +0.000 C 
ATOM     18  C   UNL     1       5.406   4.473  14.864  0.00  0.00    +0.000 C 
ATOM     19  C   UNL     1       5.505   5.956  15.228  0.00  0.00    +0.000 C 
ATOM     20  C   UNL     1       6.127   6.008  16.621  0.00  0.00    +0.000 C 
ENDBRANCH  15  16
ENDBRANCH  14  15
ENDBRANCH   7  14
TORSDOF 4
ENDMDL
MODEL 3
REMARK VINA RESULT:      -6.7      2.015      2.963
REMARK  Name = 
REMARK  4 active torsions:
REMARK  status: ('A' for Active; 'I' for Inactive)
REMARK    1  A    between atoms: C_2  and  C_4
REMARK    2  A    between atoms: C_10  and  C_12
REMARK    3  A    between atoms: C_12  and  O_13
REMARK    4  A    between atoms: O_13  and  C_14
REMARK                            x       y       z     vdW  Elec       q    Type
REMARK                         _______ _______ _______ _____ _____    ______ ____
ROOT
ATOM      1  C   UNL     1       7.113   5.125  17.488  0.00  0.00    +0.000 C 
ATOM      2  C   UNL     1       7.224   5.866  16.147  0.00  0.00    +0.000 C 
ATOM      3  C   UNL     1       6.949   4.907  14.981  0.00  0.00    +0.000 C 
ATOM      4  C   UNL     1       5.611   4.187  15.155  0.00  0.00    +0.000 C 
ATOM      5  C   UNL     1       5.528   3.513  16.524  0.00  0.00    +0.000 C 
ATOM      6  N   UNL     1       5.774   4.485  17.591  0.00  0.00    +0.000 N 
ATOM      7  C   UNL     1       4.737   5.186  18.219  0.00  0.00    +0.000 C 
ATOM      8  O   UNL     1       4.987   6.051  19.058  0.00  0.00    +0.000 OA
ENDROOT
BRANCH   1  10
ATOM      9  N   UNL     1       7.890   5.287  19.830  0.00  0.00    +0.000 N 
ATOM     10  C   UNL     1       7.676   5.967  18.662  0.00  0.00    +0.000 C 
ATOM     11  O   UNL     1       8.092   7.118  18.538  0.00  0.00    +0.000 OA
ATOM     12  H   UNL     1       8.150   5.892  20.599  0.00  0.00    +0.000 HD
ATOM     13  H   UNL     1       7.180   4.600  20.064  0.00  0.00    +0.000 HD
ENDBRANCH   1  10
BRANCH   7  14
ATOM     14  C   UNL     1       3.277   4.818  17.858  0.00  0.00    +0.000 C 
BRANCH  14  15
ATOM     15  O   UNL     1       2.204   5.375  18.604  0.00  0.00    +0.000 OA
BRANCH  15  16
ATOM     16  C   UNL     1       1.603   4.511  19.555  0.00  0.00    +0.000 C 
ATOM     17  C   UNL     1       1.800   3.023  19.286  0.00  0.00    +0.000 C 
ATOM     18  C   UNL     1       1.512   2.385  20.637  0.00  0.00    +0.000 C 
ATOM     19  C   UNL     1       1.956   3.412  21.680  0.00  0.00    +0.000 C 
ATOM     20  C   UNL     1       2.293   4.683  20.905  0.00  0.00    +0.000 C 
ENDBRANCH  15  16
ENDBRANCH  14  15
ENDBRANCH   7  14
TORSDOF 4
ENDMDL
MODEL 4
REMARK VINA RESULT:      -6.6      1.812      2.725
REMARK  Name = 
REMARK  4 active torsions:
REMARK  status: ('A' for Active; 'I' for Inactive)
REMARK    1  A    between atoms: C_2  and  C_4
REMARK    2  A    between atoms: C_10  and  C_12
REMARK    3  A    between atoms: C_12  and  O_13
REMARK    4  A    between atoms: O_13  and  C_14
REMARK                            x       y       z     vdW  Elec       q    Type
REMARK                         _______ _______ _______ _____ _____    ______ ____
ROOT
ATOM      1  C   UNL     1       7.108   5.086  17.267  0.00  0.00    +0.000 C 
ATOM      2  C   UNL     1       7.148   5.927  15.981  0.00  0.00    +0.000 C 
ATOM      3  C   UNL     1       6.982   5.030  14.748  0.00  0.00    +0.000 C 
ATOM      4  C   UNL     1       5.726   4.163  14.854  0.00  0.00    +0.000 C 
ATOM      5  C   UNL     1       5.706   3.389  16.172  0.00  0.00    +0.000 C 
ATOM      6  N   UNL     1       5.843   4.304  17.307  0.00  0.00    +0.000 N 
ATOM      7  C   UNL     1       4.734   4.847  17.968  0.00  0.00    +0.000 C 
ATOM      8  O   UNL     1       4.887   5.672  18.869  0.00  0.00    +0.000 OA
ENDROOT
BRANCH   1  10
ATOM      9  N   UNL     1       7.725   5.181  19.658  0.00  0.00    +0.000 N 
ATOM     10  C   UNL     1       7.572   5.897  18.503  0.00  0.00    +0.000 C 
ATOM     11  O   UNL     1       7.968   7.060  18.447  0.00  0.00    +0.000 OA
ATOM     12  H   UNL     1       7.919   5.762  20.464  0.00  0.00    +0.000 HD
ATOM     13  H   UNL     1       7.018   4.470  19.821  0.00  0.00    +0.000 HD
ENDBRANCH   1  10
BRANCH   7  14
ATOM     14  C   UNL     1       3.322   4.355  17.563  0.00  0.00    +0.000 C 
BRANCH  14  15
ATOM     15  O   UNL     1       2.954   3.004  17.792  0.00  0.00    +0.000 OA
BRANCH  15  16
ATOM     16  C   UNL     1       2.264   2.752  19.006  0.00  0.00    +0.000 C 
ATOM     17  C   UNL     1       3.156   2.616  20.235  0.00  0.00    +0.000 C 
ATOM     18  C   UNL     1       2.191   2.844  21.390  0.00  0.00    +0.000 C 
ATOM     19  C   UNL     1       1.139   3.820  20.861  0.00  0.00    +0.000 C 
ATOM     20  C   UNL     1       1.410   3.964  19.366  0.00  0.00    +0.000 C 
ENDBRANCH  15  16
ENDBRANCH  14  15
ENDBRANCH   7  14
TORSDOF 4
ENDMDL
MODEL 5
REMARK VINA RESULT:      -6.6      2.386      5.480
REMARK  Name = 
REMARK  4 active torsions:
REMARK  status: ('A' for Active; 'I' for Inactive)
REMARK    1  A    between atoms: C_2  and  C_4
REMARK    2  A    between atoms: C_10  and  C_12
REMARK    3  A    between atoms: C_12  and  O_13
REMARK    4  A    between atoms: O_13  and  C_14
REMARK                            x       y       z     vdW  Elec       q    Type
REMARK                         _______ _______ _______ _____ _____    ______ ____
ROOT
ATOM      1  C   UNL     1       2.503   4.564  20.830  0.00  0.00    +0.000 C 
ATOM      2  C   UNL     1       1.286   5.474  20.603  0.00  0.00    +0.000 C 
ATOM      3  C   UNL     1       1.737   6.914  20.328  0.00  0.00    +0.000 C 
ATOM      4  C   UNL     1       2.748   6.972  19.181  0.00  0.00    +0.000 C 
ATOM      5  C   UNL     1       3.910   6.011  19.428  0.00  0.00    +0.000 C 
ATOM      6  N   UNL     1       3.413   4.653  19.658  0.00  0.00    +0.000 N 
ATOM      7  C   UNL     1       3.271   3.722  18.620  0.00  0.00    +0.000 C 
ATOM      8  O   UNL     1       2.778   2.616  18.838  0.00  0.00    +0.000 OA
ENDROOT
BRANCH   1  10
ATOM      9  N   UNL     1       0.846   2.743  21.058  0.00  0.00    +0.000 N 
ATOM     10  C   UNL     1       2.093   3.184  21.407  0.00  0.00    +0.000 C 
ATOM     11  O   UNL     1       2.872   2.426  21.982  0.00  0.00    +0.000 OA
ATOM     12  H   UNL     1       0.574   1.897  21.542  0.00  0.00    +0.000 HD
ATOM     13  H   UNL     1       0.126   3.458  21.037  0.00  0.00    +0.000 HD
ENDBRANCH   1  10
BRANCH   7  14
ATOM     14  C   UNL     1       3.782   4.109  17.210  0.00  0.00    +0.000 C 
BRANCH  14  15
ATOM     15  O   UNL     1       5.036   3.620  16.756  0.00  0.00    +0.000 OA
BRANCH  15  16
ATOM     16  C   UNL     1       6.082   4.577  16.694  0.00  0.00    +0.000 C 
ATOM     17  C   UNL     1       5.623   6.020  16.524  0.00  0.00    +0.000 C 
ATOM     18  C   UNL     1       6.836   6.825  16.970  0.00  0.00    +0.000 C 
ATOM     19  C   UNL     1       7.521   5.976  18.042  0.00  0.00    +0.000 C 
ATOM     20  C   UNL     1       6.804   4.628  18.037  0.00  0.00    +0.000 C 
ENDBRANCH  15  16
ENDBRANCH  14  15
ENDBRANCH   7  14
TORSDOF 4
ENDMDL
MODEL 6
REMARK VINA RESULT:      -6.6      2.002      5.189
REMARK  Name = 
REMARK  4 active torsions:
REMARK  status: ('A' for Active; 'I' for Inactive)
REMARK    1  A    between atoms: C_2  and  C_4
REMARK    2  A    between atoms: C_10  and  C_12
REMARK    3  A    between atoms: C_12  and  O_13
REMARK    4  A    between atoms: O_13  and  C_14
REMARK                            x       y       z     vdW  Elec       q    Type
REMARK                         _______ _______ _______ _____ _____    ______ ____
ROOT
ATOM      1  C   UNL     1       3.278   2.938  19.717  0.00  0.00    +0.000 C 
ATOM      2  C   UNL     1       2.521   2.534  18.443  0.00  0.00    +0.000 C 
ATOM      3  C   UNL     1       1.343   3.485  18.195  0.00  0.00    +0.000 C 
ATOM      4  C   UNL     1       1.797   4.945  18.182  0.00  0.00    +0.000 C 
ATOM      5  C   UNL     1       2.591   5.282  19.444  0.00  0.00    +0.000 C 
ATOM      6  N   UNL     1       3.713   4.356  19.607  0.00  0.00    +0.000 N 
ATOM      7  C   UNL     1       4.991   4.632  19.105  0.00  0.00    +0.000 C 
ATOM      8  O   UNL     1       5.891   3.797  19.193  0.00  0.00    +0.000 OA
ENDROOT
BRANCH   1  10
ATOM      9  N   UNL     1       4.625   0.927  19.212  0.00  0.00    +0.000 N 
ATOM     10  C   UNL     1       4.276   1.840  20.169  0.00  0.00    +0.000 C 
ATOM     11  O   UNL     1       4.877   1.864  21.242  0.00  0.00    +0.000 OA
ATOM     12  H   UNL     1       5.187   0.167  19.575  0.00  0.00    +0.000 HD
ATOM     13  H   UNL     1       3.869   0.631  18.603  0.00  0.00    +0.000 HD
ENDBRANCH   1  10
BRANCH   7  14
ATOM     14  C   UNL     1       5.248   6.023  18.474  0.00  0.00    +0.000 C 
BRANCH  14  15
ATOM     15  O   UNL     1       6.511   6.312  17.892  0.00  0.00    +0.000 OA
BRANCH  15  16
ATOM     16  C   UNL     1       6.634   6.009  16.511  0.00  0.00    +0.000 C 
ATOM     17  C   UNL     1       7.229   4.640  16.204  0.00  0.00    +0.000 C 
ATOM     18  C   UNL     1       6.803   4.392  14.764  0.00  0.00    +0.000 C 
ATOM     19  C   UNL     1       5.455   5.099  14.607  0.00  0.00    +0.000 C 
ATOM     20  C   UNL     1       5.245   5.899  15.889  0.00  0.00    +0.000 C 
ENDBRANCH  15  16
ENDBRANCH  14  15
ENDBRANCH   7  14
TORSDOF 4
ENDMDL
MODEL 7
REMARK VINA RESULT:      -6.6      2.498      5.534
REMARK  Name = 
REMARK  4 active torsions:
REMARK  status: ('A' for Active; 'I' for Inactive)
REMARK    1  A    between atoms: C_2  and  C_4
REMARK    2  A    between atoms: C_10  and  C_12
REMARK    3  A    between atoms: C_12  and  O_13
REMARK    4  A    between atoms: O_13  and  C_14
REMARK                            x       y       z     vdW  Elec       q    Type
REMARK                         _______ _______ _______ _____ _____    ______ ____
ROOT
ATOM      1  C   UNL     1       2.650   4.496  20.674  0.00  0.00    +0.000 C 
ATOM      2  C   UNL     1       1.680   5.485  20.011  0.00  0.00    +0.000 C 
ATOM      3  C   UNL     1       2.420   6.762  19.590  0.00  0.00    +0.000 C 
ATOM      4  C   UNL     1       3.634   6.441  18.716  0.00  0.00    +0.000 C 
ATOM      5  C   UNL     1       4.539   5.413  19.396  0.00  0.00    +0.000 C 
ATOM      6  N   UNL     1       3.779   4.212  19.747  0.00  0.00    +0.000 N 
ATOM      7  C   UNL     1       3.687   3.107  18.892  0.00  0.00    +0.000 C 
ATOM      8  O   UNL     1       2.977   2.146  19.187  0.00  0.00    +0.000 OA
ENDROOT
BRANCH   1  10
ATOM      9  N   UNL     1       0.710   2.970  20.816  0.00  0.00    +0.000 N 
ATOM     10  C   UNL     1       1.901   3.337  21.381  0.00  0.00    +0.000 C 
ATOM     11  O   UNL     1       2.395   2.648  22.271  0.00  0.00    +0.000 OA
ATOM     12  H   UNL     1       0.201   2.291  21.369  0.00  0.00    +0.000 HD
ATOM     13  H   UNL     1       0.140   3.738  20.475  0.00  0.00    +0.000 HD
ENDBRANCH   1  10
BRANCH   7  14
ATOM     14  C   UNL     1       4.530   3.111  17.592  0.00  0.00    +0.000 C 
BRANCH  14  15
ATOM     15  O   UNL     1       4.113   3.894  16.484  0.00  0.00    +0.000 OA
BRANCH  15  16
ATOM     16  C   UNL     1       5.132   4.648  15.846  0.00  0.00    +0.000 C 
ATOM     17  C   UNL     1       6.526   4.473  16.437  0.00  0.00    +0.000 C 
ATOM     18  C   UNL     1       7.440   4.962  15.323  0.00  0.00    +0.000 C 
ATOM     19  C   UNL     1       6.715   4.623  14.018  0.00  0.00    +0.000 C 
ATOM     20  C   UNL     1       5.325   4.139  14.421  0.00  0.00    +0.000 C 
ENDBRANCH  15  16
ENDBRANCH  14  15
ENDBRANCH   7  14
TORSDOF 4
ENDMDL
MODEL 8
REMARK VINA RESULT:      -6.5      2.636      5.745
REMARK  Name = 
REMARK  4 active torsions:
REMARK  status: ('A' for Active; 'I' for Inactive)
REMARK    1  A    between atoms: C_2  and  C_4
REMARK    2  A    between atoms: C_10  and  C_12
REMARK    3  A    between atoms: C_12  and  O_13
REMARK    4  A    between atoms: O_13  and  C_14
REMARK                            x       y       z     vdW  Elec       q    Type
REMARK                         _______ _______ _______ _____ _____    ______ ____
ROOT
ATOM      1  C   UNL     1       2.132   2.718  19.851  0.00  0.00    +0.000 C 
ATOM      2  C   UNL     1       3.379   2.125  19.178  0.00  0.00    +0.000 C 
ATOM      3  C   UNL     1       3.150   1.963  17.670  0.00  0.00    +0.000 C 
ATOM      4  C   UNL     1       2.696   3.277  17.031  0.00  0.00    +0.000 C 
ATOM      5  C   UNL     1       1.487   3.854  17.769  0.00  0.00    +0.000 C 
ATOM      6  N   UNL     1       1.781   4.006  19.195  0.00  0.00    +0.000 N 
ATOM      7  C   UNL     1       2.286   5.197  19.732  0.00  0.00    +0.000 C 
ATOM      8  O   UNL     1       2.593   5.263  20.922  0.00  0.00    +0.000 OA
ENDROOT
BRANCH   1  10
ATOM      9  N   UNL     1       1.013   2.744  22.055  0.00  0.00    +0.000 N 
ATOM     10  C   UNL     1       2.204   2.614  21.396  0.00  0.00    +0.000 C 
ATOM     11  O   UNL     1       3.207   2.253  22.010  0.00  0.00    +0.000 OA
ATOM     12  H   UNL     1       1.117   2.782  23.061  0.00  0.00    +0.000 HD
ATOM     13  H   UNL     1       0.385   3.447  21.676  0.00  0.00    +0.000 HD
ENDBRANCH   1  10
BRANCH   7  14
ATOM     14  C   UNL     1       2.410   6.429  18.802  0.00  0.00    +0.000 C 
BRANCH  14  15
ATOM     15  O   UNL     1       3.693   6.875  18.390  0.00  0.00    +0.000 OA
BRANCH  15  16
ATOM     16  C   UNL     1       4.445   5.952  17.617  0.00  0.00    +0.000 C 
ATOM     17  C   UNL     1       5.042   6.523  16.336  0.00  0.00    +0.000 C 
ATOM     18  C   UNL     1       6.140   5.527  15.991  0.00  0.00    +0.000 C 
ATOM     19  C   UNL     1       6.645   4.992  17.333  0.00  0.00    +0.000 C 
ATOM     20  C   UNL     1       5.691   5.537  18.392  0.00  0.00    +0.000 C 
ENDBRANCH  15  16
ENDBRANCH  14  15
ENDBRANCH   7  14
TORSDOF 4
ENDMDL
MODEL 9
REMARK VINA RESULT:      -6.5      2.099      5.451
REMARK  Name = 
REMARK  4 active torsions:
REMARK  status: ('A' for Active; 'I' for Inactive)
REMARK    1  A    between atoms: C_2  and  C_4
REMARK    2  A    between atoms: C_10  and  C_12
REMARK    3  A    between atoms: C_12  and  O_13
REMARK    4  A    between atoms: O_13  and  C_14
REMARK                            x       y       z     vdW  Elec       q    Type
REMARK                         _______ _______ _______ _____ _____    ______ ____
ROOT
ATOM      1  C   UNL     1       2.924   3.394  19.402  0.00  0.00    +0.000 C 
ATOM      2  C   UNL     1       1.571   4.112  19.524  0.00  0.00    +0.000 C 
ATOM      3  C   UNL     1       1.727   5.419  20.313  0.00  0.00    +0.000 C 
ATOM      4  C   UNL     1       2.821   6.305  19.714  0.00  0.00    +0.000 C 
ATOM      5  C   UNL     1       4.130   5.530  19.563  0.00  0.00    +0.000 C 
ATOM      6  N   UNL     1       3.917   4.310  18.781  0.00  0.00    +0.000 N 
ATOM      7  C   UNL     1       4.095   4.271  17.392  0.00  0.00    +0.000 C 
ATOM      8  O   UNL     1       3.834   3.250  16.757  0.00  0.00    +0.000 OA
ENDROOT
BRANCH   1  10
ATOM      9  N   UNL     1       1.571   1.658  18.275  0.00  0.00    +0.000 N 
ATOM     10  C   UNL     1       2.762   1.941  18.886  0.00  0.00    +0.000 C 
ATOM     11  O   UNL     1       3.682   1.126  18.840  0.00  0.00    +0.000 OA
ATOM     12  H   UNL     1       1.461   0.676  18.055  0.00  0.00    +0.000 HD
ATOM     13  H   UNL     1       0.755   2.080  18.707  0.00  0.00    +0.000 HD
ENDBRANCH   1  10
BRANCH   7  14
ATOM     14  C   UNL     1       4.663   5.529  16.688  0.00  0.00    +0.000 C 
BRANCH  14  15
ATOM     15  O   UNL     1       5.900   5.450  15.994  0.00  0.00    +0.000 OA
BRANCH  15  16
ATOM     16  C   UNL     1       7.040   5.883  16.720  0.00  0.00    +0.000 C 
ATOM     17  C   UNL     1       6.890   7.237  17.403  0.00  0.00    +0.000 C 
ATOM     18  C   UNL     1       7.992   7.220  18.453  0.00  0.00    +0.000 C 
ATOM     19  C   UNL     1       8.140   5.755  18.869  0.00  0.00    +0.000 C 
ATOM     20  C   UNL     1       7.269   4.952  17.907  0.00  0.00    +0.000 C 
ENDBRANCH  15  16
ENDBRANCH  14  15
ENDBRANCH   7  14
TORSDOF 4
ENDMDL
