MODEL 1
REMARK VINA RESULT:      -7.1      0.000      0.000
REMARK  Name = 
REMARK  4 active torsions:
REMARK  status: ('A' for Active; 'I' for Inactive)
REMARK    1  A    between atoms: N_1  and  C_2
REMARK    2  A    between atoms: C_2  and  C_3
REMARK    3  A    between atoms: C_3  and  N_4
REMARK    4  A    between atoms: C_9  and  N_10
REMARK                            x       y       z     vdW  Elec       q    Type
REMARK                         _______ _______ _______ _____ _____    ______ ____
ROOT
ATOM      1  N   UNL     1       4.634   4.702  17.241  0.00  0.00    +0.000 N 
ATOM      2  N   UNL     1       4.192   5.977  17.093  0.00  0.00    +0.000 NA
ATOM      3  C   UNL     1       3.406   6.170  18.164  0.00  0.00    +0.000 A 
ATOM      4  C   UNL     1       3.380   5.031  18.992  0.00  0.00    +0.000 A 
ATOM      5  C   UNL     1       2.720   4.760  20.192  0.00  0.00    +0.000 A 
ATOM      6  C   UNL     1       2.914   3.507  20.801  0.00  0.00    +0.000 A 
ATOM      7  C   UNL     1       3.699   2.545  20.146  0.00  0.00    +0.000 A 
ATOM      8  C   UNL     1       4.368   2.814  18.938  0.00  0.00    +0.000 A 
ATOM      9  C   UNL     1       4.183   4.083  18.382  0.00  0.00    +0.000 A 
ATOM     10  S   UNL     1       1.719   6.065  20.858  0.00  0.00    +0.000 S 
ATOM     11  C   UNL     1       1.887   7.421  19.673  0.00  0.00    +0.000 A 
ATOM     12  C   UNL     1       1.178   8.593  19.983  0.00  0.00    +0.000 A 
ATOM     13  C   UNL     1       1.223   9.699  19.134  0.00  0.00    +0.000 A 
ATOM     14  C   UNL     1       1.977   9.650  17.963  0.00  0.00    +0.000 A 
ATOM     15  C   UNL     1       2.694   8.496  17.640  0.00  0.00    +0.000 A 
ATOM     16  C   UNL     1       2.659   7.379  18.486  0.00  0.00    +0.000 A 
ENDROOT
BRANCH   6  17
ATOM     17  N   UNL     1       2.164   3.127  21.931  0.00  0.00    +0.000 N 
ATOM     18  H   UNL     1       2.124   3.866  22.630  0.00  0.00    +0.000 HD
ATOM     19  H   UNL     1       2.427   2.227  22.321  0.00  0.00    +0.000 HD
ENDBRANCH   6  17
BRANCH   1  20
ATOM     20  C   UNL     1       5.490   4.122  16.220  0.00  0.00    +0.000 C 
BRANCH  20  21
ATOM     21  C   UNL     1       6.958   4.485  16.438  0.00  0.00    +0.000 C 
BRANCH  21  22
ATOM     22  N   UNL     1       7.243   5.868  16.041  0.00  0.00    +0.000 NA
ATOM     23  H   UNL     1       6.815   6.504  16.717  0.00  0.00    +0.000 HD
ATOM     24  H   UNL     1       6.787   6.069  15.151  0.00  0.00    +0.000 HD
ENDBRANCH  21  22
ENDBRANCH  20  21
ENDBRANCH   1  20
TORSDOF 4
ENDMDL
MODEL 2
REMARK VINA RESULT:      -7.1      2.093      4.816
REMARK  Name = 
REMARK  4 active torsions:
REMARK  status: ('A' for Active; 'I' for Inactive)
REMARK    1  A    between atoms: N_1  and  C_2
REMARK    2  A    between atoms: C_2  and  C_3
REMARK    3  A    between atoms: C_3  and  N_4
REMARK    4  A    between atoms: C_9  and  N_10
REMARK                            x       y       z     vdW  Elec       q    Type
REMARK                         _______ _______ _______ _____ _____    ______ ____
ROOT
ATOM      1  N   UNL     1       2.417   7.506  18.885  0.00  0.00    +0.000 N 
ATOM      2  N   UNL     1       3.207   7.440  17.782  0.00  0.00    +0.000 NA
ATOM      3  C   UNL     1       3.671   6.181  17.796  0.00  0.00    +0.000 A 
ATOM      4  C   UNL     1       3.152   5.455  18.886  0.00  0.00    +0.000 A 
ATOM      5  C   UNL     1       3.339   4.138  19.309  0.00  0.00    +0.000 A 
ATOM      6  C   UNL     1       2.650   3.692  20.452  0.00  0.00    +0.000 A 
ATOM      7  C   UNL     1       1.860   4.603  21.171  0.00  0.00    +0.000 A 
ATOM      8  C   UNL     1       1.667   5.931  20.747  0.00  0.00    +0.000 A 
ATOM      9  C   UNL     1       2.337   6.328  19.586  0.00  0.00    +0.000 A 
ATOM     10  S   UNL     1       4.415   3.133  18.320  0.00  0.00    +0.000 S 
ATOM     11  C   UNL     1       4.966   4.226  16.987  0.00  0.00    +0.000 A 
ATOM     12  C   UNL     1       5.841   3.653  16.051  0.00  0.00    +0.000 A 
ATOM     13  C   UNL     1       6.340   4.405  14.988  0.00  0.00    +0.000 A 
ATOM     14  C   UNL     1       5.972   5.742  14.846  0.00  0.00    +0.000 A 
ATOM     15  C   UNL     1       5.099   6.329  15.764  0.00  0.00    +0.000 A 
ATOM     16  C   UNL     1       4.588   5.582  16.834  0.00  0.00    +0.000 A 
ENDROOT
BRANCH   6  17
ATOM     17  N   UNL     1       2.911   2.423  21.006  0.00  0.00    +0.000 N 
ATOM     18  H   UNL     1       2.194   1.743  20.762  0.00  0.00    +0.000 HD
ATOM     19  H   UNL     1       3.121   2.439  21.999  0.00  0.00    +0.000 HD
ENDBRANCH   6  17
BRANCH   1  20
ATOM     20  C   UNL     1       1.771   8.763  19.223  0.00  0.00    +0.000 C 
BRANCH  20  21
ATOM     21  C   UNL     1       1.189   9.450  17.988  0.00  0.00    +0.000 C 
BRANCH  21  22
ATOM     22  N   UNL     1       2.075  10.503  17.480  0.00  0.00    +0.000 NA
ATOM     23  H   UNL     1       1.817  10.719  16.515  0.00  0.00    +0.000 HD
ATOM     24  H   UNL     1       3.032  10.150  17.433  0.00  0.00    +0.000 HD
ENDBRANCH  21  22
ENDBRANCH  20  21
ENDBRANCH   1  20
TORSDOF 4
ENDMDL
MODEL 3
REMARK VINA RESULT:      -6.6      1.654      4.238
REMARK  Name = 
REMARK  4 active torsions:
REMARK  status: ('A' for Active; 'I' for Inactive)
REMARK    1  A    between atoms: N_1  and  C_2
REMARK    2  A    between atoms: C_2  and  C_3
REMARK    3  A    between atoms: C_3  and  N_4
REMARK    4  A    between atoms: C_9  and  N_10
REMARK                            x       y       z     vdW  Elec       q    Type
REMARK                         _______ _______ _______ _____ _____    ______ ____
ROOT
ATOM      1  N   UNL     1       3.068   4.147  20.115  0.00  0.00    +0.000 N 
ATOM      2  N   UNL     1       2.285   5.126  20.636  0.00  0.00    +0.000 NA
ATOM      3  C   UNL     1       2.444   6.150  19.784  0.00  0.00    +0.000 A 
ATOM      4  C   UNL     1       3.300   5.804  18.720  0.00  0.00    +0.000 A 
ATOM      5  C   UNL     1       3.754   6.520  17.611  0.00  0.00    +0.000 A 
ATOM      6  C   UNL     1       4.606   5.877  16.694  0.00  0.00    +0.000 A 
ATOM      7  C   UNL     1       5.031   4.566  16.962  0.00  0.00    +0.000 A 
ATOM      8  C   UNL     1       4.573   3.839  18.077  0.00  0.00    +0.000 A 
ATOM      9  C   UNL     1       3.698   4.498  18.946  0.00  0.00    +0.000 A 
ATOM     10  S   UNL     1       3.168   8.187  17.450  0.00  0.00    +0.000 S 
ATOM     11  C   UNL     1       2.095   8.436  18.886  0.00  0.00    +0.000 A 
ATOM     12  C   UNL     1       1.494   9.701  18.986  0.00  0.00    +0.000 A 
ATOM     13  C   UNL     1       0.658  10.010  20.059  0.00  0.00    +0.000 A 
ATOM     14  C   UNL     1       0.410   9.058  21.046  0.00  0.00    +0.000 A 
ATOM     15  C   UNL     1       0.993   7.793  20.962  0.00  0.00    +0.000 A 
ATOM     16  C   UNL     1       1.833   7.469  19.887  0.00  0.00    +0.000 A 
ENDROOT
BRANCH   6  17
ATOM     17  N   UNL     1       5.208   6.592  15.641  0.00  0.00    +0.000 N 
ATOM     18  H   UNL     1       4.588   7.301  15.255  0.00  0.00    +0.000 HD
ATOM     19  H   UNL     1       5.631   6.006  14.929  0.00  0.00    +0.000 HD
ENDBRANCH   6  17
BRANCH   1  20
ATOM     20  C   UNL     1       3.182   2.878  20.815  0.00  0.00    +0.000 C 
BRANCH  20  21
ATOM     21  C   UNL     1       1.901   2.534  21.574  0.00  0.00    +0.000 C 
BRANCH  21  22
ATOM     22  N   UNL     1       0.708   2.700  20.737  0.00  0.00    +0.000 NA
ATOM     23  H   UNL     1       0.760   3.601  20.258  0.00  0.00    +0.000 HD
ATOM     24  H   UNL     1      -0.120   2.754  21.331  0.00  0.00    +0.000 HD
ENDBRANCH  21  22
ENDBRANCH  20  21
ENDBRANCH   1  20
TORSDOF 4
ENDMDL
MODEL 4
REMARK VINA RESULT:      -6.4      2.443      4.983
REMARK  Name = 
REMARK  4 active torsions:
REMARK  status: ('A' for Active; 'I' for Inactive)
REMARK    1  A    between atoms: N_1  and  C_2
REMARK    2  A    between atoms: C_2  and  C_3
REMARK    3  A    between atoms: C_3  and  N_4
REMARK    4  A    between atoms: C_9  and  N_10
REMARK                            x       y       z     vdW  Elec       q    Type
REMARK                         _______ _______ _______ _____ _____    ______ ____
ROOT
ATOM      1  N   UNL     1       2.341   6.888  19.362  0.00  0.00    +0.000 N 
ATOM      2  N   UNL     1       3.245   7.067  18.365  0.00  0.00    +0.000 NA
ATOM      3  C   UNL     1       3.526   5.819  17.959  0.00  0.00    +0.000 A 
ATOM      4  C   UNL     1       2.780   4.866  18.680  0.00  0.00    +0.000 A 
ATOM      5  C   UNL     1       2.728   3.473  18.616  0.00  0.00    +0.000 A 
ATOM      6  C   UNL     1       1.848   2.789  19.475  0.00  0.00    +0.000 A 
ATOM      7  C   UNL     1       1.108   3.522  20.417  0.00  0.00    +0.000 A 
ATOM      8  C   UNL     1       1.154   4.927  20.483  0.00  0.00    +0.000 A 
ATOM      9  C   UNL     1       2.012   5.574  19.589  0.00  0.00    +0.000 A 
ATOM     10  S   UNL     1       3.770   2.696  17.408  0.00  0.00    +0.000 S 
ATOM     11  C   UNL     1       4.628   4.066  16.595  0.00  0.00    +0.000 A 
ATOM     12  C   UNL     1       5.525   3.705  15.577  0.00  0.00    +0.000 A 
ATOM     13  C   UNL     1       6.252   4.677  14.889  0.00  0.00    +0.000 A 
ATOM     14  C   UNL     1       6.093   6.024  15.210  0.00  0.00    +0.000 A 
ATOM     15  C   UNL     1       5.202   6.404  16.215  0.00  0.00    +0.000 A 
ATOM     16  C   UNL     1       4.463   5.436  16.911  0.00  0.00    +0.000 A 
ENDROOT
BRANCH   6  17
ATOM     17  N   UNL     1       1.860   1.383  19.555  0.00  0.00    +0.000 N 
ATOM     18  H   UNL     1       1.462   1.046  20.429  0.00  0.00    +0.000 HD
ATOM     19  H   UNL     1       2.759   0.963  19.341  0.00  0.00    +0.000 HD
ENDBRANCH   6  17
BRANCH   1  20
ATOM     20  C   UNL     1       1.838   8.046  20.082  0.00  0.00    +0.000 C 
BRANCH  20  21
ATOM     21  C   UNL     1       1.401   9.159  19.131  0.00  0.00    +0.000 C 
BRANCH  21  22
ATOM     22  N   UNL     1       0.314   9.966  19.696  0.00  0.00    +0.000 NA
ATOM     23  H   UNL     1       0.703  10.609  20.389  0.00  0.00    +0.000 HD
ATOM     24  H   UNL     1      -0.326   9.362  20.212  0.00  0.00    +0.000 HD
ENDBRANCH  21  22
ENDBRANCH  20  21
ENDBRANCH   1  20
TORSDOF 4
ENDMDL
MODEL 5
REMARK VINA RESULT:      -6.4      2.208      5.407
REMARK  Name = 
REMARK  4 active torsions:
REMARK  status: ('A' for Active; 'I' for Inactive)
REMARK    1  A    between atoms: N_1  and  C_2
REMARK    2  A    between atoms: C_2  and  C_3
REMARK    3  A    between atoms: C_3  and  N_4
REMARK    4  A    between atoms: C_9  and  N_10
REMARK                            x       y       z     vdW  Elec       q    Type
REMARK                         _______ _______ _______ _____ _____    ______ ____
ROOT
ATOM      1  N   UNL     1       2.964   7.521  18.020  0.00  0.00    +0.000 N 
ATOM      2  N   UNL     1       2.392   6.846  19.049  0.00  0.00    +0.000 NA
ATOM      3  C   UNL     1       2.942   5.624  18.976  0.00  0.00    +0.000 A 
ATOM      4  C   UNL     1       3.874   5.545  17.922  0.00  0.00    +0.000 A 
ATOM      5  C   UNL     1       4.682   4.504  17.463  0.00  0.00    +0.000 A 
ATOM      6  C   UNL     1       5.543   4.746  16.376  0.00  0.00    +0.000 A 
ATOM      7  C   UNL     1       5.504   5.998  15.742  0.00  0.00    +0.000 A 
ATOM      8  C   UNL     1       4.693   7.051  16.203  0.00  0.00    +0.000 A 
ATOM      9  C   UNL     1       3.880   6.785  17.309  0.00  0.00    +0.000 A 
ATOM     10  S   UNL     1       4.569   2.965  18.340  0.00  0.00    +0.000 S 
ATOM     11  C   UNL     1       3.345   3.268  19.638  0.00  0.00    +0.000 A 
ATOM     12  C   UNL     1       3.075   2.183  20.487  0.00  0.00    +0.000 A 
ATOM     13  C   UNL     1       2.140   2.297  21.515  0.00  0.00    +0.000 A 
ATOM     14  C   UNL     1       1.461   3.499  21.710  0.00  0.00    +0.000 A 
ATOM     15  C   UNL     1       1.719   4.592  20.880  0.00  0.00    +0.000 A 
ATOM     16  C   UNL     1       2.659   4.490  19.845  0.00  0.00    +0.000 A 
ENDROOT
BRANCH   6  17
ATOM     17  N   UNL     1       6.271   3.697  15.781  0.00  0.00    +0.000 N 
ATOM     18  H   UNL     1       6.914   4.034  15.067  0.00  0.00    +0.000 HD
ATOM     19  H   UNL     1       5.698   2.922  15.463  0.00  0.00    +0.000 HD
ENDBRANCH   6  17
BRANCH   1  20
ATOM     20  C   UNL     1       2.563   8.894  17.759  0.00  0.00    +0.000 C 
BRANCH  20  21
ATOM     21  C   UNL     1       1.390   9.319  18.641  0.00  0.00    +0.000 C 
BRANCH  21  22
ATOM     22  N   UNL     1       0.340   9.991  17.868  0.00  0.00    +0.000 NA
ATOM     23  H   UNL     1       0.564  10.986  17.798  0.00  0.00    +0.000 HD
ATOM     24  H   UNL     1      -0.542   9.946  18.379  0.00  0.00    +0.000 HD
ENDBRANCH  21  22
ENDBRANCH  20  21
ENDBRANCH   1  20
TORSDOF 4
ENDMDL
MODEL 6
REMARK VINA RESULT:      -6.3      2.251      5.401
REMARK  Name = 
REMARK  4 active torsions:
REMARK  status: ('A' for Active; 'I' for Inactive)
REMARK    1  A    between atoms: N_1  and  C_2
REMARK    2  A    between atoms: C_2  and  C_3
REMARK    3  A    between atoms: C_3  and  N_4
REMARK    4  A    between atoms: C_9  and  N_10
REMARK                            x       y       z     vdW  Elec       q    Type
REMARK                         _______ _______ _______ _____ _____    ______ ____
ROOT
ATOM      1  N   UNL     1       2.607   4.563  20.627  0.00  0.00    +0.000 N 
ATOM      2  N   UNL     1       3.464   4.100  19.682  0.00  0.00    +0.000 NA
ATOM      3  C   UNL     1       3.589   5.130  18.830  0.00  0.00    +0.000 A 
ATOM      4  C   UNL     1       2.835   6.241  19.257  0.00  0.00    +0.000 A 
ATOM      5  C   UNL     1       2.653   7.514  18.714  0.00  0.00    +0.000 A 
ATOM      6  C   UNL     1       1.836   8.431  19.401  0.00  0.00    +0.000 A 
ATOM      7  C   UNL     1       1.170   8.012  20.564  0.00  0.00    +0.000 A 
ATOM      8  C   UNL     1       1.352   6.730  21.117  0.00  0.00    +0.000 A 
ATOM      9  C   UNL     1       2.201   5.860  20.427  0.00  0.00    +0.000 A 
ATOM     10  S   UNL     1       3.521   7.865  17.207  0.00  0.00    +0.000 S 
ATOM     11  C   UNL     1       4.422   6.340  16.833  0.00  0.00    +0.000 A 
ATOM     12  C   UNL     1       5.203   6.365  15.667  0.00  0.00    +0.000 A 
ATOM     13  C   UNL     1       5.931   5.243  15.272  0.00  0.00    +0.000 A 
ATOM     14  C   UNL     1       5.888   4.079  16.038  0.00  0.00    +0.000 A 
ATOM     15  C   UNL     1       5.121   4.036  17.204  0.00  0.00    +0.000 A 
ATOM     16  C   UNL     1       4.388   5.159  17.613  0.00  0.00    +0.000 A 
ENDROOT
BRANCH   6  17
ATOM     17  N   UNL     1       1.502   9.674  18.829  0.00  0.00    +0.000 N 
ATOM     18  H   UNL     1       0.495   9.804  18.756  0.00  0.00    +0.000 HD
ATOM     19  H   UNL     1       1.991   9.878  17.964  0.00  0.00    +0.000 HD
ENDBRANCH   6  17
BRANCH   1  20
ATOM     20  C   UNL     1       2.196   3.682  21.708  0.00  0.00    +0.000 C 
BRANCH  20  21
ATOM     21  C   UNL     1       1.333   2.527  21.200  0.00  0.00    +0.000 C 
BRANCH  21  22
ATOM     22  N   UNL     1       0.494   2.930  20.066  0.00  0.00    +0.000 NA
ATOM     23  H   UNL     1      -0.281   3.499  20.411  0.00  0.00    +0.000 HD
ATOM     24  H   UNL     1       0.062   2.103  19.652  0.00  0.00    +0.000 HD
ENDBRANCH  21  22
ENDBRANCH  20  21
ENDBRANCH   1  20
TORSDOF 4
ENDMDL
MODEL 7
REMARK VINA RESULT:      -6.2      1.830      3.987
REMARK  Name = 
REMARK  4 active torsions:
REMARK  status: ('A' for Active; 'I' for Inactive)
REMARK    1  A    between atoms: N_1  and  C_2
REMARK    2  A    between atoms: C_2  and  C_3
REMARK    3  A    between atoms: C_3  and  N_4
REMARK    4  A    between atoms: C_9  and  N_10
REMARK                            x       y       z     vdW  Elec       q    Type
REMARK                         _______ _______ _______ _____ _____    ______ ____
ROOT
ATOM      1  N   UNL     1       3.750   3.769  19.512  0.00  0.00    +0.000 N 
ATOM      2  N   UNL     1       2.905   4.562  20.219  0.00  0.00    +0.000 NA
ATOM      3  C   UNL     1       2.880   5.707  19.520  0.00  0.00    +0.000 A 
ATOM      4  C   UNL     1       3.684   5.621  18.367  0.00  0.00    +0.000 A 
ATOM      5  C   UNL     1       3.967   6.535  17.351  0.00  0.00    +0.000 A 
ATOM      6  C   UNL     1       4.811   6.136  16.298  0.00  0.00    +0.000 A 
ATOM      7  C   UNL     1       5.400   4.862  16.343  0.00  0.00    +0.000 A 
ATOM      8  C   UNL     1       5.116   3.936  17.363  0.00  0.00    +0.000 A 
ATOM      9  C   UNL     1       4.243   4.354  18.372  0.00  0.00    +0.000 A 
ATOM     10  S   UNL     1       3.185   8.123  17.474  0.00  0.00    +0.000 S 
ATOM     11  C   UNL     1       2.207   8.036  18.994  0.00  0.00    +0.000 A 
ATOM     12  C   UNL     1       1.478   9.191  19.317  0.00  0.00    +0.000 A 
ATOM     13  C   UNL     1       0.698   9.242  20.472  0.00  0.00    +0.000 A 
ATOM     14  C   UNL     1       0.637   8.139  21.321  0.00  0.00    +0.000 A 
ATOM     15  C   UNL     1       1.350   6.978  21.015  0.00  0.00    +0.000 A 
ATOM     16  C   UNL     1       2.135   6.914  19.855  0.00  0.00    +0.000 A 
ENDROOT
BRANCH   6  17
ATOM     17  N   UNL     1       5.245   7.059  15.327  0.00  0.00    +0.000 N 
ATOM     18  H   UNL     1       5.186   6.680  14.384  0.00  0.00    +0.000 HD
ATOM     19  H   UNL     1       6.145   7.481  15.529  0.00  0.00    +0.000 HD
ENDBRANCH   6  17
BRANCH   1  20
ATOM     20  C   UNL     1       4.060   2.438  20.008  0.00  0.00    +0.000 C 
BRANCH  20  21
ATOM     21  C   UNL     1       3.482   1.349  19.106  0.00  0.00    +0.000 C 
BRANCH  21  22
ATOM     22  N   UNL     1       2.089   1.625  18.739  0.00  0.00    +0.000 NA
ATOM     23  H   UNL     1       1.734   2.382  19.326  0.00  0.00    +0.000 HD
ATOM     24  H   UNL     1       1.510   0.814  18.962  0.00  0.00    +0.000 HD
ENDBRANCH  21  22
ENDBRANCH  20  21
ENDBRANCH   1  20
TORSDOF 4
ENDMDL
MODEL 8
REMARK VINA RESULT:      -5.9      1.822      3.899
REMARK  Name = 
REMARK  4 active torsions:
REMARK  status: ('A' for Active; 'I' for Inactive)
REMARK    1  A    between atoms: N_1  and  C_2
REMARK    2  A    between atoms: C_2  and  C_3
REMARK    3  A    between atoms: C_3  and  N_4
REMARK    4  A    between atoms: C_9  and  N_10
REMARK                            x       y       z     vdW  Elec       q    Type
REMARK                         _______ _______ _______ _____ _____    ______ ____
ROOT
ATOM      1  N   UNL     1       2.988   3.809  19.721  0.00  0.00    +0.000 N 
ATOM      2  N   UNL     1       2.226   4.721  20.377  0.00  0.00    +0.000 NA
ATOM      3  C   UNL     1       2.401   5.850  19.674  0.00  0.00    +0.000 A 
ATOM      4  C   UNL     1       3.247   5.639  18.568  0.00  0.00    +0.000 A 
ATOM      5  C   UNL     1       3.712   6.493  17.567  0.00  0.00    +0.000 A 
ATOM      6  C   UNL     1       4.549   5.968  16.565  0.00  0.00    +0.000 A 
ATOM      7  C   UNL     1       4.950   4.625  16.647  0.00  0.00    +0.000 A 
ATOM      8  C   UNL     1       4.482   3.759  17.652  0.00  0.00    +0.000 A 
ATOM      9  C   UNL     1       3.622   4.307  18.609  0.00  0.00    +0.000 A 
ATOM     10  S   UNL     1       3.157   8.177  17.640  0.00  0.00    +0.000 S 
ATOM     11  C   UNL     1       2.093   8.244  19.103  0.00  0.00    +0.000 A 
ATOM     12  C   UNL     1       1.517   9.494  19.380  0.00  0.00    +0.000 A 
ATOM     13  C   UNL     1       0.689   9.667  20.489  0.00  0.00    +0.000 A 
ATOM     14  C   UNL     1       0.426   8.593  21.337  0.00  0.00    +0.000 A 
ATOM     15  C   UNL     1       0.985   7.340  21.075  0.00  0.00    +0.000 A 
ATOM     16  C   UNL     1       1.816   7.153  19.962  0.00  0.00    +0.000 A 
ENDROOT
BRANCH   6  17
ATOM     17  N   UNL     1       5.163   6.810  15.617  0.00  0.00    +0.000 N 
ATOM     18  H   UNL     1       5.297   7.754  15.974  0.00  0.00    +0.000 HD
ATOM     19  H   UNL     1       4.727   6.792  14.701  0.00  0.00    +0.000 HD
ENDBRANCH   6  17
BRANCH   1  20
ATOM     20  C   UNL     1       3.080   2.454  20.239  0.00  0.00    +0.000 C 
BRANCH  20  21
ATOM     21  C   UNL     1       4.450   2.174  20.854  0.00  0.00    +0.000 C 
BRANCH  21  22
ATOM     22  N   UNL     1       5.217   1.205  20.064  0.00  0.00    +0.000 NA
ATOM     23  H   UNL     1       5.166   1.465  19.077  0.00  0.00    +0.000 HD
ATOM     24  H   UNL     1       4.774   0.287  20.127  0.00  0.00    +0.000 HD
ENDBRANCH  21  22
ENDBRANCH  20  21
ENDBRANCH   1  20
TORSDOF 4
ENDMDL
MODEL 9
REMARK VINA RESULT:      -5.9      2.139      5.399
REMARK  Name = 
REMARK  4 active torsions:
REMARK  status: ('A' for Active; 'I' for Inactive)
REMARK    1  A    between atoms: N_1  and  C_2
REMARK    2  A    between atoms: C_2  and  C_3
REMARK    3  A    between atoms: C_3  and  N_4
REMARK    4  A    between atoms: C_9  and  N_10
REMARK                            x       y       z     vdW  Elec       q    Type
REMARK                         _______ _______ _______ _____ _____    ______ ____
ROOT
ATOM      1  N   UNL     1       3.310   3.662  20.051  0.00  0.00    +0.000 N 
ATOM      2  N   UNL     1       4.135   3.362  19.016  0.00  0.00    +0.000 NA
ATOM      3  C   UNL     1       4.151   4.486  18.282  0.00  0.00    +0.000 A 
ATOM      4  C   UNL     1       3.362   5.492  18.871  0.00  0.00    +0.000 A 
ATOM      5  C   UNL     1       3.076   6.804  18.488  0.00  0.00    +0.000 A 
ATOM      6  C   UNL     1       2.250   7.585  19.317  0.00  0.00    +0.000 A 
ATOM      7  C   UNL     1       1.678   6.999  20.457  0.00  0.00    +0.000 A 
ATOM      8  C   UNL     1       1.965   5.678  20.849  0.00  0.00    +0.000 A 
ATOM      9  C   UNL     1       2.821   4.945  20.022  0.00  0.00    +0.000 A 
ATOM     10  S   UNL     1       3.833   7.374  16.988  0.00  0.00    +0.000 S 
ATOM     11  C   UNL     1       4.796   5.961  16.395  0.00  0.00    +0.000 A 
ATOM     12  C   UNL     1       5.505   6.164  15.201  0.00  0.00    +0.000 A 
ATOM     13  C   UNL     1       6.271   5.140  14.643  0.00  0.00    +0.000 A 
ATOM     14  C   UNL     1       6.339   3.899  15.273  0.00  0.00    +0.000 A 
ATOM     15  C   UNL     1       5.646   3.678  16.464  0.00  0.00    +0.000 A 
ATOM     16  C   UNL     1       4.875   4.700  17.036  0.00  0.00    +0.000 A 
ENDROOT
BRANCH   6  17
ATOM     17  N   UNL     1       1.813   8.861  18.909  0.00  0.00    +0.000 N 
ATOM     18  H   UNL     1       1.408   9.391  19.677  0.00  0.00    +0.000 HD
ATOM     19  H   UNL     1       1.226   8.853  18.081  0.00  0.00    +0.000 HD
ENDBRANCH   6  17
BRANCH   1  20
ATOM     20  C   UNL     1       3.014   2.642  21.043  0.00  0.00    +0.000 C 
BRANCH  20  21
ATOM     21  C   UNL     1       1.525   2.303  21.080  0.00  0.00    +0.000 C 
BRANCH  21  22
ATOM     22  N   UNL     1       0.960   2.465  22.424  0.00  0.00    +0.000 NA
ATOM     23  H   UNL     1      -0.055   2.360  22.374  0.00  0.00    +0.000 HD
ATOM     24  H   UNL     1       1.119   3.420  22.748  0.00  0.00    +0.000 HD
ENDBRANCH  21  22
ENDBRANCH  20  21
ENDBRANCH   1  20
TORSDOF 4
ENDMDL
