MODEL 1
REMARK VINA RESULT:      -7.8      0.000      0.000
REMARK  Name = 
REMARK  13 active torsions:
REMARK  status: ('A' for Active; 'I' for Inactive)
REMARK    1  A    between atoms: C_2  and  O_3
REMARK    2  A    between atoms: C_2  and  C_4
REMARK    3  A    between atoms: C_4  and  C_5
REMARK    4  A    between atoms: C_5  and  C_6
REMARK    5  A    between atoms: C_6  and  C_7
REMARK    6  A    between atoms: C_7  and  C_8
REMARK    7  A    between atoms: C_14  and  O_15
REMARK    8  A    between atoms: C_16  and  C_17
REMARK    9  A    between atoms: C_18  and  C_19
REMARK   10  A    between atoms: C_19  and  O_20
REMARK   11  A    between atoms: C_19  and  C_21
REMARK   12  A    between atoms: C_21  and  O_22
REMARK   13  A    between atoms: O_22  and  C_23
REMARK                            x       y       z     vdW  Elec       q    Type
REMARK                         _______ _______ _______ _____ _____    ______ ____
ROOT
ATOM      1  C   UNL     1       4.073   3.570  17.100  0.00  0.00    +0.000 C 
ATOM      2  C   UNL     1       4.488   4.852  16.365  0.00  0.00    +0.000 C 
ATOM      3  C   UNL     1       4.300   6.155  17.144  0.00  0.00    +0.000 C 
ATOM      4  C   UNL     1       5.419   6.486  18.138  0.00  0.00    +0.000 C 
ATOM      5  C   UNL     1       5.542   5.525  19.327  0.00  0.00    +0.000 C 
ATOM      6  C   UNL     1       7.019   5.170  19.500  0.00  0.00    +0.000 C 
ATOM      7  C   UNL     1       7.732   5.585  18.218  0.00  0.00    +0.000 C 
ATOM      8  C   UNL     1       6.821   6.584  17.484  0.00  0.00    +0.000 C 
ATOM      9  O   UNL     1       4.625   4.440  19.349  0.00  0.00    +0.000 OA
ATOM     10  C   UNL     1       4.810   3.375  18.433  0.00  0.00    +0.000 C 
ENDROOT
BRANCH   7  11
ATOM     11  O   UNL     1       8.035   4.453  17.407  0.00  0.00    +0.000 OA
ATOM     12  H   UNL     1       8.365   3.735  17.969  0.00  0.00    +0.000 HD
ENDBRANCH   7  11
BRANCH   8  13
ATOM     13  C   UNL     1       7.453   7.953  17.433  0.00  0.00    +0.000 C 
ATOM     14  C   UNL     1       8.285   8.511  18.326  0.00  0.00    +0.000 C 
BRANCH  14  15
ATOM     15  C   UNL     1       8.906   9.879  18.171  0.00  0.00    +0.000 C 
BRANCH  15  16
ATOM     16  O   UNL     1       7.952  10.771  17.585  0.00  0.00    +0.000 OA
ATOM     17  H   UNL     1       8.399  11.247  16.870  0.00  0.00    +0.000 HD
ENDBRANCH  15  16
BRANCH  15  18
ATOM     18  C   UNL     1       9.380  10.425  19.530  0.00  0.00    +0.000 C 
BRANCH  18  19
ATOM     19  O   UNL     1      10.705  10.945  19.390  0.00  0.00    +0.000 OA
BRANCH  19  20
ATOM     20  C   UNL     1      10.815  12.297  19.560  0.00  0.00    +0.000 A 
ATOM     21  C   UNL     1      12.096  12.817  19.362  0.00  0.00    +0.000 A 
ATOM     22  C   UNL     1      12.331  14.183  19.516  0.00  0.00    +0.000 A 
ATOM     23  C   UNL     1      11.282  15.037  19.851  0.00  0.00    +0.000 A 
ATOM     24  C   UNL     1       9.996  14.525  20.024  0.00  0.00    +0.000 A 
ATOM     25  C   UNL     1       9.764  13.157  19.875  0.00  0.00    +0.000 A 
ENDBRANCH  19  20
ENDBRANCH  18  19
ENDBRANCH  15  18
ENDBRANCH  14  15
ENDBRANCH   8  13
BRANCH   1  26
ATOM     26  C   UNL     1       2.546   3.452  17.284  0.00  0.00    +0.000 C 
BRANCH  26  27
ATOM     27  C   UNL     1       2.157   2.372  18.302  0.00  0.00    +0.000 C 
BRANCH  27  28
ATOM     28  C   UNL     1       0.986   2.806  19.179  0.00  0.00    +0.000 C 
BRANCH  28  29
ATOM     29  C   UNL     1       1.476   3.669  20.341  0.00  0.00    +0.000 C 
BRANCH  29  31
ATOM     30  O   UNL     1       1.261   2.386  22.394  0.00  0.00    +0.000 OA
ATOM     31  C   UNL     1       1.960   2.835  21.501  0.00  0.00    +0.000 C 
BRANCH  31  32
ATOM     32  O   UNL     1       3.298   2.624  21.454  0.00  0.00    +0.000 OA
ATOM     33  H   UNL     1       3.812   3.229  22.021  0.00  0.00    +0.000 HD
ENDBRANCH  31  32
ENDBRANCH  29  31
ENDBRANCH  28  29
ENDBRANCH  27  28
ENDBRANCH  26  27
ENDBRANCH   1  26
TORSDOF 13
ENDMDL
MODEL 2
REMARK VINA RESULT:      -7.7      0.959      1.307
REMARK  Name = 
REMARK  13 active torsions:
REMARK  status: ('A' for Active; 'I' for Inactive)
REMARK    1  A    between atoms: C_2  and  O_3
REMARK    2  A    between atoms: C_2  and  C_4
REMARK    3  A    between atoms: C_4  and  C_5
REMARK    4  A    between atoms: C_5  and  C_6
REMARK    5  A    between atoms: C_6  and  C_7
REMARK    6  A    between atoms: C_7  and  C_8
REMARK    7  A    between atoms: C_14  and  O_15
REMARK    8  A    between atoms: C_16  and  C_17
REMARK    9  A    between atoms: C_18  and  C_19
REMARK   10  A    between atoms: C_19  and  O_20
REMARK   11  A    between atoms: C_19  and  C_21
REMARK   12  A    between atoms: C_21  and  O_22
REMARK   13  A    between atoms: O_22  and  C_23
REMARK                            x       y       z     vdW  Elec       q    Type
REMARK                         _______ _______ _______ _____ _____    ______ ____
ROOT
ATOM      1  C   UNL     1       4.038   3.669  17.237  0.00  0.00    +0.000 C 
ATOM      2  C   UNL     1       4.491   4.901  16.443  0.00  0.00    +0.000 C 
ATOM      3  C   UNL     1       4.393   6.238  17.180  0.00  0.00    +0.000 C 
ATOM      4  C   UNL     1       5.559   6.546  18.128  0.00  0.00    +0.000 C 
ATOM      5  C   UNL     1       5.672   5.623  19.346  0.00  0.00    +0.000 C 
ATOM      6  C   UNL     1       7.135   5.199  19.486  0.00  0.00    +0.000 C 
ATOM      7  C   UNL     1       7.826   5.533  18.170  0.00  0.00    +0.000 C 
ATOM      8  C   UNL     1       6.943   6.551  17.428  0.00  0.00    +0.000 C 
ATOM      9  O   UNL     1       4.703   4.587  19.435  0.00  0.00    +0.000 OA
ATOM     10  C   UNL     1       4.806   3.482  18.553  0.00  0.00    +0.000 C 
ENDROOT
BRANCH   7  11
ATOM     11  O   UNL     1       8.047   4.359  17.391  0.00  0.00    +0.000 OA
ATOM     12  H   UNL     1       8.903   3.973  17.629  0.00  0.00    +0.000 HD
ENDBRANCH   7  11
BRANCH   8  13
ATOM     13  C   UNL     1       7.639   7.884  17.308  0.00  0.00    +0.000 C 
ATOM     14  C   UNL     1       8.194   8.615  18.287  0.00  0.00    +0.000 C 
BRANCH  14  15
ATOM     15  C   UNL     1       8.911   9.926  18.068  0.00  0.00    +0.000 C 
BRANCH  15  16
ATOM     16  O   UNL     1       7.959  10.938  17.728  0.00  0.00    +0.000 OA
ATOM     17  H   UNL     1       7.990  11.059  16.768  0.00  0.00    +0.000 HD
ENDBRANCH  15  16
BRANCH  15  18
ATOM     18  C   UNL     1       9.703  10.337  19.322  0.00  0.00    +0.000 C 
BRANCH  18  19
ATOM     19  O   UNL     1       8.893  11.199  20.126  0.00  0.00    +0.000 OA
BRANCH  19  20
ATOM     20  C   UNL     1       9.466  12.399  20.444  0.00  0.00    +0.000 A 
ATOM     21  C   UNL     1       9.030  12.965  21.644  0.00  0.00    +0.000 A 
ATOM     22  C   UNL     1       9.539  14.192  22.067  0.00  0.00    +0.000 A 
ATOM     23  C   UNL     1      10.500  14.850  21.302  0.00  0.00    +0.000 A 
ATOM     24  C   UNL     1      10.958  14.274  20.116  0.00  0.00    +0.000 A 
ATOM     25  C   UNL     1      10.443  13.049  19.691  0.00  0.00    +0.000 A 
ENDBRANCH  19  20
ENDBRANCH  18  19
ENDBRANCH  15  18
ENDBRANCH  14  15
ENDBRANCH   8  13
BRANCH   1  26
ATOM     26  C   UNL     1       2.513   3.635  17.471  0.00  0.00    +0.000 C 
BRANCH  26  27
ATOM     27  C   UNL     1       2.012   2.245  17.883  0.00  0.00    +0.000 C 
BRANCH  27  28
ATOM     28  C   UNL     1       1.670   2.175  19.369  0.00  0.00    +0.000 C 
BRANCH  28  29
ATOM     29  C   UNL     1       1.233   3.545  19.884  0.00  0.00    +0.000 C 
BRANCH  29  31
ATOM     30  O   UNL     1       1.966   3.176  22.172  0.00  0.00    +0.000 OA
ATOM     31  C   UNL     1       1.900   3.898  21.191  0.00  0.00    +0.000 C 
BRANCH  31  32
ATOM     32  O   UNL     1       2.439   5.141  21.169  0.00  0.00    +0.000 OA
ATOM     33  H   UNL     1       2.854   5.405  22.011  0.00  0.00    +0.000 HD
ENDBRANCH  31  32
ENDBRANCH  29  31
ENDBRANCH  28  29
ENDBRANCH  27  28
ENDBRANCH  26  27
ENDBRANCH   1  26
TORSDOF 13
ENDMDL
MODEL 3
REMARK VINA RESULT:      -7.7      0.845      1.113
REMARK  Name = 
REMARK  13 active torsions:
REMARK  status: ('A' for Active; 'I' for Inactive)
REMARK    1  A    between atoms: C_2  and  O_3
REMARK    2  A    between atoms: C_2  and  C_4
REMARK    3  A    between atoms: C_4  and  C_5
REMARK    4  A    between atoms: C_5  and  C_6
REMARK    5  A    between atoms: C_6  and  C_7
REMARK    6  A    between atoms: C_7  and  C_8
REMARK    7  A    between atoms: C_14  and  O_15
REMARK    8  A    between atoms: C_16  and  C_17
REMARK    9  A    between atoms: C_18  and  C_19
REMARK   10  A    between atoms: C_19  and  O_20
REMARK   11  A    between atoms: C_19  and  C_21
REMARK   12  A    between atoms: C_21  and  O_22
REMARK   13  A    between atoms: O_22  and  C_23
REMARK                            x       y       z     vdW  Elec       q    Type
REMARK                         _______ _______ _______ _____ _____    ______ ____
ROOT
ATOM      1  C   UNL     1       4.234   3.398  17.121  0.00  0.00    +0.000 C 
ATOM      2  C   UNL     1       4.780   4.573  16.300  0.00  0.00    +0.000 C 
ATOM      3  C   UNL     1       4.539   5.964  16.889  0.00  0.00    +0.000 C 
ATOM      4  C   UNL     1       5.535   6.393  17.973  0.00  0.00    +0.000 C 
ATOM      5  C   UNL     1       5.476   5.582  19.273  0.00  0.00    +0.000 C 
ATOM      6  C   UNL     1       6.907   5.223  19.675  0.00  0.00    +0.000 C 
ATOM      7  C   UNL     1       7.789   5.468  18.456  0.00  0.00    +0.000 C 
ATOM      8  C   UNL     1       7.011   6.387  17.498  0.00  0.00    +0.000 C 
ATOM      9  O   UNL     1       4.527   4.524  19.304  0.00  0.00    +0.000 OA
ATOM     10  C   UNL     1       4.791   3.352  18.552  0.00  0.00    +0.000 C 
ENDROOT
BRANCH   7  11
ATOM     11  O   UNL     1       8.154   4.240  17.830  0.00  0.00    +0.000 OA
ATOM     12  H   UNL     1       7.442   3.960  17.234  0.00  0.00    +0.000 HD
ENDBRANCH   7  11
BRANCH   8  13
ATOM     13  C   UNL     1       7.688   7.728  17.367  0.00  0.00    +0.000 C 
ATOM     14  C   UNL     1       8.198   8.493  18.346  0.00  0.00    +0.000 C 
BRANCH  14  15
ATOM     15  C   UNL     1       8.900   9.811  18.117  0.00  0.00    +0.000 C 
BRANCH  15  16
ATOM     16  O   UNL     1       8.012  10.713  17.450  0.00  0.00    +0.000 OA
ATOM     17  H   UNL     1       8.142  10.600  16.497  0.00  0.00    +0.000 HD
ENDBRANCH  15  16
BRANCH  15  18
ATOM     18  C   UNL     1       9.377  10.418  19.448  0.00  0.00    +0.000 C 
BRANCH  18  19
ATOM     19  O   UNL     1       9.087  11.818  19.456  0.00  0.00    +0.000 OA
BRANCH  19  20
ATOM     20  C   UNL     1      10.154  12.630  19.186  0.00  0.00    +0.000 A 
ATOM     21  C   UNL     1      10.522  13.490  20.223  0.00  0.00    +0.000 A 
ATOM     22  C   UNL     1      11.591  14.370  20.059  0.00  0.00    +0.000 A 
ATOM     23  C   UNL     1      12.308  14.382  18.864  0.00  0.00    +0.000 A 
ATOM     24  C   UNL     1      11.959  13.506  17.835  0.00  0.00    +0.000 A 
ATOM     25  C   UNL     1      10.886  12.629  17.999  0.00  0.00    +0.000 A 
ENDBRANCH  19  20
ENDBRANCH  18  19
ENDBRANCH  15  18
ENDBRANCH  14  15
ENDBRANCH   8  13
BRANCH   1  26
ATOM     26  C   UNL     1       2.693   3.330  17.120  0.00  0.00    +0.000 C 
BRANCH  26  27
ATOM     27  C   UNL     1       2.142   2.440  18.241  0.00  0.00    +0.000 C 
BRANCH  27  28
ATOM     28  C   UNL     1       0.960   3.086  18.958  0.00  0.00    +0.000 C 
BRANCH  28  29
ATOM     29  C   UNL     1       0.928   2.665  20.427  0.00  0.00    +0.000 C 
BRANCH  29  31
ATOM     30  O   UNL     1       2.000   4.699  21.216  0.00  0.00    +0.000 OA
ATOM     31  C   UNL     1       1.868   3.488  21.272  0.00  0.00    +0.000 C 
BRANCH  31  32
ATOM     32  O   UNL     1       2.580   2.722  22.135  0.00  0.00    +0.000 OA
ATOM     33  H   UNL     1       2.383   2.900  23.073  0.00  0.00    +0.000 HD
ENDBRANCH  31  32
ENDBRANCH  29  31
ENDBRANCH  28  29
ENDBRANCH  27  28
ENDBRANCH  26  27
ENDBRANCH   1  26
TORSDOF 13
ENDMDL
MODEL 4
REMARK VINA RESULT:      -7.5      4.519      7.269
REMARK  Name = 
REMARK  13 active torsions:
REMARK  status: ('A' for Active; 'I' for Inactive)
REMARK    1  A    between atoms: C_2  and  O_3
REMARK    2  A    between atoms: C_2  and  C_4
REMARK    3  A    between atoms: C_4  and  C_5
REMARK    4  A    between atoms: C_5  and  C_6
REMARK    5  A    between atoms: C_6  and  C_7
REMARK    6  A    between atoms: C_7  and  C_8
REMARK    7  A    between atoms: C_14  and  O_15
REMARK    8  A    between atoms: C_16  and  C_17
REMARK    9  A    between atoms: C_18  and  C_19
REMARK   10  A    between atoms: C_19  and  O_20
REMARK   11  A    between atoms: C_19  and  C_21
REMARK   12  A    between atoms: C_21  and  O_22
REMARK   13  A    between atoms: O_22  and  C_23
REMARK                            x       y       z     vdW  Elec       q    Type
REMARK                         _______ _______ _______ _____ _____    ______ ____
ROOT
ATOM      1  C   UNL     1       4.593   3.773  17.543  0.00  0.00    +0.000 C 
ATOM      2  C   UNL     1       4.512   5.053  18.386  0.00  0.00    +0.000 C 
ATOM      3  C   UNL     1       3.346   5.989  18.060  0.00  0.00    +0.000 C 
ATOM      4  C   UNL     1       2.006   5.606  18.698  0.00  0.00    +0.000 C 
ATOM      5  C   UNL     1       1.393   4.295  18.193  0.00  0.00    +0.000 C 
ATOM      6  C   UNL     1       0.927   3.489  19.406  0.00  0.00    +0.000 C 
ATOM      7  C   UNL     1       1.587   4.107  20.634  0.00  0.00    +0.000 C 
ATOM      8  C   UNL     1       2.057   5.519  20.245  0.00  0.00    +0.000 C 
ATOM      9  O   UNL     1       2.148   3.589  17.218  0.00  0.00    +0.000 OA
ATOM     10  C   UNL     1       3.324   2.912  17.629  0.00  0.00    +0.000 C 
ENDROOT
BRANCH   7  11
ATOM     11  O   UNL     1       2.667   3.300  21.098  0.00  0.00    +0.000 OA
ATOM     12  H   UNL     1       3.388   3.326  20.451  0.00  0.00    +0.000 HD
ENDBRANCH   7  11
BRANCH   8  13
ATOM     13  C   UNL     1       1.294   6.572  21.011  0.00  0.00    +0.000 C 
ATOM     14  C   UNL     1       1.360   7.905  20.868  0.00  0.00    +0.000 C 
BRANCH  14  15
ATOM     15  C   UNL     1       0.523   8.886  21.654  0.00  0.00    +0.000 C 
BRANCH  15  16
ATOM     16  O   UNL     1       1.327   9.487  22.674  0.00  0.00    +0.000 OA
ATOM     17  H   UNL     1       0.786  10.159  23.115  0.00  0.00    +0.000 HD
ENDBRANCH  15  16
BRANCH  15  18
ATOM     18  C   UNL     1      -0.065   9.969  20.731  0.00  0.00    +0.000 C 
BRANCH  18  19
ATOM     19  O   UNL     1       0.817  10.171  19.624  0.00  0.00    +0.000 OA
BRANCH  19  20
ATOM     20  C   UNL     1       1.020  11.479  19.279  0.00  0.00    +0.000 A 
ATOM     21  C   UNL     1       0.108  12.384  19.825  0.00  0.00    +0.000 A 
ATOM     22  C   UNL     1       0.211  13.745  19.536  0.00  0.00    +0.000 A 
ATOM     23  C   UNL     1       1.237  14.208  18.715  0.00  0.00    +0.000 A 
ATOM     24  C   UNL     1       2.166  13.309  18.190  0.00  0.00    +0.000 A 
ATOM     25  C   UNL     1       2.058  11.947  18.475  0.00  0.00    +0.000 A 
ENDBRANCH  19  20
ENDBRANCH  18  19
ENDBRANCH  15  18
ENDBRANCH  14  15
ENDBRANCH   8  13
BRANCH   1  26
ATOM     26  C   UNL     1       4.985   4.045  16.076  0.00  0.00    +0.000 C 
BRANCH  26  27
ATOM     27  C   UNL     1       6.504   4.061  15.865  0.00  0.00    +0.000 C 
BRANCH  27  28
ATOM     28  C   UNL     1       7.171   5.232  16.582  0.00  0.00    +0.000 C 
BRANCH  28  29
ATOM     29  C   UNL     1       7.802   4.770  17.895  0.00  0.00    +0.000 C 
BRANCH  29  31
ATOM     30  O   UNL     1       8.095   7.076  18.604  0.00  0.00    +0.000 OA
ATOM     31  C   UNL     1       7.940   5.900  18.885  0.00  0.00    +0.000 C 
BRANCH  31  32
ATOM     32  O   UNL     1       7.871   5.465  20.167  0.00  0.00    +0.000 OA
ATOM     33  H   UNL     1       7.337   6.038  20.748  0.00  0.00    +0.000 HD
ENDBRANCH  31  32
ENDBRANCH  29  31
ENDBRANCH  28  29
ENDBRANCH  27  28
ENDBRANCH  26  27
ENDBRANCH   1  26
TORSDOF 13
ENDMDL
MODEL 5
REMARK VINA RESULT:      -7.5      5.312      7.557
REMARK  Name = 
REMARK  13 active torsions:
REMARK  status: ('A' for Active; 'I' for Inactive)
REMARK    1  A    between atoms: C_2  and  O_3
REMARK    2  A    between atoms: C_2  and  C_4
REMARK    3  A    between atoms: C_4  and  C_5
REMARK    4  A    between atoms: C_5  and  C_6
REMARK    5  A    between atoms: C_6  and  C_7
REMARK    6  A    between atoms: C_7  and  C_8
REMARK    7  A    between atoms: C_14  and  O_15
REMARK    8  A    between atoms: C_16  and  C_17
REMARK    9  A    between atoms: C_18  and  C_19
REMARK   10  A    between atoms: C_19  and  O_20
REMARK   11  A    between atoms: C_19  and  C_21
REMARK   12  A    between atoms: C_21  and  O_22
REMARK   13  A    between atoms: O_22  and  C_23
REMARK                            x       y       z     vdW  Elec       q    Type
REMARK                         _______ _______ _______ _____ _____    ______ ____
ROOT
ATOM      1  C   UNL     1       4.612   3.600  17.632  0.00  0.00    +0.000 C 
ATOM      2  C   UNL     1       4.497   4.948  18.356  0.00  0.00    +0.000 C 
ATOM      3  C   UNL     1       3.322   5.831  17.933  0.00  0.00    +0.000 C 
ATOM      4  C   UNL     1       1.978   5.483  18.586  0.00  0.00    +0.000 C 
ATOM      5  C   UNL     1       1.394   4.122  18.191  0.00  0.00    +0.000 C 
ATOM      6  C   UNL     1       0.924   3.419  19.465  0.00  0.00    +0.000 C 
ATOM      7  C   UNL     1       1.556   4.154  20.641  0.00  0.00    +0.000 C 
ATOM      8  C   UNL     1       2.008   5.535  20.135  0.00  0.00    +0.000 C 
ATOM      9  O   UNL     1       2.175   3.345  17.293  0.00  0.00    +0.000 OA
ATOM     10  C   UNL     1       3.356   2.729  17.778  0.00  0.00    +0.000 C 
ENDROOT
BRANCH   7  11
ATOM     11  O   UNL     1       2.642   3.411  21.190  0.00  0.00    +0.000 OA
ATOM     12  H   UNL     1       2.350   2.968  22.001  0.00  0.00    +0.000 HD
ENDBRANCH   7  11
BRANCH   8  13
ATOM     13  C   UNL     1       1.217   6.638  20.794  0.00  0.00    +0.000 C 
ATOM     14  C   UNL     1       1.590   7.911  20.999  0.00  0.00    +0.000 C 
BRANCH  14  15
ATOM     15  C   UNL     1       0.711   8.963  21.633  0.00  0.00    +0.000 C 
BRANCH  15  16
ATOM     16  O   UNL     1       1.448   9.648  22.650  0.00  0.00    +0.000 OA
ATOM     17  H   UNL     1       2.062  10.254  22.208  0.00  0.00    +0.000 HD
ENDBRANCH  15  16
BRANCH  15  18
ATOM     18  C   UNL     1       0.202   9.961  20.578  0.00  0.00    +0.000 C 
BRANCH  18  19
ATOM     19  O   UNL     1       0.476  11.293  21.022  0.00  0.00    +0.000 OA
BRANCH  19  20
ATOM     20  C   UNL     1       1.148  12.074  20.122  0.00  0.00    +0.000 A 
ATOM     21  C   UNL     1       1.269  13.418  20.480  0.00  0.00    +0.000 A 
ATOM     22  C   UNL     1       1.927  14.313  19.636  0.00  0.00    +0.000 A 
ATOM     23  C   UNL     1       2.483  13.862  18.440  0.00  0.00    +0.000 A 
ATOM     24  C   UNL     1       2.386  12.515  18.092  0.00  0.00    +0.000 A 
ATOM     25  C   UNL     1       1.722  11.622  18.935  0.00  0.00    +0.000 A 
ENDBRANCH  19  20
ENDBRANCH  18  19
ENDBRANCH  15  18
ENDBRANCH  14  15
ENDBRANCH   8  13
BRANCH   1  26
ATOM     26  C   UNL     1       5.020   3.749  16.152  0.00  0.00    +0.000 C 
BRANCH  26  27
ATOM     27  C   UNL     1       6.211   4.697  15.962  0.00  0.00    +0.000 C 
BRANCH  27  28
ATOM     28  C   UNL     1       6.734   4.680  14.528  0.00  0.00    +0.000 C 
BRANCH  28  29
ATOM     29  C   UNL     1       5.822   3.842  13.633  0.00  0.00    +0.000 C 
BRANCH  29  31
ATOM     30  O   UNL     1       7.280   4.194  11.721  0.00  0.00    +0.000 OA
ATOM     31  C   UNL     1       6.480   3.496  12.320  0.00  0.00    +0.000 C 
BRANCH  31  32
ATOM     32  O   UNL     1       6.080   2.288  11.853  0.00  0.00    +0.000 OA
ATOM     33  H   UNL     1       5.141   2.259  11.591  0.00  0.00    +0.000 HD
ENDBRANCH  31  32
ENDBRANCH  29  31
ENDBRANCH  28  29
ENDBRANCH  27  28
ENDBRANCH  26  27
ENDBRANCH   1  26
TORSDOF 13
ENDMDL
MODEL 6
REMARK VINA RESULT:      -7.3      5.697      8.809
REMARK  Name = 
REMARK  13 active torsions:
REMARK  status: ('A' for Active; 'I' for Inactive)
REMARK    1  A    between atoms: C_2  and  O_3
REMARK    2  A    between atoms: C_2  and  C_4
REMARK    3  A    between atoms: C_4  and  C_5
REMARK    4  A    between atoms: C_5  and  C_6
REMARK    5  A    between atoms: C_6  and  C_7
REMARK    6  A    between atoms: C_7  and  C_8
REMARK    7  A    between atoms: C_14  and  O_15
REMARK    8  A    between atoms: C_16  and  C_17
REMARK    9  A    between atoms: C_18  and  C_19
REMARK   10  A    between atoms: C_19  and  O_20
REMARK   11  A    between atoms: C_19  and  C_21
REMARK   12  A    between atoms: C_21  and  O_22
REMARK   13  A    between atoms: O_22  and  C_23
REMARK                            x       y       z     vdW  Elec       q    Type
REMARK                         _______ _______ _______ _____ _____    ______ ____
ROOT
ATOM      1  C   UNL     1       5.368   4.268  18.185  0.00  0.00    +0.000 C 
ATOM      2  C   UNL     1       5.094   5.490  19.071  0.00  0.00    +0.000 C 
ATOM      3  C   UNL     1       4.069   6.487  18.528  0.00  0.00    +0.000 C 
ATOM      4  C   UNL     1       2.602   6.110  18.773  0.00  0.00    +0.000 C 
ATOM      5  C   UNL     1       2.118   4.859  18.032  0.00  0.00    +0.000 C 
ATOM      6  C   UNL     1       1.341   3.991  19.023  0.00  0.00    +0.000 C 
ATOM      7  C   UNL     1       1.674   4.501  20.421  0.00  0.00    +0.000 C 
ATOM      8  C   UNL     1       2.252   5.918  20.271  0.00  0.00    +0.000 C 
ATOM      9  O   UNL     1       3.086   4.193  17.234  0.00  0.00    +0.000 OA
ATOM     10  C   UNL     1       4.105   3.449  17.880  0.00  0.00    +0.000 C 
ENDROOT
BRANCH   7  11
ATOM     11  O   UNL     1       2.584   3.627  21.085  0.00  0.00    +0.000 OA
ATOM     12  H   UNL     1       2.775   2.868  20.512  0.00  0.00    +0.000 HD
ENDBRANCH   7  11
BRANCH   8  13
ATOM     13  C   UNL     1       1.336   6.944  20.891  0.00  0.00    +0.000 C 
ATOM     14  C   UNL     1       1.370   8.278  20.743  0.00  0.00    +0.000 C 
BRANCH  14  15
ATOM     15  C   UNL     1       0.381   9.229  21.373  0.00  0.00    +0.000 C 
BRANCH  15  16
ATOM     16  O   UNL     1       0.802   9.539  22.705  0.00  0.00    +0.000 OA
ATOM     17  H   UNL     1       1.219   8.746  23.071  0.00  0.00    +0.000 HD
ENDBRANCH  15  16
BRANCH  15  18
ATOM     18  C   UNL     1       0.252  10.518  20.540  0.00  0.00    +0.000 C 
BRANCH  18  19
ATOM     19  O   UNL     1       0.176  10.175  19.154  0.00  0.00    +0.000 OA
BRANCH  19  20
ATOM     20  C   UNL     1      -1.029  10.434  18.560  0.00  0.00    +0.000 A 
ATOM     21  C   UNL     1      -1.788  11.434  19.172  0.00  0.00    +0.000 A 
ATOM     22  C   UNL     1      -3.038  11.779  18.660  0.00  0.00    +0.000 A 
ATOM     23  C   UNL     1      -3.527  11.139  17.523  0.00  0.00    +0.000 A 
ATOM     24  C   UNL     1      -2.760  10.158  16.894  0.00  0.00    +0.000 A 
ATOM     25  C   UNL     1      -1.511   9.810  17.411  0.00  0.00    +0.000 A 
ENDBRANCH  19  20
ENDBRANCH  18  19
ENDBRANCH  15  18
ENDBRANCH  14  15
ENDBRANCH   8  13
BRANCH   1  26
ATOM     26  C   UNL     1       6.129   4.624  16.891  0.00  0.00    +0.000 C 
BRANCH  26  27
ATOM     27  C   UNL     1       5.870   3.619  15.761  0.00  0.00    +0.000 C 
BRANCH  27  28
ATOM     28  C   UNL     1       6.334   4.148  14.407  0.00  0.00    +0.000 C 
BRANCH  28  29
ATOM     29  C   UNL     1       5.360   3.732  13.305  0.00  0.00    +0.000 C 
BRANCH  29  31
ATOM     30  O   UNL     1       7.168   3.548  11.690  0.00  0.00    +0.000 OA
ATOM     31  C   UNL     1       6.075   3.186  12.093  0.00  0.00    +0.000 C 
BRANCH  31  32
ATOM     32  O   UNL     1       5.359   2.216  11.473  0.00  0.00    +0.000 OA
ATOM     33  H   UNL     1       4.700   1.786  12.049  0.00  0.00    +0.000 HD
ENDBRANCH  31  32
ENDBRANCH  29  31
ENDBRANCH  28  29
ENDBRANCH  27  28
ENDBRANCH  26  27
ENDBRANCH   1  26
TORSDOF 13
ENDMDL
MODEL 7
REMARK VINA RESULT:      -7.2      5.276      7.588
REMARK  Name = 
REMARK  13 active torsions:
REMARK  status: ('A' for Active; 'I' for Inactive)
REMARK    1  A    between atoms: C_2  and  O_3
REMARK    2  A    between atoms: C_2  and  C_4
REMARK    3  A    between atoms: C_4  and  C_5
REMARK    4  A    between atoms: C_5  and  C_6
REMARK    5  A    between atoms: C_6  and  C_7
REMARK    6  A    between atoms: C_7  and  C_8
REMARK    7  A    between atoms: C_14  and  O_15
REMARK    8  A    between atoms: C_16  and  C_17
REMARK    9  A    between atoms: C_18  and  C_19
REMARK   10  A    between atoms: C_19  and  O_20
REMARK   11  A    between atoms: C_19  and  C_21
REMARK   12  A    between atoms: C_21  and  O_22
REMARK   13  A    between atoms: O_22  and  C_23
REMARK                            x       y       z     vdW  Elec       q    Type
REMARK                         _______ _______ _______ _____ _____    ______ ____
ROOT
ATOM      1  C   UNL     1       4.903   4.147  17.827  0.00  0.00    +0.000 C 
ATOM      2  C   UNL     1       4.815   5.610  18.281  0.00  0.00    +0.000 C 
ATOM      3  C   UNL     1       3.654   6.418  17.697  0.00  0.00    +0.000 C 
ATOM      4  C   UNL     1       2.306   6.225  18.404  0.00  0.00    +0.000 C 
ATOM      5  C   UNL     1       1.697   4.824  18.276  0.00  0.00    +0.000 C 
ATOM      6  C   UNL     1       1.218   4.386  19.660  0.00  0.00    +0.000 C 
ATOM      7  C   UNL     1       1.868   5.320  20.675  0.00  0.00    +0.000 C 
ATOM      8  C   UNL     1       2.343   6.570  19.915  0.00  0.00    +0.000 C 
ATOM      9  O   UNL     1       2.461   3.877  17.542  0.00  0.00    +0.000 OA
ATOM     10  C   UNL     1       3.632   3.343  18.135  0.00  0.00    +0.000 C 
ENDROOT
BRANCH   7  11
ATOM     11  O   UNL     1       2.942   4.675  21.355  0.00  0.00    +0.000 OA
ATOM     12  H   UNL     1       3.113   5.134  22.192  0.00  0.00    +0.000 HD
ENDBRANCH   7  11
BRANCH   8  13
ATOM     13  C   UNL     1       1.573   7.793  20.351  0.00  0.00    +0.000 C 
ATOM     14  C   UNL     1       0.641   7.879  21.313  0.00  0.00    +0.000 C 
BRANCH  14  15
ATOM     15  C   UNL     1      -0.051   9.160  21.713  0.00  0.00    +0.000 C 
BRANCH  15  16
ATOM     16  O   UNL     1      -0.282   9.156  23.125  0.00  0.00    +0.000 OA
ATOM     17  H   UNL     1      -0.821   8.377  23.330  0.00  0.00    +0.000 HD
ENDBRANCH  15  16
BRANCH  15  18
ATOM     18  C   UNL     1       0.789  10.387  21.314  0.00  0.00    +0.000 C 
BRANCH  18  19
ATOM     19  O   UNL     1       0.151  11.059  20.225  0.00  0.00    +0.000 OA
BRANCH  19  20
ATOM     20  C   UNL     1       0.883  12.066  19.659  0.00  0.00    +0.000 A 
ATOM     21  C   UNL     1       1.775  11.663  18.663  0.00  0.00    +0.000 A 
ATOM     22  C   UNL     1       2.580  12.602  18.021  0.00  0.00    +0.000 A 
ATOM     23  C   UNL     1       2.484  13.951  18.358  0.00  0.00    +0.000 A 
ATOM     24  C   UNL     1       1.575  14.361  19.334  0.00  0.00    +0.000 A 
ATOM     25  C   UNL     1       0.774  13.418  19.980  0.00  0.00    +0.000 A 
ENDBRANCH  19  20
ENDBRANCH  18  19
ENDBRANCH  15  18
ENDBRANCH  14  15
ENDBRANCH   8  13
BRANCH   1  26
ATOM     26  C   UNL     1       5.308   4.003  16.345  0.00  0.00    +0.000 C 
BRANCH  26  27
ATOM     27  C   UNL     1       6.687   4.610  16.051  0.00  0.00    +0.000 C 
BRANCH  27  28
ATOM     28  C   UNL     1       6.979   4.670  14.554  0.00  0.00    +0.000 C 
BRANCH  28  29
ATOM     29  C   UNL     1       5.850   4.014  13.760  0.00  0.00    +0.000 C 
BRANCH  29  31
ATOM     30  O   UNL     1       5.897   2.534  11.832  0.00  0.00    +0.000 OA
ATOM     31  C   UNL     1       6.318   3.520  12.413  0.00  0.00    +0.000 C 
BRANCH  31  32
ATOM     32  O   UNL     1       7.288   4.309  11.890  0.00  0.00    +0.000 OA
ATOM     33  H   UNL     1       6.952   5.132  11.490  0.00  0.00    +0.000 HD
ENDBRANCH  31  32
ENDBRANCH  29  31
ENDBRANCH  28  29
ENDBRANCH  27  28
ENDBRANCH  26  27
ENDBRANCH   1  26
TORSDOF 13
ENDMDL
MODEL 8
REMARK VINA RESULT:      -7.2      4.617      7.451
REMARK  Name = 
REMARK  13 active torsions:
REMARK  status: ('A' for Active; 'I' for Inactive)
REMARK    1  A    between atoms: C_2  and  O_3
REMARK    2  A    between atoms: C_2  and  C_4
REMARK    3  A    between atoms: C_4  and  C_5
REMARK    4  A    between atoms: C_5  and  C_6
REMARK    5  A    between atoms: C_6  and  C_7
REMARK    6  A    between atoms: C_7  and  C_8
REMARK    7  A    between atoms: C_14  and  O_15
REMARK    8  A    between atoms: C_16  and  C_17
REMARK    9  A    between atoms: C_18  and  C_19
REMARK   10  A    between atoms: C_19  and  O_20
REMARK   11  A    between atoms: C_19  and  C_21
REMARK   12  A    between atoms: C_21  and  O_22
REMARK   13  A    between atoms: O_22  and  C_23
REMARK                            x       y       z     vdW  Elec       q    Type
REMARK                         _______ _______ _______ _____ _____    ______ ____
ROOT
ATOM      1  C   UNL     1       4.468   4.005  17.127  0.00  0.00    +0.000 C 
ATOM      2  C   UNL     1       4.375   5.279  17.978  0.00  0.00    +0.000 C 
ATOM      3  C   UNL     1       3.102   6.108  17.794  0.00  0.00    +0.000 C 
ATOM      4  C   UNL     1       1.884   5.614  18.585  0.00  0.00    +0.000 C 
ATOM      5  C   UNL     1       1.333   4.251  18.151  0.00  0.00    +0.000 C 
ATOM      6  C   UNL     1       1.085   3.417  19.409  0.00  0.00    +0.000 C 
ATOM      7  C   UNL     1       1.829   4.098  20.552  0.00  0.00    +0.000 C 
ATOM      8  C   UNL     1       2.125   5.543  20.115  0.00  0.00    +0.000 C 
ATOM      9  O   UNL     1       2.027   3.607  17.092  0.00  0.00    +0.000 OA
ATOM     10  C   UNL     1       3.298   3.039  17.359  0.00  0.00    +0.000 C 
ENDROOT
BRANCH   7  11
ATOM     11  O   UNL     1       3.022   3.392  20.883  0.00  0.00    +0.000 OA
ATOM     12  H   UNL     1       2.794   2.595  21.386  0.00  0.00    +0.000 HD
ENDBRANCH   7  11
BRANCH   8  13
ATOM     13  C   UNL     1       1.368   6.531  20.969  0.00  0.00    +0.000 C 
ATOM     14  C   UNL     1       1.429   7.871  20.929  0.00  0.00    +0.000 C 
BRANCH  14  15
ATOM     15  C   UNL     1       0.600   8.786  21.798  0.00  0.00    +0.000 C 
BRANCH  15  16
ATOM     16  O   UNL     1       1.466   9.584  22.612  0.00  0.00    +0.000 OA
ATOM     17  H   UNL     1       1.032   9.702  23.470  0.00  0.00    +0.000 HD
ENDBRANCH  15  16
BRANCH  15  18
ATOM     18  C   UNL     1      -0.306   9.688  20.940  0.00  0.00    +0.000 C 
BRANCH  18  19
ATOM     19  O   UNL     1       0.420  10.117  19.784  0.00  0.00    +0.000 OA
BRANCH  19  20
ATOM     20  C   UNL     1       0.316  11.450  19.500  0.00  0.00    +0.000 A 
ATOM     21  C   UNL     1       1.270  12.264  20.114  0.00  0.00    +0.000 A 
ATOM     22  C   UNL     1       1.257  13.642  19.904  0.00  0.00    +0.000 A 
ATOM     23  C   UNL     1       0.302  14.211  19.064  0.00  0.00    +0.000 A 
ATOM     24  C   UNL     1      -0.636  13.398  18.427  0.00  0.00    +0.000 A 
ATOM     25  C   UNL     1      -0.626  12.019  18.643  0.00  0.00    +0.000 A 
ENDBRANCH  19  20
ENDBRANCH  18  19
ENDBRANCH  15  18
ENDBRANCH  14  15
ENDBRANCH   8  13
BRANCH   1  26
ATOM     26  C   UNL     1       4.659   4.301  15.625  0.00  0.00    +0.000 C 
BRANCH  26  27
ATOM     27  C   UNL     1       5.597   5.488  15.373  0.00  0.00    +0.000 C 
BRANCH  27  28
ATOM     28  C   UNL     1       7.039   5.171  15.758  0.00  0.00    +0.000 C 
BRANCH  28  29
ATOM     29  C   UNL     1       7.473   6.014  16.957  0.00  0.00    +0.000 C 
BRANCH  29  31
ATOM     30  O   UNL     1       7.767   5.484  19.311  0.00  0.00    +0.000 OA
ATOM     31  C   UNL     1       7.859   5.159  18.139  0.00  0.00    +0.000 C 
BRANCH  31  32
ATOM     32  O   UNL     1       8.336   3.948  17.758  0.00  0.00    +0.000 OA
ATOM     33  H   UNL     1       7.656   3.359  17.381  0.00  0.00    +0.000 HD
ENDBRANCH  31  32
ENDBRANCH  29  31
ENDBRANCH  28  29
ENDBRANCH  27  28
ENDBRANCH  26  27
ENDBRANCH   1  26
TORSDOF 13
ENDMDL
MODEL 9
REMARK VINA RESULT:      -7.2      5.815      8.672
REMARK  Name = 
REMARK  13 active torsions:
REMARK  status: ('A' for Active; 'I' for Inactive)
REMARK    1  A    between atoms: C_2  and  O_3
REMARK    2  A    between atoms: C_2  and  C_4
REMARK    3  A    between atoms: C_4  and  C_5
REMARK    4  A    between atoms: C_5  and  C_6
REMARK    5  A    between atoms: C_6  and  C_7
REMARK    6  A    between atoms: C_7  and  C_8
REMARK    7  A    between atoms: C_14  and  O_15
REMARK    8  A    between atoms: C_16  and  C_17
REMARK    9  A    between atoms: C_18  and  C_19
REMARK   10  A    between atoms: C_19  and  O_20
REMARK   11  A    between atoms: C_19  and  C_21
REMARK   12  A    between atoms: C_21  and  O_22
REMARK   13  A    between atoms: O_22  and  C_23
REMARK                            x       y       z     vdW  Elec       q    Type
REMARK                         _______ _______ _______ _____ _____    ______ ____
ROOT
ATOM      1  C   UNL     1       4.834   4.291  17.591  0.00  0.00    +0.000 C 
ATOM      2  C   UNL     1       4.746   5.738  18.094  0.00  0.00    +0.000 C 
ATOM      3  C   UNL     1       3.557   6.550  17.577  0.00  0.00    +0.000 C 
ATOM      4  C   UNL     1       2.238   6.318  18.325  0.00  0.00    +0.000 C 
ATOM      5  C   UNL     1       1.639   4.915  18.174  0.00  0.00    +0.000 C 
ATOM      6  C   UNL     1       1.215   4.427  19.560  0.00  0.00    +0.000 C 
ATOM      7  C   UNL     1       1.890   5.338  20.580  0.00  0.00    +0.000 C 
ATOM      8  C   UNL     1       2.324   6.616  19.844  0.00  0.00    +0.000 C 
ATOM      9  O   UNL     1       2.387   4.000  17.385  0.00  0.00    +0.000 OA
ATOM     10  C   UNL     1       3.584   3.462  17.918  0.00  0.00    +0.000 C 
ENDROOT
BRANCH   7  11
ATOM     11  O   UNL     1       2.995   4.685  21.201  0.00  0.00    +0.000 OA
ATOM     12  H   UNL     1       3.521   5.338  21.687  0.00  0.00    +0.000 HD
ENDBRANCH   7  11
BRANCH   8  13
ATOM     13  C   UNL     1       1.557   7.815  20.346  0.00  0.00    +0.000 C 
ATOM     14  C   UNL     1       1.261   8.131  21.616  0.00  0.00    +0.000 C 
BRANCH  14  15
ATOM     15  C   UNL     1       0.521   9.380  22.032  0.00  0.00    +0.000 C 
BRANCH  15  16
ATOM     16  O   UNL     1       0.759   9.635  23.420  0.00  0.00    +0.000 OA
ATOM     17  H   UNL     1       1.652  10.002  23.500  0.00  0.00    +0.000 HD
ENDBRANCH  15  16
BRANCH  15  18
ATOM     18  C   UNL     1       0.962  10.587  21.184  0.00  0.00    +0.000 C 
BRANCH  18  19
ATOM     19  O   UNL     1       0.464  11.787  21.783  0.00  0.00    +0.000 OA
BRANCH  19  20
ATOM     20  C   UNL     1      -0.811  12.126  21.421  0.00  0.00    +0.000 A 
ATOM     21  C   UNL     1      -1.581  12.701  22.434  0.00  0.00    +0.000 A 
ATOM     22  C   UNL     1      -2.900  13.080  22.184  0.00  0.00    +0.000 A 
ATOM     23  C   UNL     1      -3.447  12.903  20.914  0.00  0.00    +0.000 A 
ATOM     24  C   UNL     1      -2.672  12.354  19.892  0.00  0.00    +0.000 A 
ATOM     25  C   UNL     1      -1.354  11.970  20.146  0.00  0.00    +0.000 A 
ENDBRANCH  19  20
ENDBRANCH  18  19
ENDBRANCH  15  18
ENDBRANCH  14  15
ENDBRANCH   8  13
BRANCH   1  26
ATOM     26  C   UNL     1       5.189   4.199  16.092  0.00  0.00    +0.000 C 
BRANCH  26  27
ATOM     27  C   UNL     1       6.634   4.622  15.801  0.00  0.00    +0.000 C 
BRANCH  27  28
ATOM     28  C   UNL     1       6.948   4.603  14.308  0.00  0.00    +0.000 C 
BRANCH  28  29
ATOM     29  C   UNL     1       5.822   3.922  13.531  0.00  0.00    +0.000 C 
BRANCH  29  31
ATOM     30  O   UNL     1       5.880   2.336  11.690  0.00  0.00    +0.000 OA
ATOM     31  C   UNL     1       6.304   3.348  12.221  0.00  0.00    +0.000 C 
BRANCH  31  32
ATOM     32  O   UNL     1       7.293   4.096  11.671  0.00  0.00    +0.000 OA
ATOM     33  H   UNL     1       8.169   3.944  12.071  0.00  0.00    +0.000 HD
ENDBRANCH  31  32
ENDBRANCH  29  31
ENDBRANCH  28  29
ENDBRANCH  27  28
ENDBRANCH  26  27
ENDBRANCH   1  26
TORSDOF 13
ENDMDL
