MODEL 1
REMARK VINA RESULT:      -8.1      0.000      0.000
REMARK  Name = 
REMARK  8 active torsions:
REMARK  status: ('A' for Active; 'I' for Inactive)
REMARK    1  A    between atoms: C_1  and  C_2
REMARK    2  A    between atoms: C_5  and  S_6
REMARK    3  A    between atoms: S_6  and  N_9
REMARK    4  A    between atoms: N_12  and  C_13
REMARK    5  A    between atoms: C_13  and  C_14
REMARK    6  A    between atoms: N_16  and  C_17
REMARK    7  A    between atoms: C_17  and  C_18
REMARK    8  A    between atoms: C_18  and  N_19
REMARK                            x       y       z     vdW  Elec       q    Type
REMARK                         _______ _______ _______ _____ _____    ______ ____
ROOT
ATOM      1  C   UNL     1       1.310   9.791  19.661  0.00  0.00    +0.000 C 
ENDROOT
BRANCH   1   5
ATOM      2  N   UNL     1      -1.016  12.115  21.406  0.00  0.00    +0.000 NA
ATOM      3  C   UNL     1      -0.194  11.078  22.066  0.00  0.00    +0.000 C 
ATOM      4  C   UNL     1      -0.495   9.743  21.357  0.00  0.00    +0.000 C 
ATOM      5  N   UNL     1      -0.148   9.733  19.911  0.00  0.00    +0.000 NA
ATOM      6  C   UNL     1      -0.846  10.877  19.262  0.00  0.00    +0.000 C 
ATOM      7  C   UNL     1      -0.704  12.256  19.965  0.00  0.00    +0.000 C 
BRANCH   2   8
ATOM      8  S   UNL     1      -1.516  13.450  22.292  0.00  0.00    +0.000 S 
ATOM      9  O   UNL     1      -1.540  14.599  21.409  0.00  0.00    +0.000 OA
ATOM     10  O   UNL     1      -0.756  13.475  23.522  0.00  0.00    +0.000 OA
BRANCH   8  15
ATOM     11  C   UNL     1      -7.314  12.559  23.842  0.00  0.00    +0.000 C 
ATOM     12  C   UNL     1      -5.874  12.709  23.445  0.00  0.00    +0.000 A 
ATOM     13  C   UNL     1      -4.862  12.620  24.407  0.00  0.00    +0.000 A 
ATOM     14  C   UNL     1      -3.525  12.817  24.048  0.00  0.00    +0.000 A 
ATOM     15  C   UNL     1      -3.199  13.071  22.713  0.00  0.00    +0.000 A 
ATOM     16  C   UNL     1      -4.199  13.159  21.743  0.00  0.00    +0.000 A 
ATOM     17  C   UNL     1      -5.535  12.968  22.112  0.00  0.00    +0.000 A 
ENDBRANCH   8  15
ENDBRANCH   2   8
ENDBRANCH   1   5
BRANCH   1  18
ATOM     18  C   UNL     1       1.756   8.843  18.531  0.00  0.00    +0.000 C 
ATOM     19  O   UNL     1       1.559   9.085  17.340  0.00  0.00    +0.000 OA
ATOM     20  N   UNL     1       2.351   7.678  18.956  0.00  0.00    +0.000 N 
ATOM     21  H   UNL     1       2.457   7.509  19.947  0.00  0.00    +0.000 HD
BRANCH  20  22
ATOM     22  C   UNL     1       2.937   6.717  18.028  0.00  0.00    +0.000 C 
BRANCH  22  23
ATOM     23  C   UNL     1       3.075   5.258  18.615  0.00  0.00    +0.000 C 
ATOM     24  C   UNL     1       3.411   4.296  17.442  0.00  0.00    +0.000 C 
ATOM     25  C   UNL     1       4.771   4.527  16.782  0.00  0.00    +0.000 C 
ATOM     26  C   UNL     1       5.886   4.455  17.814  0.00  0.00    +0.000 C 
ATOM     27  C   UNL     1       5.658   5.462  18.933  0.00  0.00    +0.000 C 
ATOM     28  C   UNL     1       4.295   5.252  19.605  0.00  0.00    +0.000 C 
BRANCH  23  29
ATOM     29  N   UNL     1       1.829   4.882  19.370  0.00  0.00    +0.000 NA
ATOM     30  C   UNL     1       1.897   4.805  20.847  0.00  0.00    +0.000 C 
ATOM     31  C   UNL     1       2.338   3.447  21.433  0.00  0.00    +0.000 C 
ATOM     32  O   UNL     1       1.570   2.359  20.914  0.00  0.00    +0.000 OA
ATOM     33  C   UNL     1       1.577   2.347  19.483  0.00  0.00    +0.000 C 
ATOM     34  C   UNL     1       1.082   3.685  18.910  0.00  0.00    +0.000 C 
ENDBRANCH  23  29
ENDBRANCH  22  23
ENDBRANCH  20  22
ENDBRANCH   1  18
TORSDOF 7
ENDMDL
MODEL 2
REMARK VINA RESULT:      -8.0      2.175      3.491
REMARK  Name = 
REMARK  8 active torsions:
REMARK  status: ('A' for Active; 'I' for Inactive)
REMARK    1  A    between atoms: C_1  and  C_2
REMARK    2  A    between atoms: C_5  and  S_6
REMARK    3  A    between atoms: S_6  and  N_9
REMARK    4  A    between atoms: N_12  and  C_13
REMARK    5  A    between atoms: C_13  and  C_14
REMARK    6  A    between atoms: N_16  and  C_17
REMARK    7  A    between atoms: C_17  and  C_18
REMARK    8  A    between atoms: C_18  and  N_19
REMARK                            x       y       z     vdW  Elec       q    Type
REMARK                         _______ _______ _______ _____ _____    ______ ____
ROOT
ATOM      1  C   UNL     1       1.676   7.998  20.282  0.00  0.00    +0.000 C 
ENDROOT
BRANCH   1   5
ATOM      2  N   UNL     1      -0.215  11.083  21.159  0.00  0.00    +0.000 NA
ATOM      3  C   UNL     1       1.214  10.846  21.456  0.00  0.00    +0.000 C 
ATOM      4  C   UNL     1       1.303   9.506  22.213  0.00  0.00    +0.000 C 
ATOM      5  N   UNL     1       0.811   8.338  21.435  0.00  0.00    +0.000 NA
ATOM      6  C   UNL     1      -0.579   8.634  20.991  0.00  0.00    +0.000 C 
ATOM      7  C   UNL     1      -0.804  10.016  20.317  0.00  0.00    +0.000 C 
BRANCH   2   8
ATOM      8  S   UNL     1      -0.775  12.660  21.032  0.00  0.00    +0.000 S 
ATOM      9  O   UNL     1      -1.016  12.945  19.632  0.00  0.00    +0.000 OA
ATOM     10  O   UNL     1       0.094  13.504  21.823  0.00  0.00    +0.000 OA
BRANCH   8  15
ATOM     11  C   UNL     1      -6.113  12.909  23.905  0.00  0.00    +0.000 C 
ATOM     12  C   UNL     1      -4.804  12.777  23.182  0.00  0.00    +0.000 A 
ATOM     13  C   UNL     1      -3.631  12.489  23.890  0.00  0.00    +0.000 A 
ATOM     14  C   UNL     1      -2.403  12.424  23.227  0.00  0.00    +0.000 A 
ATOM     15  C   UNL     1      -2.354  12.614  21.843  0.00  0.00    +0.000 A 
ATOM     16  C   UNL     1      -3.517  12.898  21.125  0.00  0.00    +0.000 A 
ATOM     17  C   UNL     1      -4.742  12.970  21.798  0.00  0.00    +0.000 A 
ENDBRANCH   8  15
ENDBRANCH   2   8
ENDBRANCH   1   5
BRANCH   1  18
ATOM     18  C   UNL     1       2.160   6.536  20.316  0.00  0.00    +0.000 C 
ATOM     19  O   UNL     1       1.499   5.625  20.813  0.00  0.00    +0.000 OA
ATOM     20  N   UNL     1       3.414   6.331  19.786  0.00  0.00    +0.000 N 
ATOM     21  H   UNL     1       3.932   7.119  19.423  0.00  0.00    +0.000 HD
BRANCH  20  22
ATOM     22  C   UNL     1       3.986   4.999  19.630  0.00  0.00    +0.000 C 
BRANCH  22  23
ATOM     23  C   UNL     1       4.190   4.559  18.127  0.00  0.00    +0.000 C 
ATOM     24  C   UNL     1       4.621   3.066  18.115  0.00  0.00    +0.000 C 
ATOM     25  C   UNL     1       3.565   2.081  18.616  0.00  0.00    +0.000 C 
ATOM     26  C   UNL     1       2.276   2.229  17.823  0.00  0.00    +0.000 C 
ATOM     27  C   UNL     1       1.752   3.657  17.896  0.00  0.00    +0.000 C 
ATOM     28  C   UNL     1       2.800   4.663  17.404  0.00  0.00    +0.000 C 
BRANCH  23  29
ATOM     29  N   UNL     1       5.167   5.479  17.446  0.00  0.00    +0.000 NA
ATOM     30  C   UNL     1       5.441   5.273  16.005  0.00  0.00    +0.000 C 
ATOM     31  C   UNL     1       6.562   4.268  15.667  0.00  0.00    +0.000 C 
ATOM     32  O   UNL     1       7.776   4.557  16.366  0.00  0.00    +0.000 OA
ATOM     33  C   UNL     1       7.558   4.654  17.777  0.00  0.00    +0.000 C 
ATOM     34  C   UNL     1       6.478   5.697  18.106  0.00  0.00    +0.000 C 
ENDBRANCH  23  29
ENDBRANCH  22  23
ENDBRANCH  20  22
ENDBRANCH   1  18
TORSDOF 7
ENDMDL
MODEL 3
REMARK VINA RESULT:      -7.9      2.048      3.367
REMARK  Name = 
REMARK  8 active torsions:
REMARK  status: ('A' for Active; 'I' for Inactive)
REMARK    1  A    between atoms: C_1  and  C_2
REMARK    2  A    between atoms: C_5  and  S_6
REMARK    3  A    between atoms: S_6  and  N_9
REMARK    4  A    between atoms: N_12  and  C_13
REMARK    5  A    between atoms: C_13  and  C_14
REMARK    6  A    between atoms: N_16  and  C_17
REMARK    7  A    between atoms: C_17  and  C_18
REMARK    8  A    between atoms: C_18  and  N_19
REMARK                            x       y       z     vdW  Elec       q    Type
REMARK                         _______ _______ _______ _____ _____    ______ ____
ROOT
ATOM      1  C   UNL     1       1.681   8.784  19.746  0.00  0.00    +0.000 C 
ENDROOT
BRANCH   1   5
ATOM      2  N   UNL     1      -0.172  11.874  20.687  0.00  0.00    +0.000 NA
ATOM      3  C   UNL     1       0.350  10.869  21.639  0.00  0.00    +0.000 C 
ATOM      4  C   UNL     1      -0.197   9.498  21.196  0.00  0.00    +0.000 C 
ATOM      5  N   UNL     1       0.233   9.085  19.834  0.00  0.00    +0.000 NA
ATOM      6  C   UNL     1      -0.145  10.168  18.884  0.00  0.00    +0.000 C 
ATOM      7  C   UNL     1       0.258  11.612  19.294  0.00  0.00    +0.000 C 
BRANCH   2   8
ATOM      8  S   UNL     1      -0.416  13.449  21.210  0.00  0.00    +0.000 S 
ATOM      9  O   UNL     1      -0.556  14.299  20.044  0.00  0.00    +0.000 OA
ATOM     10  O   UNL     1       0.575  13.737  22.224  0.00  0.00    +0.000 OA
BRANCH   8  15
ATOM     11  C   UNL     1      -5.779  12.822  23.977  0.00  0.00    +0.000 C 
ATOM     12  C   UNL     1      -4.464  13.048  23.287  0.00  0.00    +0.000 A 
ATOM     13  C   UNL     1      -4.370  12.948  21.895  0.00  0.00    +0.000 A 
ATOM     14  C   UNL     1      -3.136  13.101  21.257  0.00  0.00    +0.000 A 
ATOM     15  C   UNL     1      -1.997  13.387  22.015  0.00  0.00    +0.000 A 
ATOM     16  C   UNL     1      -2.079  13.493  23.405  0.00  0.00    +0.000 A 
ATOM     17  C   UNL     1      -3.317  13.331  24.036  0.00  0.00    +0.000 A 
ENDBRANCH   8  15
ENDBRANCH   2   8
ENDBRANCH   1   5
BRANCH   1  18
ATOM     18  C   UNL     1       2.005   7.325  20.118  0.00  0.00    +0.000 C 
ATOM     19  O   UNL     1       1.301   6.656  20.874  0.00  0.00    +0.000 OA
ATOM     20  N   UNL     1       3.172   6.837  19.576  0.00  0.00    +0.000 N 
ATOM     21  H   UNL     1       3.734   7.438  18.990  0.00  0.00    +0.000 HD
BRANCH  20  22
ATOM     22  C   UNL     1       3.579   5.444  19.726  0.00  0.00    +0.000 C 
BRANCH  22  23
ATOM     23  C   UNL     1       4.016   4.753  18.375  0.00  0.00    +0.000 C 
ATOM     24  C   UNL     1       4.560   3.337  18.711  0.00  0.00    +0.000 C 
ATOM     25  C   UNL     1       3.526   2.361  19.273  0.00  0.00    +0.000 C 
ATOM     26  C   UNL     1       2.347   2.223  18.323  0.00  0.00    +0.000 C 
ATOM     27  C   UNL     1       1.708   3.578  18.048  0.00  0.00    +0.000 C 
ATOM     28  C   UNL     1       2.730   4.576  17.489  0.00  0.00    +0.000 C 
BRANCH  23  29
ATOM     29  N   UNL     1       5.000   5.624  17.641  0.00  0.00    +0.000 NA
ATOM     30  C   UNL     1       5.197   5.397  16.191  0.00  0.00    +0.000 C 
ATOM     31  C   UNL     1       6.255   4.340  15.811  0.00  0.00    +0.000 C 
ATOM     32  O   UNL     1       7.512   4.579  16.450  0.00  0.00    +0.000 OA
ATOM     33  C   UNL     1       7.364   4.695  17.869  0.00  0.00    +0.000 C 
ATOM     34  C   UNL     1       6.349   5.788  18.239  0.00  0.00    +0.000 C 
ENDBRANCH  23  29
ENDBRANCH  22  23
ENDBRANCH  20  22
ENDBRANCH   1  18
TORSDOF 7
ENDMDL
MODEL 4
REMARK VINA RESULT:      -7.9      3.152      5.075
REMARK  Name = 
REMARK  8 active torsions:
REMARK  status: ('A' for Active; 'I' for Inactive)
REMARK    1  A    between atoms: C_1  and  C_2
REMARK    2  A    between atoms: C_5  and  S_6
REMARK    3  A    between atoms: S_6  and  N_9
REMARK    4  A    between atoms: N_12  and  C_13
REMARK    5  A    between atoms: C_13  and  C_14
REMARK    6  A    between atoms: N_16  and  C_17
REMARK    7  A    between atoms: C_17  and  C_18
REMARK    8  A    between atoms: C_18  and  N_19
REMARK                            x       y       z     vdW  Elec       q    Type
REMARK                         _______ _______ _______ _____ _____    ______ ____
ROOT
ATOM      1  C   UNL     1       0.962   7.094  20.737  0.00  0.00    +0.000 C 
ENDROOT
BRANCH   1   5
ATOM      2  N   UNL     1      -0.130  10.652  20.853  0.00  0.00    +0.000 NA
ATOM      3  C   UNL     1       0.014   9.844  19.623  0.00  0.00    +0.000 C 
ATOM      4  C   UNL     1       1.440   9.258  19.629  0.00  0.00    +0.000 C 
ATOM      5  N   UNL     1       1.723   8.365  20.784  0.00  0.00    +0.000 NA
ATOM      6  C   UNL     1       1.425   9.119  22.033  0.00  0.00    +0.000 C 
ATOM      7  C   UNL     1       0.054   9.848  22.084  0.00  0.00    +0.000 C 
BRANCH   2   8
ATOM      8  S   UNL     1      -1.175  11.964  20.854  0.00  0.00    +0.000 S 
ATOM      9  O   UNL     1      -1.534  12.259  22.227  0.00  0.00    +0.000 OA
ATOM     10  O   UNL     1      -2.194  11.720  19.856  0.00  0.00    +0.000 OA
BRANCH   8  15
ATOM     11  C   UNL     1       2.391  16.297  18.547  0.00  0.00    +0.000 C 
ATOM     12  C   UNL     1       1.492  15.270  19.172  0.00  0.00    +0.000 A 
ATOM     13  C   UNL     1       2.008  14.336  20.078  0.00  0.00    +0.000 A 
ATOM     14  C   UNL     1       1.184  13.343  20.615  0.00  0.00    +0.000 A 
ATOM     15  C   UNL     1      -0.169  13.306  20.269  0.00  0.00    +0.000 A 
ATOM     16  C   UNL     1      -0.697  14.234  19.370  0.00  0.00    +0.000 A 
ATOM     17  C   UNL     1       0.136  15.220  18.830  0.00  0.00    +0.000 A 
ENDBRANCH   8  15
ENDBRANCH   2   8
ENDBRANCH   1   5
BRANCH   1  18
ATOM     18  C   UNL     1       1.880   5.858  20.676  0.00  0.00    +0.000 C 
ATOM     19  O   UNL     1       1.622   4.806  21.260  0.00  0.00    +0.000 OA
ATOM     20  N   UNL     1       3.037   6.034  19.953  0.00  0.00    +0.000 N 
ATOM     21  H   UNL     1       3.220   6.929  19.523  0.00  0.00    +0.000 HD
BRANCH  20  22
ATOM     22  C   UNL     1       3.967   4.941  19.692  0.00  0.00    +0.000 C 
BRANCH  22  23
ATOM     23  C   UNL     1       4.129   4.586  18.162  0.00  0.00    +0.000 C 
ATOM     24  C   UNL     1       4.573   3.100  18.055  0.00  0.00    +0.000 C 
ATOM     25  C   UNL     1       3.542   2.078  18.535  0.00  0.00    +0.000 C 
ATOM     26  C   UNL     1       2.228   2.254  17.791  0.00  0.00    +0.000 C 
ATOM     27  C   UNL     1       1.693   3.670  17.958  0.00  0.00    +0.000 C 
ATOM     28  C   UNL     1       2.715   4.713  17.489  0.00  0.00    +0.000 C 
BRANCH  23  29
ATOM     29  N   UNL     1       5.075   5.552  17.502  0.00  0.00    +0.000 NA
ATOM     30  C   UNL     1       5.339   5.400  16.053  0.00  0.00    +0.000 C 
ATOM     31  C   UNL     1       6.481   4.436  15.671  0.00  0.00    +0.000 C 
ATOM     32  O   UNL     1       7.695   4.732  16.368  0.00  0.00    +0.000 OA
ATOM     33  C   UNL     1       7.489   4.778  17.783  0.00  0.00    +0.000 C 
ATOM     34  C   UNL     1       6.387   5.782  18.157  0.00  0.00    +0.000 C 
ENDBRANCH  23  29
ENDBRANCH  22  23
ENDBRANCH  20  22
ENDBRANCH   1  18
TORSDOF 7
ENDMDL
MODEL 5
REMARK VINA RESULT:      -7.8      2.020      3.461
REMARK  Name = 
REMARK  8 active torsions:
REMARK  status: ('A' for Active; 'I' for Inactive)
REMARK    1  A    between atoms: C_1  and  C_2
REMARK    2  A    between atoms: C_5  and  S_6
REMARK    3  A    between atoms: S_6  and  N_9
REMARK    4  A    between atoms: N_12  and  C_13
REMARK    5  A    between atoms: C_13  and  C_14
REMARK    6  A    between atoms: N_16  and  C_17
REMARK    7  A    between atoms: C_17  and  C_18
REMARK    8  A    between atoms: C_18  and  N_19
REMARK                            x       y       z     vdW  Elec       q    Type
REMARK                         _______ _______ _______ _____ _____    ______ ____
ROOT
ATOM      1  C   UNL     1       1.875   8.686  20.230  0.00  0.00    +0.000 C 
ENDROOT
BRANCH   1   5
ATOM      2  N   UNL     1      -0.120  11.742  20.968  0.00  0.00    +0.000 NA
ATOM      3  C   UNL     1      -0.406  10.390  21.493  0.00  0.00    +0.000 C 
ATOM      4  C   UNL     1      -0.484   9.440  20.281  0.00  0.00    +0.000 C 
ATOM      5  N   UNL     1       0.776   9.355  19.497  0.00  0.00    +0.000 NA
ATOM      6  C   UNL     1       1.164  10.736  19.097  0.00  0.00    +0.000 C 
ATOM      7  C   UNL     1       1.162  11.803  20.227  0.00  0.00    +0.000 C 
BRANCH   2   8
ATOM      8  S   UNL     1      -0.665  13.083  21.817  0.00  0.00    +0.000 S 
ATOM      9  O   UNL     1      -0.192  14.273  21.139  0.00  0.00    +0.000 OA
ATOM     10  O   UNL     1      -0.382  12.865  23.218  0.00  0.00    +0.000 OA
BRANCH   8  15
ATOM     11  C   UNL     1      -6.660  12.460  21.125  0.00  0.00    +0.000 C 
ATOM     12  C   UNL     1      -5.185  12.685  21.292  0.00  0.00    +0.000 A 
ATOM     13  C   UNL     1      -4.341  12.698  20.176  0.00  0.00    +0.000 A 
ATOM     14  C   UNL     1      -2.960  12.850  20.335  0.00  0.00    +0.000 A 
ATOM     15  C   UNL     1      -2.428  13.023  21.615  0.00  0.00    +0.000 A 
ATOM     16  C   UNL     1      -3.260  13.016  22.736  0.00  0.00    +0.000 A 
ATOM     17  C   UNL     1      -4.640  12.855  22.569  0.00  0.00    +0.000 A 
ENDBRANCH   8  15
ENDBRANCH   2   8
ENDBRANCH   1   5
BRANCH   1  18
ATOM     18  C   UNL     1       1.959   7.178  19.925  0.00  0.00    +0.000 C 
ATOM     19  O   UNL     1       1.643   6.313  20.742  0.00  0.00    +0.000 OA
ATOM     20  N   UNL     1       2.459   6.868  18.681  0.00  0.00    +0.000 N 
ATOM     21  H   UNL     1       2.738   7.615  18.060  0.00  0.00    +0.000 HD
BRANCH  20  22
ATOM     22  C   UNL     1       2.503   5.500  18.177  0.00  0.00    +0.000 C 
BRANCH  22  23
ATOM     23  C   UNL     1       3.956   4.885  18.111  0.00  0.00    +0.000 C 
ATOM     24  C   UNL     1       4.292   4.291  19.507  0.00  0.00    +0.000 C 
ATOM     25  C   UNL     1       3.436   3.096  19.927  0.00  0.00    +0.000 C 
ATOM     26  C   UNL     1       3.514   1.988  18.888  0.00  0.00    +0.000 C 
ATOM     27  C   UNL     1       3.087   2.497  17.517  0.00  0.00    +0.000 C 
ATOM     28  C   UNL     1       3.929   3.702  17.079  0.00  0.00    +0.000 C 
BRANCH  23  29
ATOM     29  N   UNL     1       4.938   5.924  17.641  0.00  0.00    +0.000 NA
ATOM     30  C   UNL     1       5.068   6.162  16.186  0.00  0.00    +0.000 C 
ATOM     31  C   UNL     1       6.075   5.260  15.441  0.00  0.00    +0.000 C 
ATOM     32  O   UNL     1       7.364   5.261  16.061  0.00  0.00    +0.000 OA
ATOM     33  C   UNL     1       7.277   4.927  17.450  0.00  0.00    +0.000 C 
ATOM     34  C   UNL     1       6.314   5.867  18.194  0.00  0.00    +0.000 C 
ENDBRANCH  23  29
ENDBRANCH  22  23
ENDBRANCH  20  22
ENDBRANCH   1  18
TORSDOF 7
ENDMDL
MODEL 6
REMARK VINA RESULT:      -7.8      1.899      3.208
REMARK  Name = 
REMARK  8 active torsions:
REMARK  status: ('A' for Active; 'I' for Inactive)
REMARK    1  A    between atoms: C_1  and  C_2
REMARK    2  A    between atoms: C_5  and  S_6
REMARK    3  A    between atoms: S_6  and  N_9
REMARK    4  A    between atoms: N_12  and  C_13
REMARK    5  A    between atoms: C_13  and  C_14
REMARK    6  A    between atoms: N_16  and  C_17
REMARK    7  A    between atoms: C_17  and  C_18
REMARK    8  A    between atoms: C_18  and  N_19
REMARK                            x       y       z     vdW  Elec       q    Type
REMARK                         _______ _______ _______ _____ _____    ______ ____
ROOT
ATOM      1  C   UNL     1       1.995   9.045  19.324  0.00  0.00    +0.000 C 
ENDROOT
BRANCH   1   5
ATOM      2  N   UNL     1      -0.107  11.846  20.587  0.00  0.00    +0.000 NA
ATOM      3  C   UNL     1       0.578  10.846  21.433  0.00  0.00    +0.000 C 
ATOM      4  C   UNL     1       0.150   9.454  20.926  0.00  0.00    +0.000 C 
ATOM      5  N   UNL     1       0.532   9.180  19.516  0.00  0.00    +0.000 NA
ATOM      6  C   UNL     1      -0.018  10.273  18.669  0.00  0.00    +0.000 C 
ATOM      7  C   UNL     1       0.257  11.724  19.156  0.00  0.00    +0.000 C 
BRANCH   2   8
ATOM      8  S   UNL     1      -0.481  13.349  21.233  0.00  0.00    +0.000 S 
ATOM      9  O   UNL     1      -0.604  14.295  20.143  0.00  0.00    +0.000 OA
ATOM     10  O   UNL     1       0.427  13.596  22.332  0.00  0.00    +0.000 OA
BRANCH   8  15
ATOM     11  C   UNL     1      -5.953  12.919  23.818  0.00  0.00    +0.000 C 
ATOM     12  C   UNL     1      -4.612  12.963  23.144  0.00  0.00    +0.000 A 
ATOM     13  C   UNL     1      -3.489  12.407  23.767  0.00  0.00    +0.000 A 
ATOM     14  C   UNL     1      -2.229  12.500  23.168  0.00  0.00    +0.000 A 
ATOM     15  C   UNL     1      -2.101  13.121  21.923  0.00  0.00    +0.000 A 
ATOM     16  C   UNL     1      -3.215  13.676  21.289  0.00  0.00    +0.000 A 
ATOM     17  C   UNL     1      -4.470  13.587  21.900  0.00  0.00    +0.000 A 
ENDBRANCH   8  15
ENDBRANCH   2   8
ENDBRANCH   1   5
BRANCH   1  18
ATOM     18  C   UNL     1       2.356   8.019  18.232  0.00  0.00    +0.000 C 
ATOM     19  O   UNL     1       2.625   8.342  17.076  0.00  0.00    +0.000 OA
ATOM     20  N   UNL     1       2.311   6.705  18.637  0.00  0.00    +0.000 N 
ATOM     21  H   UNL     1       2.049   6.490  19.589  0.00  0.00    +0.000 HD
BRANCH  20  22
ATOM     22  C   UNL     1       2.733   5.608  17.774  0.00  0.00    +0.000 C 
BRANCH  22  23
ATOM     23  C   UNL     1       4.126   4.978  18.168  0.00  0.00    +0.000 C 
ATOM     24  C   UNL     1       4.092   4.640  19.684  0.00  0.00    +0.000 C 
ATOM     25  C   UNL     1       3.099   3.548  20.084  0.00  0.00    +0.000 C 
ATOM     26  C   UNL     1       3.363   2.272  19.301  0.00  0.00    +0.000 C 
ATOM     27  C   UNL     1       3.298   2.530  17.802  0.00  0.00    +0.000 C 
ATOM     28  C   UNL     1       4.282   3.628  17.379  0.00  0.00    +0.000 C 
BRANCH  23  29
ATOM     29  N   UNL     1       5.244   5.906  17.777  0.00  0.00    +0.000 NA
ATOM     30  C   UNL     1       5.467   6.173  16.338  0.00  0.00    +0.000 C 
ATOM     31  C   UNL     1       6.392   5.181  15.602  0.00  0.00    +0.000 C 
ATOM     32  O   UNL     1       7.643   5.008  16.274  0.00  0.00    +0.000 OA
ATOM     33  C   UNL     1       7.455   4.642  17.645  0.00  0.00    +0.000 C 
ATOM     34  C   UNL     1       6.578   5.666  18.383  0.00  0.00    +0.000 C 
ENDBRANCH  23  29
ENDBRANCH  22  23
ENDBRANCH  20  22
ENDBRANCH   1  18
TORSDOF 7
ENDMDL
MODEL 7
REMARK VINA RESULT:      -7.8      1.614      2.017
REMARK  Name = 
REMARK  8 active torsions:
REMARK  status: ('A' for Active; 'I' for Inactive)
REMARK    1  A    between atoms: C_1  and  C_2
REMARK    2  A    between atoms: C_5  and  S_6
REMARK    3  A    between atoms: S_6  and  N_9
REMARK    4  A    between atoms: N_12  and  C_13
REMARK    5  A    between atoms: C_13  and  C_14
REMARK    6  A    between atoms: N_16  and  C_17
REMARK    7  A    between atoms: C_17  and  C_18
REMARK    8  A    between atoms: C_18  and  N_19
REMARK                            x       y       z     vdW  Elec       q    Type
REMARK                         _______ _______ _______ _____ _____    ______ ____
ROOT
ATOM      1  C   UNL     1       1.474   9.098  19.306  0.00  0.00    +0.000 C 
ENDROOT
BRANCH   1   5
ATOM      2  N   UNL     1      -0.254  11.869  21.094  0.00  0.00    +0.000 NA
ATOM      3  C   UNL     1      -0.793  10.504  20.914  0.00  0.00    +0.000 C 
ATOM      4  C   UNL     1      -0.746  10.194  19.405  0.00  0.00    +0.000 C 
ATOM      5  N   UNL     1       0.623  10.212  18.825  0.00  0.00    +0.000 NA
ATOM      6  C   UNL     1       1.240  11.529  19.142  0.00  0.00    +0.000 C 
ATOM      7  C   UNL     1       1.145  11.994  20.622  0.00  0.00    +0.000 C 
BRANCH   2   8
ATOM      8  S   UNL     1      -0.791  12.799  22.383  0.00  0.00    +0.000 S 
ATOM      9  O   UNL     1       0.166  13.864  22.607  0.00  0.00    +0.000 OA
ATOM     10  O   UNL     1      -1.164  11.899  23.453  0.00  0.00    +0.000 OA
BRANCH   8  15
ATOM     11  C   UNL     1      -5.961  15.485  20.689  0.00  0.00    +0.000 C 
ATOM     12  C   UNL     1      -4.674  14.796  21.041  0.00  0.00    +0.000 A 
ATOM     13  C   UNL     1      -4.686  13.488  21.538  0.00  0.00    +0.000 A 
ATOM     14  C   UNL     1      -3.494  12.867  21.921  0.00  0.00    +0.000 A 
ATOM     15  C   UNL     1      -2.282  13.546  21.773  0.00  0.00    +0.000 A 
ATOM     16  C   UNL     1      -2.257  14.850  21.274  0.00  0.00    +0.000 A 
ATOM     17  C   UNL     1      -3.455  15.468  20.901  0.00  0.00    +0.000 A 
ENDBRANCH   8  15
ENDBRANCH   2   8
ENDBRANCH   1   5
BRANCH   1  18
ATOM     18  C   UNL     1       2.338   8.488  18.186  0.00  0.00    +0.000 C 
ATOM     19  O   UNL     1       2.390   8.960  17.050  0.00  0.00    +0.000 OA
ATOM     20  N   UNL     1       3.017   7.344  18.539  0.00  0.00    +0.000 N 
ATOM     21  H   UNL     1       2.913   6.976  19.474  0.00  0.00    +0.000 HD
BRANCH  20  22
ATOM     22  C   UNL     1       3.970   6.696  17.646  0.00  0.00    +0.000 C 
BRANCH  22  23
ATOM     23  C   UNL     1       4.307   5.204  18.038  0.00  0.00    +0.000 C 
ATOM     24  C   UNL     1       4.727   4.448  16.747  0.00  0.00    +0.000 C 
ATOM     25  C   UNL     1       6.028   4.932  16.106  0.00  0.00    +0.000 C 
ATOM     26  C   UNL     1       7.172   4.875  17.105  0.00  0.00    +0.000 C 
ATOM     27  C   UNL     1       6.851   5.696  18.348  0.00  0.00    +0.000 C 
ATOM     28  C   UNL     1       5.545   5.230  19.004  0.00  0.00    +0.000 C 
BRANCH  23  29
ATOM     29  N   UNL     1       3.140   4.580  18.755  0.00  0.00    +0.000 NA
ATOM     30  C   UNL     1       3.413   3.713  19.924  0.00  0.00    +0.000 C 
ATOM     31  C   UNL     1       3.675   2.224  19.615  0.00  0.00    +0.000 C 
ATOM     32  O   UNL     1       2.647   1.651  18.802  0.00  0.00    +0.000 OA
ATOM     33  C   UNL     1       2.437   2.412  17.609  0.00  0.00    +0.000 C 
ATOM     34  C   UNL     1       2.122   3.882  17.930  0.00  0.00    +0.000 C 
ENDBRANCH  23  29
ENDBRANCH  22  23
ENDBRANCH  20  22
ENDBRANCH   1  18
TORSDOF 7
ENDMDL
MODEL 8
REMARK VINA RESULT:      -7.8      1.926      3.403
REMARK  Name = 
REMARK  8 active torsions:
REMARK  status: ('A' for Active; 'I' for Inactive)
REMARK    1  A    between atoms: C_1  and  C_2
REMARK    2  A    between atoms: C_5  and  S_6
REMARK    3  A    between atoms: S_6  and  N_9
REMARK    4  A    between atoms: N_12  and  C_13
REMARK    5  A    between atoms: C_13  and  C_14
REMARK    6  A    between atoms: N_16  and  C_17
REMARK    7  A    between atoms: C_17  and  C_18
REMARK    8  A    between atoms: C_18  and  N_19
REMARK                            x       y       z     vdW  Elec       q    Type
REMARK                         _______ _______ _______ _____ _____    ______ ____
ROOT
ATOM      1  C   UNL     1       1.589   9.016  19.290  0.00  0.00    +0.000 C 
ENDROOT
BRANCH   1   5
ATOM      2  N   UNL     1      -0.232  11.889  20.804  0.00  0.00    +0.000 NA
ATOM      3  C   UNL     1      -0.751  10.508  20.703  0.00  0.00    +0.000 C 
ATOM      4  C   UNL     1      -0.642  10.090  19.223  0.00  0.00    +0.000 C 
ATOM      5  N   UNL     1       0.749  10.082  18.697  0.00  0.00    +0.000 NA
ATOM      6  C   UNL     1       1.341  11.426  18.941  0.00  0.00    +0.000 C 
ATOM      7  C   UNL     1       1.184  11.995  20.379  0.00  0.00    +0.000 C 
BRANCH   2   8
ATOM      8  S   UNL     1      -0.828  12.903  22.001  0.00  0.00    +0.000 S 
ATOM      9  O   UNL     1      -0.322  14.239  21.758  0.00  0.00    +0.000 OA
ATOM     10  O   UNL     1      -0.623  12.252  23.276  0.00  0.00    +0.000 OA
BRANCH   8  15
ATOM     11  C   UNL     1      -6.786  12.596  20.898  0.00  0.00    +0.000 C 
ATOM     12  C   UNL     1      -5.318  12.744  21.176  0.00  0.00    +0.000 A 
ATOM     13  C   UNL     1      -4.409  12.876  20.121  0.00  0.00    +0.000 A 
ATOM     14  C   UNL     1      -3.036  12.955  20.376  0.00  0.00    +0.000 A 
ATOM     15  C   UNL     1      -2.577  12.935  21.695  0.00  0.00    +0.000 A 
ATOM     16  C   UNL     1      -3.474  12.807  22.757  0.00  0.00    +0.000 A 
ATOM     17  C   UNL     1      -4.846  12.720  22.493  0.00  0.00    +0.000 A 
ENDBRANCH   8  15
ENDBRANCH   2   8
ENDBRANCH   1   5
BRANCH   1  18
ATOM     18  C   UNL     1       2.201   8.084  18.227  0.00  0.00    +0.000 C 
ATOM     19  O   UNL     1       2.635   8.493  17.150  0.00  0.00    +0.000 OA
ATOM     20  N   UNL     1       2.184   6.747  18.553  0.00  0.00    +0.000 N 
ATOM     21  H   UNL     1       1.784   6.458  19.434  0.00  0.00    +0.000 HD
BRANCH  20  22
ATOM     22  C   UNL     1       2.822   5.733  17.720  0.00  0.00    +0.000 C 
BRANCH  22  23
ATOM     23  C   UNL     1       4.149   5.139  18.334  0.00  0.00    +0.000 C 
ATOM     24  C   UNL     1       3.935   4.956  19.862  0.00  0.00    +0.000 C 
ATOM     25  C   UNL     1       2.884   3.914  20.250  0.00  0.00    +0.000 C 
ATOM     26  C   UNL     1       3.215   2.564  19.634  0.00  0.00    +0.000 C 
ATOM     27  C   UNL     1       3.327   2.671  18.119  0.00  0.00    +0.000 C 
ATOM     28  C   UNL     1       4.372   3.716  17.707  0.00  0.00    +0.000 C 
BRANCH  23  29
ATOM     29  N   UNL     1       5.321   6.017  17.986  0.00  0.00    +0.000 NA
ATOM     30  C   UNL     1       5.505   6.418  16.572  0.00  0.00    +0.000 C 
ATOM     31  C   UNL     1       6.317   5.443  15.694  0.00  0.00    +0.000 C 
ATOM     32  O   UNL     1       7.576   5.107  16.282  0.00  0.00    +0.000 OA
ATOM     33  C   UNL     1       7.417   4.612  17.615  0.00  0.00    +0.000 C 
ATOM     34  C   UNL     1       6.655   5.615  18.497  0.00  0.00    +0.000 C 
ENDBRANCH  23  29
ENDBRANCH  22  23
ENDBRANCH  20  22
ENDBRANCH   1  18
TORSDOF 7
ENDMDL
MODEL 9
REMARK VINA RESULT:      -7.7      0.869      1.310
REMARK  Name = 
REMARK  8 active torsions:
REMARK  status: ('A' for Active; 'I' for Inactive)
REMARK    1  A    between atoms: C_1  and  C_2
REMARK    2  A    between atoms: C_5  and  S_6
REMARK    3  A    between atoms: S_6  and  N_9
REMARK    4  A    between atoms: N_12  and  C_13
REMARK    5  A    between atoms: C_13  and  C_14
REMARK    6  A    between atoms: N_16  and  C_17
REMARK    7  A    between atoms: C_17  and  C_18
REMARK    8  A    between atoms: C_18  and  N_19
REMARK                            x       y       z     vdW  Elec       q    Type
REMARK                         _______ _______ _______ _____ _____    ______ ____
ROOT
ATOM      1  C   UNL     1       1.484   9.730  19.532  0.00  0.00    +0.000 C 
ENDROOT
BRANCH   1   5
ATOM      2  N   UNL     1      -1.139  12.134  20.630  0.00  0.00    +0.000 NA
ATOM      3  C   UNL     1      -0.300  11.317  21.532  0.00  0.00    +0.000 C 
ATOM      4  C   UNL     1      -0.445   9.850  21.081  0.00  0.00    +0.000 C 
ATOM      5  N   UNL     1       0.017   9.595  19.692  0.00  0.00    +0.000 NA
ATOM      6  C   UNL     1      -0.706  10.529  18.787  0.00  0.00    +0.000 C 
ATOM      7  C   UNL     1      -0.721  12.024  19.212  0.00  0.00    +0.000 C 
BRANCH   2   8
ATOM      8  S   UNL     1      -1.804  13.565  21.201  0.00  0.00    +0.000 S 
ATOM      9  O   UNL     1      -1.604  14.592  20.198  0.00  0.00    +0.000 OA
ATOM     10  O   UNL     1      -1.347  13.755  22.560  0.00  0.00    +0.000 OA
BRANCH   8  15
ATOM     11  C   UNL     1      -7.657  11.997  21.512  0.00  0.00    +0.000 C 
ATOM     12  C   UNL     1      -6.230  12.452  21.418  0.00  0.00    +0.000 A 
ATOM     13  C   UNL     1      -5.528  12.333  20.213  0.00  0.00    +0.000 A 
ATOM     14  C   UNL     1      -4.181  12.702  20.140  0.00  0.00    +0.000 A 
ATOM     15  C   UNL     1      -3.546  13.223  21.269  0.00  0.00    +0.000 A 
ATOM     16  C   UNL     1      -4.236  13.351  22.476  0.00  0.00    +0.000 A 
ATOM     17  C   UNL     1      -5.581  12.971  22.544  0.00  0.00    +0.000 A 
ENDBRANCH   8  15
ENDBRANCH   2   8
ENDBRANCH   1   5
BRANCH   1  18
ATOM     18  C   UNL     1       2.041   8.841  18.404  0.00  0.00    +0.000 C 
ATOM     19  O   UNL     1       2.127   9.219  17.236  0.00  0.00    +0.000 OA
ATOM     20  N   UNL     1       2.395   7.570  18.794  0.00  0.00    +0.000 N 
ATOM     21  H   UNL     1       2.272   7.296  19.758  0.00  0.00    +0.000 HD
BRANCH  20  22
ATOM     22  C   UNL     1       3.046   6.629  17.888  0.00  0.00    +0.000 C 
BRANCH  22  23
ATOM     23  C   UNL     1       3.313   5.207  18.521  0.00  0.00    +0.000 C 
ATOM     24  C   UNL     1       3.623   4.216  17.365  0.00  0.00    +0.000 C 
ATOM     25  C   UNL     1       4.917   4.495  16.600  0.00  0.00    +0.000 C 
ATOM     26  C   UNL     1       6.104   4.533  17.549  0.00  0.00    +0.000 C 
ATOM     27  C   UNL     1       5.894   5.573  18.642  0.00  0.00    +0.000 C 
ATOM     28  C   UNL     1       4.597   5.315  19.419  0.00  0.00    +0.000 C 
BRANCH  23  29
ATOM     29  N   UNL     1       2.147   4.794  19.379  0.00  0.00    +0.000 NA
ATOM     30  C   UNL     1       2.418   4.336  20.761  0.00  0.00    +0.000 C 
ATOM     31  C   UNL     1       2.728   2.834  20.926  0.00  0.00    +0.000 C 
ATOM     32  O   UNL     1       1.734   2.006  20.315  0.00  0.00    +0.000 OA
ATOM     33  C   UNL     1       1.530   2.359  18.943  0.00  0.00    +0.000 C 
ATOM     34  C   UNL     1       1.167   3.845  18.795  0.00  0.00    +0.000 C 
ENDBRANCH  23  29
ENDBRANCH  22  23
ENDBRANCH  20  22
ENDBRANCH   1  18
TORSDOF 7
ENDMDL
