MODEL 1
REMARK VINA RESULT:      -7.8      0.000      0.000
REMARK  Name = 
REMARK  6 active torsions:
REMARK  status: ('A' for Active; 'I' for Inactive)
REMARK    1  A    between atoms: C_1  and  C_2
REMARK    2  A    between atoms: C_6  and  N_7
REMARK    3  A    between atoms: C_8  and  C_10
REMARK    4  A    between atoms: C_10  and  S_11
REMARK    5  A    between atoms: S_11  and  C_12
REMARK    6  A    between atoms: C_19  and  C_20
REMARK                            x       y       z     vdW  Elec       q    Type
REMARK                         _______ _______ _______ _____ _____    ______ ____
ROOT
ATOM      1  N   UNL     1       4.894   4.259  18.216  0.00  0.00    +0.000 N 
ATOM      2  C   UNL     1       6.193   4.627  18.518  0.00  0.00    +0.000 C 
ATOM      3  O   UNL     1       6.549   4.942  19.651  0.00  0.00    +0.000 OA
ATOM      4  H   UNL     1       4.691   3.917  17.284  0.00  0.00    +0.000 HD
ENDROOT
BRANCH   1  10
ATOM      5  C   UNL     1       2.495   2.671  21.575  0.00  0.00    +0.000 C 
ATOM      6  C   UNL     1       1.858   2.990  20.214  0.00  0.00    +0.000 C 
ATOM      7  C   UNL     1       1.084   4.318  20.271  0.00  0.00    +0.000 C 
ATOM      8  C   UNL     1       1.999   5.539  20.358  0.00  0.00    +0.000 C 
ATOM      9  C   UNL     1       3.077   5.548  19.275  0.00  0.00    +0.000 C 
ATOM     10  C   UNL     1       3.854   4.226  19.233  0.00  0.00    +0.000 C 
ATOM     11  C   UNL     1       2.914   3.006  19.076  0.00  0.00    +0.000 C 
ATOM     12  C   UNL     1       2.228   2.966  17.698  0.00  0.00    +0.000 C 
ENDBRANCH   1  10
BRANCH   2  13
ATOM     13  C   UNL     1       7.155   4.598  17.343  0.00  0.00    +0.000 C 
BRANCH  13  14
ATOM     14  S   UNL     1       6.839   5.992  16.202  0.00  0.00    +0.000 S 
BRANCH  14  15
ATOM     15  C   UNL     1       6.645   5.093  14.655  0.00  0.00    +0.000 A 
ATOM     16  C   UNL     1       5.532   4.241  14.527  0.00  0.00    +0.000 A 
ATOM     17  C   UNL     1       5.343   3.488  13.367  0.00  0.00    +0.000 A 
ATOM     18  C   UNL     1       6.263   3.577  12.329  0.00  0.00    +0.000 A 
ATOM     19  C   UNL     1       7.366   4.417  12.469  0.00  0.00    +0.000 A 
ATOM     20  N   UNL     1       7.582   5.170  13.616  0.00  0.00    +0.000 N 
ATOM     21  O   UNL     1       8.634   5.887  13.690  0.00  0.00    +0.000 OA
ENDBRANCH  14  15
ENDBRANCH  13  14
ENDBRANCH   2  13
TORSDOF 4
ENDMDL
MODEL 2
REMARK VINA RESULT:      -7.7      0.954      1.157
REMARK  Name = 
REMARK  6 active torsions:
REMARK  status: ('A' for Active; 'I' for Inactive)
REMARK    1  A    between atoms: C_1  and  C_2
REMARK    2  A    between atoms: C_6  and  N_7
REMARK    3  A    between atoms: C_8  and  C_10
REMARK    4  A    between atoms: C_10  and  S_11
REMARK    5  A    between atoms: S_11  and  C_12
REMARK    6  A    between atoms: C_19  and  C_20
REMARK                            x       y       z     vdW  Elec       q    Type
REMARK                         _______ _______ _______ _____ _____    ______ ____
ROOT
ATOM      1  N   UNL     1       4.876   3.864  17.700  0.00  0.00    +0.000 N 
ATOM      2  C   UNL     1       6.031   4.438  18.201  0.00  0.00    +0.000 C 
ATOM      3  O   UNL     1       6.107   4.896  19.338  0.00  0.00    +0.000 OA
ATOM      4  H   UNL     1       4.911   3.418  16.791  0.00  0.00    +0.000 HD
ENDROOT
BRANCH   1  10
ATOM      5  C   UNL     1       2.378   3.489  21.331  0.00  0.00    +0.000 C 
ATOM      6  C   UNL     1       2.326   2.441  20.209  0.00  0.00    +0.000 C 
ATOM      7  C   UNL     1       1.067   2.628  19.346  0.00  0.00    +0.000 C 
ATOM      8  C   UNL     1       1.130   3.872  18.459  0.00  0.00    +0.000 C 
ATOM      9  C   UNL     1       2.412   3.941  17.630  0.00  0.00    +0.000 C 
ATOM     10  C   UNL     1       3.663   3.768  18.499  0.00  0.00    +0.000 C 
ATOM     11  C   UNL     1       3.611   2.468  19.339  0.00  0.00    +0.000 C 
ATOM     12  C   UNL     1       3.703   1.202  18.467  0.00  0.00    +0.000 C 
ENDBRANCH   1  10
BRANCH   2  13
ATOM     13  C   UNL     1       7.207   4.448  17.240  0.00  0.00    +0.000 C 
BRANCH  13  14
ATOM     14  S   UNL     1       7.128   5.892  16.121  0.00  0.00    +0.000 S 
BRANCH  14  15
ATOM     15  C   UNL     1       6.872   5.057  14.548  0.00  0.00    +0.000 A 
ATOM     16  C   UNL     1       5.784   4.171  14.445  0.00  0.00    +0.000 A 
ATOM     17  C   UNL     1       5.551   3.463  13.265  0.00  0.00    +0.000 A 
ATOM     18  C   UNL     1       6.404   3.631  12.180  0.00  0.00    +0.000 A 
ATOM     19  C   UNL     1       7.483   4.504  12.294  0.00  0.00    +0.000 A 
ATOM     20  N   UNL     1       7.742   5.213  13.460  0.00  0.00    +0.000 N 
ATOM     21  O   UNL     1       8.771   5.965  13.506  0.00  0.00    +0.000 OA
ENDBRANCH  14  15
ENDBRANCH  13  14
ENDBRANCH   2  13
TORSDOF 4
ENDMDL
MODEL 3
REMARK VINA RESULT:      -7.5      1.447      2.044
REMARK  Name = 
REMARK  6 active torsions:
REMARK  status: ('A' for Active; 'I' for Inactive)
REMARK    1  A    between atoms: C_1  and  C_2
REMARK    2  A    between atoms: C_6  and  N_7
REMARK    3  A    between atoms: C_8  and  C_10
REMARK    4  A    between atoms: C_10  and  S_11
REMARK    5  A    between atoms: S_11  and  C_12
REMARK    6  A    between atoms: C_19  and  C_20
REMARK                            x       y       z     vdW  Elec       q    Type
REMARK                         _______ _______ _______ _____ _____    ______ ____
ROOT
ATOM      1  N   UNL     1       3.915   4.838  17.128  0.00  0.00    +0.000 N 
ATOM      2  C   UNL     1       4.297   6.167  17.110  0.00  0.00    +0.000 C 
ATOM      3  O   UNL     1       3.826   7.006  17.875  0.00  0.00    +0.000 OA
ATOM      4  H   UNL     1       4.414   4.183  16.538  0.00  0.00    +0.000 HD
ENDROOT
BRANCH   1  10
ATOM      5  C   UNL     1       1.347   4.773  20.728  0.00  0.00    +0.000 C 
ATOM      6  C   UNL     1       2.373   3.664  20.454  0.00  0.00    +0.000 C 
ATOM      7  C   UNL     1       1.679   2.399  19.920  0.00  0.00    +0.000 C 
ATOM      8  C   UNL     1       1.166   2.559  18.489  0.00  0.00    +0.000 C 
ATOM      9  C   UNL     1       2.238   3.075  17.531  0.00  0.00    +0.000 C 
ATOM     10  C   UNL     1       2.916   4.343  18.063  0.00  0.00    +0.000 C 
ATOM     11  C   UNL     1       3.489   4.140  19.487  0.00  0.00    +0.000 C 
ATOM     12  C   UNL     1       4.679   3.164  19.507  0.00  0.00    +0.000 C 
ENDBRANCH   1  10
BRANCH   2  13
ATOM     13  C   UNL     1       5.358   6.514  16.080  0.00  0.00    +0.000 C 
BRANCH  13  14
ATOM     14  S   UNL     1       6.722   5.297  16.109  0.00  0.00    +0.000 S 
BRANCH  14  15
ATOM     15  C   UNL     1       6.665   4.722  14.405  0.00  0.00    +0.000 A 
ATOM     16  C   UNL     1       5.645   3.819  14.051  0.00  0.00    +0.000 A 
ATOM     17  C   UNL     1       5.567   3.307  12.755  0.00  0.00    +0.000 A 
ATOM     18  C   UNL     1       6.506   3.688  11.804  0.00  0.00    +0.000 A 
ATOM     19  C   UNL     1       7.517   4.575  12.166  0.00  0.00    +0.000 A 
ATOM     20  N   UNL     1       7.623   5.092  13.451  0.00  0.00    +0.000 N 
ATOM     21  O   UNL     1       8.597   5.870  13.722  0.00  0.00    +0.000 OA
ENDBRANCH  14  15
ENDBRANCH  13  14
ENDBRANCH   2  13
TORSDOF 4
ENDMDL
MODEL 4
REMARK VINA RESULT:      -7.4      1.254      1.537
REMARK  Name = 
REMARK  6 active torsions:
REMARK  status: ('A' for Active; 'I' for Inactive)
REMARK    1  A    between atoms: C_1  and  C_2
REMARK    2  A    between atoms: C_6  and  N_7
REMARK    3  A    between atoms: C_8  and  C_10
REMARK    4  A    between atoms: C_10  and  S_11
REMARK    5  A    between atoms: S_11  and  C_12
REMARK    6  A    between atoms: C_19  and  C_20
REMARK                            x       y       z     vdW  Elec       q    Type
REMARK                         _______ _______ _______ _____ _____    ______ ____
ROOT
ATOM      1  N   UNL     1       4.975   3.972  18.337  0.00  0.00    +0.000 N 
ATOM      2  C   UNL     1       6.169   4.611  18.623  0.00  0.00    +0.000 C 
ATOM      3  O   UNL     1       6.378   5.185  19.688  0.00  0.00    +0.000 OA
ATOM      4  H   UNL     1       4.905   3.436  17.481  0.00  0.00    +0.000 HD
ENDROOT
BRANCH   1  10
ATOM      5  C   UNL     1       2.501   2.506  21.697  0.00  0.00    +0.000 C 
ATOM      6  C   UNL     1       1.931   2.636  20.276  0.00  0.00    +0.000 C 
ATOM      7  C   UNL     1       1.047   3.889  20.156  0.00  0.00    +0.000 C 
ATOM      8  C   UNL     1       1.851   5.189  20.172  0.00  0.00    +0.000 C 
ATOM      9  C   UNL     1       2.993   5.190  19.156  0.00  0.00    +0.000 C 
ATOM     10  C   UNL     1       3.877   3.945  19.291  0.00  0.00    +0.000 C 
ATOM     11  C   UNL     1       3.053   2.636  19.205  0.00  0.00    +0.000 C 
ATOM     12  C   UNL     1       2.465   2.405  17.802  0.00  0.00    +0.000 C 
ENDBRANCH   1  10
BRANCH   2  13
ATOM     13  C   UNL     1       7.212   4.536  17.521  0.00  0.00    +0.000 C 
BRANCH  13  14
ATOM     14  S   UNL     1       7.029   5.927  16.348  0.00  0.00    +0.000 S 
BRANCH  14  15
ATOM     15  C   UNL     1       6.734   5.016  14.825  0.00  0.00    +0.000 A 
ATOM     16  C   UNL     1       7.664   5.167  13.780  0.00  0.00    +0.000 A 
ATOM     17  C   UNL     1       7.474   4.516  12.559  0.00  0.00    +0.000 A 
ATOM     18  C   UNL     1       6.355   3.714  12.371  0.00  0.00    +0.000 A 
ATOM     19  C   UNL     1       5.436   3.578  13.409  0.00  0.00    +0.000 A 
ATOM     20  N   UNL     1       5.597   4.221  14.630  0.00  0.00    +0.000 N 
ATOM     21  O   UNL     1       4.695   4.081  15.521  0.00  0.00    +0.000 OA
ENDBRANCH  14  15
ENDBRANCH  13  14
ENDBRANCH   2  13
TORSDOF 4
ENDMDL
MODEL 5
REMARK VINA RESULT:      -6.9      0.851      1.446
REMARK  Name = 
REMARK  6 active torsions:
REMARK  status: ('A' for Active; 'I' for Inactive)
REMARK    1  A    between atoms: C_1  and  C_2
REMARK    2  A    between atoms: C_6  and  N_7
REMARK    3  A    between atoms: C_8  and  C_10
REMARK    4  A    between atoms: C_10  and  S_11
REMARK    5  A    between atoms: S_11  and  C_12
REMARK    6  A    between atoms: C_19  and  C_20
REMARK                            x       y       z     vdW  Elec       q    Type
REMARK                         _______ _______ _______ _____ _____    ______ ____
ROOT
ATOM      1  N   UNL     1       4.808   3.431  17.725  0.00  0.00    +0.000 N 
ATOM      2  C   UNL     1       5.864   4.195  18.190  0.00  0.00    +0.000 C 
ATOM      3  O   UNL     1       5.888   4.680  19.319  0.00  0.00    +0.000 OA
ATOM      4  H   UNL     1       4.898   2.981  16.822  0.00  0.00    +0.000 HD
ENDROOT
BRANCH   1  10
ATOM      5  C   UNL     1       0.662   2.237  18.696  0.00  0.00    +0.000 C 
ATOM      6  C   UNL     1       1.191   3.642  19.024  0.00  0.00    +0.000 C 
ATOM      7  C   UNL     1       1.520   3.765  20.521  0.00  0.00    +0.000 C 
ATOM      8  C   UNL     1       2.768   2.979  20.925  0.00  0.00    +0.000 C 
ATOM      9  C   UNL     1       3.975   3.293  20.042  0.00  0.00    +0.000 C 
ATOM     10  C   UNL     1       3.643   3.155  18.551  0.00  0.00    +0.000 C 
ATOM     11  C   UNL     1       2.418   4.012  18.148  0.00  0.00    +0.000 C 
ATOM     12  C   UNL     1       2.706   5.522  18.228  0.00  0.00    +0.000 C 
ENDBRANCH   1  10
BRANCH   2  13
ATOM     13  C   UNL     1       7.004   4.378  17.203  0.00  0.00    +0.000 C 
BRANCH  13  14
ATOM     14  S   UNL     1       6.708   5.819  16.118  0.00  0.00    +0.000 S 
BRANCH  14  15
ATOM     15  C   UNL     1       6.619   4.996  14.521  0.00  0.00    +0.000 A 
ATOM     16  C   UNL     1       5.542   4.119  14.293  0.00  0.00    +0.000 A 
ATOM     17  C   UNL     1       5.435   3.422  13.089  0.00  0.00    +0.000 A 
ATOM     18  C   UNL     1       6.401   3.591  12.105  0.00  0.00    +0.000 A 
ATOM     19  C   UNL     1       7.468   4.454  12.342  0.00  0.00    +0.000 A 
ATOM     20  N   UNL     1       7.603   5.154  13.535  0.00  0.00    +0.000 N 
ATOM     21  O   UNL     1       8.626   5.898  13.698  0.00  0.00    +0.000 OA
ENDBRANCH  14  15
ENDBRANCH  13  14
ENDBRANCH   2  13
TORSDOF 4
ENDMDL
MODEL 6
REMARK VINA RESULT:      -6.8      1.905      2.295
REMARK  Name = 
REMARK  6 active torsions:
REMARK  status: ('A' for Active; 'I' for Inactive)
REMARK    1  A    between atoms: C_1  and  C_2
REMARK    2  A    between atoms: C_6  and  N_7
REMARK    3  A    between atoms: C_8  and  C_10
REMARK    4  A    between atoms: C_10  and  S_11
REMARK    5  A    between atoms: S_11  and  C_12
REMARK    6  A    between atoms: C_19  and  C_20
REMARK                            x       y       z     vdW  Elec       q    Type
REMARK                         _______ _______ _______ _____ _____    ______ ____
ROOT
ATOM      1  N   UNL     1       5.000   4.097  19.355  0.00  0.00    +0.000 N 
ATOM      2  C   UNL     1       5.475   5.395  19.420  0.00  0.00    +0.000 C 
ATOM      3  O   UNL     1       4.734   6.374  19.465  0.00  0.00    +0.000 OA
ATOM      4  H   UNL     1       5.664   3.335  19.420  0.00  0.00    +0.000 HD
ENDROOT
BRANCH   1  10
ATOM      5  C   UNL     1       1.043   2.867  20.900  0.00  0.00    +0.000 C 
ATOM      6  C   UNL     1       1.730   2.106  19.756  0.00  0.00    +0.000 C 
ATOM      7  C   UNL     1       1.102   2.473  18.401  0.00  0.00    +0.000 C 
ATOM      8  C   UNL     1       1.454   3.889  17.945  0.00  0.00    +0.000 C 
ATOM      9  C   UNL     1       2.957   4.163  17.974  0.00  0.00    +0.000 C 
ATOM     10  C   UNL     1       3.575   3.807  19.332  0.00  0.00    +0.000 C 
ATOM     11  C   UNL     1       3.263   2.347  19.747  0.00  0.00    +0.000 C 
ATOM     12  C   UNL     1       3.970   1.318  18.845  0.00  0.00    +0.000 C 
ENDBRANCH   1  10
BRANCH   2  13
ATOM     13  C   UNL     1       6.989   5.521  19.446  0.00  0.00    +0.000 C 
BRANCH  13  14
ATOM     14  S   UNL     1       7.576   6.650  18.133  0.00  0.00    +0.000 S 
BRANCH  14  15
ATOM     15  C   UNL     1       6.827   5.874  16.693  0.00  0.00    +0.000 A 
ATOM     16  C   UNL     1       5.727   6.520  16.097  0.00  0.00    +0.000 A 
ATOM     17  C   UNL     1       5.078   5.951  15.000  0.00  0.00    +0.000 A 
ATOM     18  C   UNL     1       5.518   4.735  14.491  0.00  0.00    +0.000 A 
ATOM     19  C   UNL     1       6.602   4.100  15.093  0.00  0.00    +0.000 A 
ATOM     20  N   UNL     1       7.260   4.640  16.191  0.00  0.00    +0.000 N 
ATOM     21  O   UNL     1       8.221   3.984  16.715  0.00  0.00    +0.000 OA
ENDBRANCH  14  15
ENDBRANCH  13  14
ENDBRANCH   2  13
TORSDOF 4
ENDMDL
MODEL 7
REMARK VINA RESULT:      -6.7      1.348      1.980
REMARK  Name = 
REMARK  6 active torsions:
REMARK  status: ('A' for Active; 'I' for Inactive)
REMARK    1  A    between atoms: C_1  and  C_2
REMARK    2  A    between atoms: C_6  and  N_7
REMARK    3  A    between atoms: C_8  and  C_10
REMARK    4  A    between atoms: C_10  and  S_11
REMARK    5  A    between atoms: S_11  and  C_12
REMARK    6  A    between atoms: C_19  and  C_20
REMARK                            x       y       z     vdW  Elec       q    Type
REMARK                         _______ _______ _______ _____ _____    ______ ____
ROOT
ATOM      1  N   UNL     1       4.812   3.457  18.675  0.00  0.00    +0.000 N 
ATOM      2  C   UNL     1       4.875   3.836  17.346  0.00  0.00    +0.000 C 
ATOM      3  O   UNL     1       3.882   3.910  16.626  0.00  0.00    +0.000 OA
ATOM      4  H   UNL     1       5.654   3.512  19.235  0.00  0.00    +0.000 HD
ENDROOT
BRANCH   1  10
ATOM      5  C   UNL     1       0.464   2.721  19.022  0.00  0.00    +0.000 C 
ATOM      6  C   UNL     1       1.162   3.813  19.847  0.00  0.00    +0.000 C 
ATOM      7  C   UNL     1       1.370   3.351  21.299  0.00  0.00    +0.000 C 
ATOM      8  C   UNL     1       2.447   2.275  21.435  0.00  0.00    +0.000 C 
ATOM      9  C   UNL     1       3.762   2.667  20.762  0.00  0.00    +0.000 C 
ATOM     10  C   UNL     1       3.549   3.113  19.311  0.00  0.00    +0.000 C 
ATOM     11  C   UNL     1       2.504   4.251  19.201  0.00  0.00    +0.000 C 
ATOM     12  C   UNL     1       3.002   5.567  19.823  0.00  0.00    +0.000 C 
ENDBRANCH   1  10
BRANCH   2  13
ATOM     13  C   UNL     1       6.269   4.171  16.843  0.00  0.00    +0.000 C 
BRANCH  13  14
ATOM     14  S   UNL     1       6.241   5.649  15.767  0.00  0.00    +0.000 S 
BRANCH  14  15
ATOM     15  C   UNL     1       6.429   4.868  14.157  0.00  0.00    +0.000 A 
ATOM     16  C   UNL     1       5.425   3.973  13.741  0.00  0.00    +0.000 A 
ATOM     17  C   UNL     1       5.529   3.306  12.519  0.00  0.00    +0.000 A 
ATOM     18  C   UNL     1       6.634   3.524  11.705  0.00  0.00    +0.000 A 
ATOM     19  C   UNL     1       7.626   4.406  12.130  0.00  0.00    +0.000 A 
ATOM     20  N   UNL     1       7.552   5.075  13.344  0.00  0.00    +0.000 N 
ATOM     21  O   UNL     1       8.516   5.838  13.686  0.00  0.00    +0.000 OA
ENDBRANCH  14  15
ENDBRANCH  13  14
ENDBRANCH   2  13
TORSDOF 4
ENDMDL
MODEL 8
REMARK VINA RESULT:      -6.6      1.444      2.046
REMARK  Name = 
REMARK  6 active torsions:
REMARK  status: ('A' for Active; 'I' for Inactive)
REMARK    1  A    between atoms: C_1  and  C_2
REMARK    2  A    between atoms: C_6  and  N_7
REMARK    3  A    between atoms: C_8  and  C_10
REMARK    4  A    between atoms: C_10  and  S_11
REMARK    5  A    between atoms: S_11  and  C_12
REMARK    6  A    between atoms: C_19  and  C_20
REMARK                            x       y       z     vdW  Elec       q    Type
REMARK                         _______ _______ _______ _____ _____    ______ ____
ROOT
ATOM      1  N   UNL     1       3.912   3.037  17.843  0.00  0.00    +0.000 N 
ATOM      2  C   UNL     1       4.619   4.008  17.157  0.00  0.00    +0.000 C 
ATOM      3  O   UNL     1       4.368   5.207  17.252  0.00  0.00    +0.000 OA
ATOM      4  H   UNL     1       4.234   2.078  17.795  0.00  0.00    +0.000 HD
ENDROOT
BRANCH   1  10
ATOM      5  C   UNL     1       1.599   5.390  20.788  0.00  0.00    +0.000 C 
ATOM      6  C   UNL     1       2.062   3.957  21.091  0.00  0.00    +0.000 C 
ATOM      7  C   UNL     1       0.896   2.965  20.948  0.00  0.00    +0.000 C 
ATOM      8  C   UNL     1       0.478   2.741  19.495  0.00  0.00    +0.000 C 
ATOM      9  C   UNL     1       1.656   2.378  18.591  0.00  0.00    +0.000 C 
ATOM     10  C   UNL     1       2.810   3.379  18.728  0.00  0.00    +0.000 C 
ATOM     11  C   UNL     1       3.264   3.542  20.200  0.00  0.00    +0.000 C 
ATOM     12  C   UNL     1       3.935   2.271  20.751  0.00  0.00    +0.000 C 
ENDBRANCH   1  10
BRANCH   2  13
ATOM     13  C   UNL     1       5.745   3.481  16.283  0.00  0.00    +0.000 C 
BRANCH  13  14
ATOM     14  S   UNL     1       6.830   4.840  15.720  0.00  0.00    +0.000 S 
BRANCH  14  15
ATOM     15  C   UNL     1       6.812   4.542  13.946  0.00  0.00    +0.000 A 
ATOM     16  C   UNL     1       5.862   3.632  13.444  0.00  0.00    +0.000 A 
ATOM     17  C   UNL     1       5.819   3.329  12.082  0.00  0.00    +0.000 A 
ATOM     18  C   UNL     1       6.723   3.928  11.212  0.00  0.00    +0.000 A 
ATOM     19  C   UNL     1       7.664   4.821  11.720  0.00  0.00    +0.000 A 
ATOM     20  N   UNL     1       7.734   5.133  13.072  0.00  0.00    +0.000 N 
ATOM     21  O   UNL     1       8.647   5.929  13.472  0.00  0.00    +0.000 OA
ENDBRANCH  14  15
ENDBRANCH  13  14
ENDBRANCH   2  13
TORSDOF 4
ENDMDL
MODEL 9
REMARK VINA RESULT:      -6.5      5.271      8.029
REMARK  Name = 
REMARK  6 active torsions:
REMARK  status: ('A' for Active; 'I' for Inactive)
REMARK    1  A    between atoms: C_1  and  C_2
REMARK    2  A    between atoms: C_6  and  N_7
REMARK    3  A    between atoms: C_8  and  C_10
REMARK    4  A    between atoms: C_10  and  S_11
REMARK    5  A    between atoms: S_11  and  C_12
REMARK    6  A    between atoms: C_19  and  C_20
REMARK                            x       y       z     vdW  Elec       q    Type
REMARK                         _______ _______ _______ _____ _____    ______ ____
ROOT
ATOM      1  N   UNL     1       8.770   8.770  18.915  0.00  0.00    +0.000 N 
ATOM      2  C   UNL     1       8.153   7.842  18.095  0.00  0.00    +0.000 C 
ATOM      3  O   UNL     1       7.899   8.062  16.913  0.00  0.00    +0.000 OA
ATOM      4  H   UNL     1       9.038   8.488  19.850  0.00  0.00    +0.000 HD
ENDROOT
BRANCH   1  10
ATOM      5  C   UNL     1      11.465  12.045  17.661  0.00  0.00    +0.000 C 
ATOM      6  C   UNL     1      10.486  12.215  18.833  0.00  0.00    +0.000 C 
ATOM      7  C   UNL     1       9.261  13.042  18.404  0.00  0.00    +0.000 C 
ATOM      8  C   UNL     1       8.326  12.279  17.466  0.00  0.00    +0.000 C 
ATOM      9  C   UNL     1       7.932  10.907  18.011  0.00  0.00    +0.000 C 
ATOM     10  C   UNL     1       9.158  10.084  18.423  0.00  0.00    +0.000 C 
ATOM     11  C   UNL     1      10.058  10.846  19.426  0.00  0.00    +0.000 C 
ATOM     12  C   UNL     1       9.381  11.036  20.796  0.00  0.00    +0.000 C 
ENDBRANCH   1  10
BRANCH   2  13
ATOM     13  C   UNL     1       7.824   6.519  18.764  0.00  0.00    +0.000 C 
BRANCH  13  14
ATOM     14  S   UNL     1       7.084   5.347  17.571  0.00  0.00    +0.000 S 
BRANCH  14  15
ATOM     15  C   UNL     1       5.351   5.478  18.036  0.00  0.00    +0.000 A 
ATOM     16  C   UNL     1       4.611   6.556  17.514  0.00  0.00    +0.000 A 
ATOM     17  C   UNL     1       3.272   6.735  17.866  0.00  0.00    +0.000 A 
ATOM     18  C   UNL     1       2.662   5.845  18.741  0.00  0.00    +0.000 A 
ATOM     19  C   UNL     1       3.405   4.786  19.258  0.00  0.00    +0.000 A 
ATOM     20  N   UNL     1       4.741   4.589  18.932  0.00  0.00    +0.000 N 
ATOM     21  O   UNL     1       5.370   3.621  19.474  0.00  0.00    +0.000 OA
ENDBRANCH  14  15
ENDBRANCH  13  14
ENDBRANCH   2  13
TORSDOF 4
ENDMDL
