MODEL 1
REMARK VINA RESULT:      -9.2      0.000      0.000
REMARK  Name = 
REMARK  5 active torsions:
REMARK  status: ('A' for Active; 'I' for Inactive)
REMARK    1  A    between atoms: C_1  and  C_2
REMARK    2  A    between atoms: C_2  and  C_3
REMARK    3  A    between atoms: C_6  and  C_7
REMARK    4  A    between atoms: N_9  and  C_10
REMARK    5  A    between atoms: C_10  and  N_11
REMARK                            x       y       z     vdW  Elec       q    Type
REMARK                         _______ _______ _______ _____ _____    ______ ____
ROOT
ATOM      1  C   UNL     1       3.217   6.514  18.255  0.00  0.00    +0.000 C 
ATOM      2  N   UNL     1       2.715   7.746  18.198  0.00  0.00    +0.000 NA
ATOM      3  N   UNL     1       1.773   8.284  19.266  0.00  0.00    +0.000 N 
ATOM      4  C   UNL     1       1.593   7.511  20.411  0.00  0.00    +0.000 C 
ATOM      5  O   UNL     1       0.862   7.875  21.333  0.00  0.00    +0.000 OA
ATOM      6  C   UNL     1       2.379   6.186  20.571  0.00  0.00    +0.000 C 
ATOM      7  C   UNL     1       2.868   5.509  19.322  0.00  0.00    +0.000 C 
ENDROOT
BRANCH   1  11
ATOM      8  C   UNL     1       5.758   4.603  15.156  0.00  0.00    +0.000 A 
ATOM      9  C   UNL     1       5.705   5.999  15.267  0.00  0.00    +0.000 A 
ATOM     10  C   UNL     1       4.936   6.635  16.284  0.00  0.00    +0.000 A 
ATOM     11  C   UNL     1       4.139   5.890  17.167  0.00  0.00    +0.000 A 
ATOM     12  C   UNL     1       4.300   4.492  17.122  0.00  0.00    +0.000 A 
ATOM     13  C   UNL     1       5.085   3.861  16.131  0.00  0.00    +0.000 A 
BRANCH   8  15
ATOM     14  C   UNL     1       5.556   3.630  12.831  0.00  0.00    +0.000 C 
ATOM     15  C   UNL     1       6.479   3.896  14.021  0.00  0.00    +0.000 C 
ENDBRANCH   8  15
ENDBRANCH   1  11
BRANCH   3  16
ATOM     16  C   UNL     1       1.067   9.826  19.009  0.00  0.00    +0.000 C 
BRANCH  16  17
ATOM     17  N   UNL     1      -0.529  10.234  18.603  0.00  0.00    +0.000 N 
ATOM     18  C   UNL     1      -0.593  11.658  18.691  0.00  0.00    +0.000 A 
ATOM     19  C   UNL     1      -1.801  11.522  19.317  0.00  0.00    +0.000 A 
ATOM     20  C   UNL     1      -2.487  11.070  18.185  0.00  0.00    +0.000 A 
ATOM     21  C   UNL     1      -3.781  11.632  17.809  0.00  0.00    +0.000 A 
ATOM     22  C   UNL     1      -4.445  11.456  16.633  0.00  0.00    +0.000 A 
ATOM     23  C   UNL     1      -3.800  10.570  15.834  0.00  0.00    +0.000 A 
ATOM     24  C   UNL     1      -2.511   9.921  16.282  0.00  0.00    +0.000 A 
ATOM     25  C   UNL     1      -1.478  10.059  17.455  0.00  0.00    +0.000 A 
ENDBRANCH  16  17
ENDBRANCH   3  16
TORSDOF 4
ENDMDL
MODEL 2
REMARK VINA RESULT:      -9.1      3.205      8.610
REMARK  Name = 
REMARK  5 active torsions:
REMARK  status: ('A' for Active; 'I' for Inactive)
REMARK    1  A    between atoms: C_1  and  C_2
REMARK    2  A    between atoms: C_2  and  C_3
REMARK    3  A    between atoms: C_6  and  C_7
REMARK    4  A    between atoms: N_9  and  C_10
REMARK    5  A    between atoms: C_10  and  N_11
REMARK                            x       y       z     vdW  Elec       q    Type
REMARK                         _______ _______ _______ _____ _____    ______ ____
ROOT
ATOM      1  C   UNL     1       2.425   6.534  19.350  0.00  0.00    +0.000 C 
ATOM      2  N   UNL     1       3.263   5.860  18.565  0.00  0.00    +0.000 NA
ATOM      3  N   UNL     1       3.670   4.424  18.862  0.00  0.00    +0.000 N 
ATOM      4  C   UNL     1       2.993   3.765  19.888  0.00  0.00    +0.000 C 
ATOM      5  O   UNL     1       3.246   2.597  20.188  0.00  0.00    +0.000 OA
ATOM      6  C   UNL     1       1.847   4.488  20.636  0.00  0.00    +0.000 C 
ATOM      7  C   UNL     1       1.849   5.992  20.632  0.00  0.00    +0.000 C 
ENDROOT
BRANCH   1  11
ATOM      8  C   UNL     1       1.262  10.793  18.874  0.00  0.00    +0.000 A 
ATOM      9  C   UNL     1       1.883  10.106  17.822  0.00  0.00    +0.000 A 
ATOM     10  C   UNL     1       2.221   8.726  17.933  0.00  0.00    +0.000 A 
ATOM     11  C   UNL     1       2.017   8.019  19.128  0.00  0.00    +0.000 A 
ATOM     12  C   UNL     1       1.282   8.687  20.126  0.00  0.00    +0.000 A 
ATOM     13  C   UNL     1       0.920  10.048  20.006  0.00  0.00    +0.000 A 
BRANCH   8  15
ATOM     14  C   UNL     1       2.186  13.077  18.312  0.00  0.00    +0.000 C 
ATOM     15  C   UNL     1       0.985  12.286  18.830  0.00  0.00    +0.000 C 
ENDBRANCH   8  15
ENDBRANCH   1  11
BRANCH   3  16
ATOM     16  C   UNL     1       4.871   3.709  17.870  0.00  0.00    +0.000 C 
BRANCH  16  17
ATOM     17  N   UNL     1       5.589   4.289  16.445  0.00  0.00    +0.000 N 
ATOM     18  C   UNL     1       6.992   4.312  16.707  0.00  0.00    +0.000 A 
ATOM     19  C   UNL     1       7.044   5.534  16.094  0.00  0.00    +0.000 A 
ATOM     20  C   UNL     1       6.793   5.046  14.807  0.00  0.00    +0.000 A 
ATOM     21  C   UNL     1       7.603   5.465  13.668  0.00  0.00    +0.000 A 
ATOM     22  C   UNL     1       7.622   4.912  12.423  0.00  0.00    +0.000 A 
ATOM     23  C   UNL     1       6.682   3.943  12.302  0.00  0.00    +0.000 A 
ATOM     24  C   UNL     1       5.782   3.591  13.465  0.00  0.00    +0.000 A 
ATOM     25  C   UNL     1       5.659   3.927  14.992  0.00  0.00    +0.000 A 
ENDBRANCH  16  17
ENDBRANCH   3  16
TORSDOF 4
ENDMDL
MODEL 3
REMARK VINA RESULT:      -9.0      2.559      8.738
REMARK  Name = 
REMARK  5 active torsions:
REMARK  status: ('A' for Active; 'I' for Inactive)
REMARK    1  A    between atoms: C_1  and  C_2
REMARK    2  A    between atoms: C_2  and  C_3
REMARK    3  A    between atoms: C_6  and  C_7
REMARK    4  A    between atoms: N_9  and  C_10
REMARK    5  A    between atoms: C_10  and  N_11
REMARK                            x       y       z     vdW  Elec       q    Type
REMARK                         _______ _______ _______ _____ _____    ______ ____
ROOT
ATOM      1  C   UNL     1       2.331   6.428  19.792  0.00  0.00    +0.000 C 
ATOM      2  N   UNL     1       3.398   6.000  19.120  0.00  0.00    +0.000 NA
ATOM      3  N   UNL     1       3.934   4.584  19.272  0.00  0.00    +0.000 N 
ATOM      4  C   UNL     1       3.162   3.681  20.002  0.00  0.00    +0.000 C 
ATOM      5  O   UNL     1       3.510   2.511  20.163  0.00  0.00    +0.000 OA
ATOM      6  C   UNL     1       1.796   4.131  20.575  0.00  0.00    +0.000 C 
ATOM      7  C   UNL     1       1.586   5.601  20.808  0.00  0.00    +0.000 C 
ENDROOT
BRANCH   1  11
ATOM      8  C   UNL     1       0.712  10.547  19.428  0.00  0.00    +0.000 A 
ATOM      9  C   UNL     1       0.664   9.872  20.656  0.00  0.00    +0.000 A 
ATOM     10  C   UNL     1       1.221   8.570  20.810  0.00  0.00    +0.000 A 
ATOM     11  C   UNL     1       1.770   7.878  19.719  0.00  0.00    +0.000 A 
ATOM     12  C   UNL     1       1.922   8.615  18.529  0.00  0.00    +0.000 A 
ATOM     13  C   UNL     1       1.395   9.919  18.384  0.00  0.00    +0.000 A 
BRANCH   8  15
ATOM     14  C   UNL     1      -1.387  11.730  18.663  0.00  0.00    +0.000 C 
ATOM     15  C   UNL     1       0.036  11.888  19.201  0.00  0.00    +0.000 C 
ENDBRANCH   8  15
ENDBRANCH   1  11
BRANCH   3  16
ATOM     16  C   UNL     1       5.403   4.193  18.478  0.00  0.00    +0.000 C 
BRANCH  16  17
ATOM     17  N   UNL     1       5.909   4.548  16.898  0.00  0.00    +0.000 N 
ATOM     18  C   UNL     1       7.335   4.477  16.929  0.00  0.00    +0.000 A 
ATOM     19  C   UNL     1       7.366   5.615  16.170  0.00  0.00    +0.000 A 
ATOM     20  C   UNL     1       6.871   5.011  15.009  0.00  0.00    +0.000 A 
ATOM     21  C   UNL     1       7.506   5.230  13.713  0.00  0.00    +0.000 A 
ATOM     22  C   UNL     1       7.279   4.543  12.558  0.00  0.00    +0.000 A 
ATOM     23  C   UNL     1       6.268   3.651  12.709  0.00  0.00    +0.000 A 
ATOM     24  C   UNL     1       5.553   3.510  14.033  0.00  0.00    +0.000 A 
ATOM     25  C   UNL     1       5.710   4.022  15.508  0.00  0.00    +0.000 A 
ENDBRANCH  16  17
ENDBRANCH   3  16
TORSDOF 4
ENDMDL
MODEL 4
REMARK VINA RESULT:      -9.0      1.136      1.899
REMARK  Name = 
REMARK  5 active torsions:
REMARK  status: ('A' for Active; 'I' for Inactive)
REMARK    1  A    between atoms: C_1  and  C_2
REMARK    2  A    between atoms: C_2  and  C_3
REMARK    3  A    between atoms: C_6  and  C_7
REMARK    4  A    between atoms: N_9  and  C_10
REMARK    5  A    between atoms: C_10  and  N_11
REMARK                            x       y       z     vdW  Elec       q    Type
REMARK                         _______ _______ _______ _____ _____    ______ ____
ROOT
ATOM      1  C   UNL     1       2.631   7.295  18.615  0.00  0.00    +0.000 C 
ATOM      2  N   UNL     1       2.175   8.498  18.275  0.00  0.00    +0.000 NA
ATOM      3  N   UNL     1       1.211   9.276  19.159  0.00  0.00    +0.000 N 
ATOM      4  C   UNL     1       0.958   8.770  20.433  0.00  0.00    +0.000 C 
ATOM      5  O   UNL     1       0.203   9.341  21.221  0.00  0.00    +0.000 OA
ATOM      6  C   UNL     1       1.689   7.490  20.906  0.00  0.00    +0.000 C 
ATOM      7  C   UNL     1       2.204   6.549  19.853  0.00  0.00    +0.000 C 
ENDROOT
BRANCH   1  11
ATOM      8  C   UNL     1       5.207   4.714  16.082  0.00  0.00    +0.000 A 
ATOM      9  C   UNL     1       5.406   6.100  16.113  0.00  0.00    +0.000 A 
ATOM     10  C   UNL     1       4.624   6.944  16.955  0.00  0.00    +0.000 A 
ATOM     11  C   UNL     1       3.573   6.430  17.729  0.00  0.00    +0.000 A 
ATOM     12  C   UNL     1       3.469   5.026  17.781  0.00  0.00    +0.000 A 
ATOM     13  C   UNL     1       4.263   4.186  16.967  0.00  0.00    +0.000 A 
BRANCH   8  15
ATOM     14  C   UNL     1       6.722   4.585  14.063  0.00  0.00    +0.000 C 
ATOM     15  C   UNL     1       5.946   3.800  15.120  0.00  0.00    +0.000 C 
ENDBRANCH   8  15
ENDBRANCH   1  11
BRANCH   3  16
ATOM     16  C   UNL     1       0.570  10.745  18.548  0.00  0.00    +0.000 C 
BRANCH  16  17
ATOM     17  N   UNL     1      -1.044  11.207  18.305  0.00  0.00    +0.000 N 
ATOM     18  C   UNL     1      -1.724  10.018  17.900  0.00  0.00    +0.000 A 
ATOM     19  C   UNL     1      -2.372  10.762  16.952  0.00  0.00    +0.000 A 
ATOM     20  C   UNL     1      -3.150  11.486  17.861  0.00  0.00    +0.000 A 
ATOM     21  C   UNL     1      -4.584  11.662  17.657  0.00  0.00    +0.000 A 
ATOM     22  C   UNL     1      -5.492  12.137  18.556  0.00  0.00    +0.000 A 
ATOM     23  C   UNL     1      -4.883  12.557  19.692  0.00  0.00    +0.000 A 
ATOM     24  C   UNL     1      -3.382  12.460  19.846  0.00  0.00    +0.000 A 
ATOM     25  C   UNL     1      -2.166  11.828  19.082  0.00  0.00    +0.000 A 
ENDBRANCH  16  17
ENDBRANCH   3  16
TORSDOF 4
ENDMDL
MODEL 5
REMARK VINA RESULT:      -8.9      3.140      8.666
REMARK  Name = 
REMARK  5 active torsions:
REMARK  status: ('A' for Active; 'I' for Inactive)
REMARK    1  A    between atoms: C_1  and  C_2
REMARK    2  A    between atoms: C_2  and  C_3
REMARK    3  A    between atoms: C_6  and  C_7
REMARK    4  A    between atoms: N_9  and  C_10
REMARK    5  A    between atoms: C_10  and  N_11
REMARK                            x       y       z     vdW  Elec       q    Type
REMARK                         _______ _______ _______ _____ _____    ______ ____
ROOT
ATOM      1  C   UNL     1       2.471   6.015  19.374  0.00  0.00    +0.000 C 
ATOM      2  N   UNL     1       3.072   5.369  18.377  0.00  0.00    +0.000 NA
ATOM      3  N   UNL     1       3.531   3.925  18.510  0.00  0.00    +0.000 N 
ATOM      4  C   UNL     1       3.138   3.230  19.654  0.00  0.00    +0.000 C 
ATOM      5  O   UNL     1       3.450   2.053  19.838  0.00  0.00    +0.000 OA
ATOM      6  C   UNL     1       2.229   3.926  20.696  0.00  0.00    +0.000 C 
ATOM      7  C   UNL     1       2.241   5.428  20.742  0.00  0.00    +0.000 C 
ENDROOT
BRANCH   1  11
ATOM      8  C   UNL     1       1.193  10.255  19.049  0.00  0.00    +0.000 A 
ATOM      9  C   UNL     1       1.081   9.573  20.268  0.00  0.00    +0.000 A 
ATOM     10  C   UNL     1       1.529   8.228  20.410  0.00  0.00    +0.000 A 
ATOM     11  C   UNL     1       2.030   7.506  19.315  0.00  0.00    +0.000 A 
ATOM     12  C   UNL     1       2.251   8.242  18.135  0.00  0.00    +0.000 A 
ATOM     13  C   UNL     1       1.832   9.586  18.002  0.00  0.00    +0.000 A 
BRANCH   8  15
ATOM     14  C   UNL     1       1.718  12.660  18.474  0.00  0.00    +0.000 C 
ATOM     15  C   UNL     1       0.629  11.649  18.833  0.00  0.00    +0.000 C 
ENDBRANCH   8  15
ENDBRANCH   1  11
BRANCH   3  16
ATOM     16  C   UNL     1       4.429   3.246  17.217  0.00  0.00    +0.000 C 
BRANCH  16  17
ATOM     17  N   UNL     1       5.305   4.014  15.984  0.00  0.00    +0.000 N 
ATOM     18  C   UNL     1       6.633   4.155  16.490  0.00  0.00    +0.000 A 
ATOM     19  C   UNL     1       6.648   5.424  15.978  0.00  0.00    +0.000 A 
ATOM     20  C   UNL     1       6.674   5.024  14.638  0.00  0.00    +0.000 A 
ATOM     21  C   UNL     1       7.612   5.619  13.689  0.00  0.00    +0.000 A 
ATOM     22  C   UNL     1       7.903   5.178  12.433  0.00  0.00    +0.000 A 
ATOM     23  C   UNL     1       7.113   4.133  12.085  0.00  0.00    +0.000 A 
ATOM     24  C   UNL     1       6.076   3.595  13.044  0.00  0.00    +0.000 A 
ATOM     25  C   UNL     1       5.660   3.786  14.545  0.00  0.00    +0.000 A 
ENDBRANCH  16  17
ENDBRANCH   3  16
TORSDOF 4
ENDMDL
MODEL 6
REMARK VINA RESULT:      -8.8      1.614      2.874
REMARK  Name = 
REMARK  5 active torsions:
REMARK  status: ('A' for Active; 'I' for Inactive)
REMARK    1  A    between atoms: C_1  and  C_2
REMARK    2  A    between atoms: C_2  and  C_3
REMARK    3  A    between atoms: C_6  and  C_7
REMARK    4  A    between atoms: N_9  and  C_10
REMARK    5  A    between atoms: C_10  and  N_11
REMARK                            x       y       z     vdW  Elec       q    Type
REMARK                         _______ _______ _______ _____ _____    ______ ____
ROOT
ATOM      1  C   UNL     1       2.836   6.705  18.602  0.00  0.00    +0.000 C 
ATOM      2  N   UNL     1       2.492   7.987  18.491  0.00  0.00    +0.000 NA
ATOM      3  N   UNL     1       1.573   8.666  19.496  0.00  0.00    +0.000 N 
ATOM      4  C   UNL     1       1.245   7.953  20.648  0.00  0.00    +0.000 C 
ATOM      5  O   UNL     1       0.520   8.430  21.523  0.00  0.00    +0.000 OA
ATOM      6  C   UNL     1       1.854   6.548  20.878  0.00  0.00    +0.000 C 
ATOM      7  C   UNL     1       2.315   5.781  19.671  0.00  0.00    +0.000 C 
ENDROOT
BRANCH   1  11
ATOM      8  C   UNL     1       5.477   4.653  15.681  0.00  0.00    +0.000 A 
ATOM      9  C   UNL     1       4.590   3.914  16.475  0.00  0.00    +0.000 A 
ATOM     10  C   UNL     1       3.698   4.553  17.384  0.00  0.00    +0.000 A 
ATOM     11  C   UNL     1       3.726   5.943  17.577  0.00  0.00    +0.000 A 
ATOM     12  C   UNL     1       4.531   6.678  16.686  0.00  0.00    +0.000 A 
ATOM     13  C   UNL     1       5.396   6.046  15.763  0.00  0.00    +0.000 A 
BRANCH   8  15
ATOM     14  C   UNL     1       6.008   3.835  13.348  0.00  0.00    +0.000 C 
ATOM     15  C   UNL     1       6.513   4.001  14.782  0.00  0.00    +0.000 C 
ENDBRANCH   8  15
ENDBRANCH   1  11
BRANCH   3  16
ATOM     16  C   UNL     1       1.075  10.274  19.168  0.00  0.00    +0.000 C 
BRANCH  16  17
ATOM     17  N   UNL     1      -0.166  11.190  19.875  0.00  0.00    +0.000 N 
ATOM     18  C   UNL     1      -1.361  10.800  19.198  0.00  0.00    +0.000 A 
ATOM     19  C   UNL     1      -1.716  12.121  19.153  0.00  0.00    +0.000 A 
ATOM     20  C   UNL     1      -1.948  12.241  20.528  0.00  0.00    +0.000 A 
ATOM     21  C   UNL     1      -3.156  12.883  21.037  0.00  0.00    +0.000 A 
ATOM     22  C   UNL     1      -3.617  12.869  22.319  0.00  0.00    +0.000 A 
ATOM     23  C   UNL     1      -2.739  12.255  23.150  0.00  0.00    +0.000 A 
ATOM     24  C   UNL     1      -1.443  11.685  22.620  0.00  0.00    +0.000 A 
ATOM     25  C   UNL     1      -0.765  11.417  21.230  0.00  0.00    +0.000 A 
ENDBRANCH  16  17
ENDBRANCH   3  16
TORSDOF 4
ENDMDL
MODEL 7
REMARK VINA RESULT:      -8.8      2.990      8.839
REMARK  Name = 
REMARK  5 active torsions:
REMARK  status: ('A' for Active; 'I' for Inactive)
REMARK    1  A    between atoms: C_1  and  C_2
REMARK    2  A    between atoms: C_2  and  C_3
REMARK    3  A    between atoms: C_6  and  C_7
REMARK    4  A    between atoms: N_9  and  C_10
REMARK    5  A    between atoms: C_10  and  N_11
REMARK                            x       y       z     vdW  Elec       q    Type
REMARK                         _______ _______ _______ _____ _____    ______ ____
ROOT
ATOM      1  C   UNL     1       2.297   6.246  19.895  0.00  0.00    +0.000 C 
ATOM      2  N   UNL     1       3.398   5.912  19.223  0.00  0.00    +0.000 NA
ATOM      3  N   UNL     1       3.924   4.484  19.195  0.00  0.00    +0.000 N 
ATOM      4  C   UNL     1       3.115   3.491  19.745  0.00  0.00    +0.000 C 
ATOM      5  O   UNL     1       3.454   2.307  19.752  0.00  0.00    +0.000 OA
ATOM      6  C   UNL     1       1.722   3.864  20.307  0.00  0.00    +0.000 C 
ATOM      7  C   UNL     1       1.501   5.287  20.740  0.00  0.00    +0.000 C 
ENDROOT
BRANCH   1  11
ATOM      8  C   UNL     1       0.743  10.378  20.368  0.00  0.00    +0.000 A 
ATOM      9  C   UNL     1       1.216   9.937  19.125  0.00  0.00    +0.000 A 
ATOM     10  C   UNL     1       1.675   8.601  18.935  0.00  0.00    +0.000 A 
ATOM     11  C   UNL     1       1.743   7.695  20.006  0.00  0.00    +0.000 A 
ATOM     12  C   UNL     1       1.150   8.114  21.212  0.00  0.00    +0.000 A 
ATOM     13  C   UNL     1       0.669   9.431  21.393  0.00  0.00    +0.000 A 
BRANCH   8  15
ATOM     14  C   UNL     1      -0.491  12.404  19.495  0.00  0.00    +0.000 C 
ATOM     15  C   UNL     1       0.349  11.821  20.631  0.00  0.00    +0.000 C 
ENDBRANCH   8  15
ENDBRANCH   1  11
BRANCH   3  16
ATOM     16  C   UNL     1       5.432   4.201  18.428  0.00  0.00    +0.000 C 
BRANCH  16  17
ATOM     17  N   UNL     1       5.923   4.544  16.840  0.00  0.00    +0.000 N 
ATOM     18  C   UNL     1       7.349   4.484  16.861  0.00  0.00    +0.000 A 
ATOM     19  C   UNL     1       7.365   5.615  16.090  0.00  0.00    +0.000 A 
ATOM     20  C   UNL     1       6.865   4.997  14.939  0.00  0.00    +0.000 A 
ATOM     21  C   UNL     1       7.488   5.209  13.636  0.00  0.00    +0.000 A 
ATOM     22  C   UNL     1       7.257   4.509  12.490  0.00  0.00    +0.000 A 
ATOM     23  C   UNL     1       6.254   3.612  12.657  0.00  0.00    +0.000 A 
ATOM     24  C   UNL     1       5.551   3.477  13.988  0.00  0.00    +0.000 A 
ATOM     25  C   UNL     1       5.716   4.005  15.457  0.00  0.00    +0.000 A 
ENDBRANCH  16  17
ENDBRANCH   3  16
TORSDOF 4
ENDMDL
MODEL 8
REMARK VINA RESULT:      -8.6      2.438      8.852
REMARK  Name = 
REMARK  5 active torsions:
REMARK  status: ('A' for Active; 'I' for Inactive)
REMARK    1  A    between atoms: C_1  and  C_2
REMARK    2  A    between atoms: C_2  and  C_3
REMARK    3  A    between atoms: C_6  and  C_7
REMARK    4  A    between atoms: N_9  and  C_10
REMARK    5  A    between atoms: C_10  and  N_11
REMARK                            x       y       z     vdW  Elec       q    Type
REMARK                         _______ _______ _______ _____ _____    ______ ____
ROOT
ATOM      1  C   UNL     1       2.784   6.414  19.527  0.00  0.00    +0.000 C 
ATOM      2  N   UNL     1       3.861   6.200  18.775  0.00  0.00    +0.000 NA
ATOM      3  N   UNL     1       4.673   4.917  18.874  0.00  0.00    +0.000 N 
ATOM      4  C   UNL     1       4.148   3.884  19.650  0.00  0.00    +0.000 C 
ATOM      5  O   UNL     1       4.729   2.805  19.774  0.00  0.00    +0.000 OA
ATOM      6  C   UNL     1       2.767   4.062  20.326  0.00  0.00    +0.000 C 
ATOM      7  C   UNL     1       2.292   5.464  20.587  0.00  0.00    +0.000 C 
ENDROOT
BRANCH   1  11
ATOM      8  C   UNL     1       0.373  10.137  19.322  0.00  0.00    +0.000 A 
ATOM      9  C   UNL     1       0.527   9.460  20.539  0.00  0.00    +0.000 A 
ATOM     10  C   UNL     1       1.336   8.290  20.641  0.00  0.00    +0.000 A 
ATOM     11  C   UNL     1       1.947   7.727  19.510  0.00  0.00    +0.000 A 
ATOM     12  C   UNL     1       1.884   8.486  18.326  0.00  0.00    +0.000 A 
ATOM     13  C   UNL     1       1.105   9.662  18.231  0.00  0.00    +0.000 A 
BRANCH   8  15
ATOM     14  C   UNL     1      -1.741  10.996  18.234  0.00  0.00    +0.000 C 
ATOM     15  C   UNL     1      -0.565  11.321  19.155  0.00  0.00    +0.000 C 
ENDBRANCH   8  15
ENDBRANCH   1  11
BRANCH   3  16
ATOM     16  C   UNL     1       6.127   4.816  17.970  0.00  0.00    +0.000 C 
BRANCH  16  17
ATOM     17  N   UNL     1       6.365   4.411  16.339  0.00  0.00    +0.000 N 
ATOM     18  C   UNL     1       5.061   4.396  15.756  0.00  0.00    +0.000 A 
ATOM     19  C   UNL     1       5.415   3.249  15.099  0.00  0.00    +0.000 A 
ATOM     20  C   UNL     1       6.330   3.866  14.240  0.00  0.00    +0.000 A 
ATOM     21  C   UNL     1       6.323   3.593  12.806  0.00  0.00    +0.000 A 
ATOM     22  C   UNL     1       6.989   4.277  11.834  0.00  0.00    +0.000 A 
ATOM     23  C   UNL     1       7.793   5.230  12.368  0.00  0.00    +0.000 A 
ATOM     24  C   UNL     1       7.863   5.432  13.864  0.00  0.00    +0.000 A 
ATOM     25  C   UNL     1       7.114   4.930  15.149  0.00  0.00    +0.000 A 
ENDBRANCH  16  17
ENDBRANCH   3  16
TORSDOF 4
ENDMDL
MODEL 9
REMARK VINA RESULT:      -8.6      1.432      2.493
REMARK  Name = 
REMARK  5 active torsions:
REMARK  status: ('A' for Active; 'I' for Inactive)
REMARK    1  A    between atoms: C_1  and  C_2
REMARK    2  A    between atoms: C_2  and  C_3
REMARK    3  A    between atoms: C_6  and  C_7
REMARK    4  A    between atoms: N_9  and  C_10
REMARK    5  A    between atoms: C_10  and  N_11
REMARK                            x       y       z     vdW  Elec       q    Type
REMARK                         _______ _______ _______ _____ _____    ______ ____
ROOT
ATOM      1  C   UNL     1       2.399   7.487  18.748  0.00  0.00    +0.000 C 
ATOM      2  N   UNL     1       1.854   8.597  18.254  0.00  0.00    +0.000 NA
ATOM      3  N   UNL     1       0.944   9.490  19.085  0.00  0.00    +0.000 N 
ATOM      4  C   UNL     1       0.842   9.210  20.447  0.00  0.00    +0.000 C 
ATOM      5  O   UNL     1       0.141   9.889  21.199  0.00  0.00    +0.000 OA
ATOM      6  C   UNL     1       1.678   8.058  21.056  0.00  0.00    +0.000 C 
ATOM      7  C   UNL     1       2.131   6.961  20.134  0.00  0.00    +0.000 C 
ENDROOT
BRANCH   1  11
ATOM      8  C   UNL     1       5.062   4.798  16.426  0.00  0.00    +0.000 A 
ATOM      9  C   UNL     1       3.965   4.278  17.126  0.00  0.00    +0.000 A 
ATOM     10  C   UNL     1       3.068   5.125  17.838  0.00  0.00    +0.000 A 
ATOM     11  C   UNL     1       3.290   6.508  17.931  0.00  0.00    +0.000 A 
ATOM     12  C   UNL     1       4.320   7.027  17.123  0.00  0.00    +0.000 A 
ATOM     13  C   UNL     1       5.194   6.189  16.394  0.00  0.00    +0.000 A 
BRANCH   8  15
ATOM     14  C   UNL     1       6.839   4.655  14.634  0.00  0.00    +0.000 C 
ATOM     15  C   UNL     1       6.096   3.917  15.748  0.00  0.00    +0.000 C 
ENDBRANCH   8  15
ENDBRANCH   1  11
BRANCH   3  16
ATOM     16  C   UNL     1       0.176  10.807  18.300  0.00  0.00    +0.000 C 
BRANCH  16  17
ATOM     17  N   UNL     1      -1.431  11.343  18.400  0.00  0.00    +0.000 N 
ATOM     18  C   UNL     1      -2.233  10.201  18.098  0.00  0.00    +0.000 A 
ATOM     19  C   UNL     1      -3.019  11.011  17.324  0.00  0.00    +0.000 A 
ATOM     20  C   UNL     1      -3.566  11.725  18.395  0.00  0.00    +0.000 A 
ATOM     21  C   UNL     1      -5.003  11.967  18.488  0.00  0.00    +0.000 A 
ATOM     22  C   UNL     1      -5.691  12.437  19.566  0.00  0.00    +0.000 A 
ATOM     23  C   UNL     1      -4.850  12.783  20.572  0.00  0.00    +0.000 A 
ATOM     24  C   UNL     1      -3.355  12.619  20.420  0.00  0.00    +0.000 A 
ATOM     25  C   UNL     1      -2.346  11.973  19.406  0.00  0.00    +0.000 A 
ENDBRANCH  16  17
ENDBRANCH   3  16
TORSDOF 4
ENDMDL
