MODEL 1
REMARK VINA RESULT:      -7.7      0.000      0.000
REMARK  Name = 
REMARK  11 active torsions:
REMARK  status: ('A' for Active; 'I' for Inactive)
REMARK    1  A    between atoms: C_1  and  C_2
REMARK    2  A    between atoms: C_2  and  C_3
REMARK    3  A    between atoms: C_3  and  C_4
REMARK    4  A    between atoms: N_6  and  C_7
REMARK    5  A    between atoms: C_10  and  O_11
REMARK    6  A    between atoms: O_11  and  C_12
REMARK    7  A    between atoms: C_12  and  C_13
REMARK    8  A    between atoms: N_21  and  N_22
REMARK    9  A    between atoms: C_23  and  C_25
REMARK   10  A    between atoms: N_27  and  C_28
REMARK   11  A    between atoms: C_31  and  C_32
REMARK                            x       y       z     vdW  Elec       q    Type
REMARK                         _______ _______ _______ _____ _____    ______ ____
ROOT
ATOM      1  C   UNL     1      -1.050  12.367  19.893  0.00  0.00    +0.000 C 
ATOM      2  C   UNL     1      -0.047  12.750  20.970  0.00  0.00    +0.000 C 
ATOM      3  N   UNL     1       0.732  11.887  21.565  0.00  0.00    +0.000 NA
ENDROOT
BRANCH   3   4
ATOM      4  N   UNL     1       0.618  10.589  21.168  0.00  0.00    +0.000 N 
ATOM      5  C   UNL     1       1.138   9.551  21.908  0.00  0.00    +0.000 C 
ATOM      6  O   UNL     1       1.716   9.610  22.980  0.00  0.00    +0.000 OA
ATOM      7  H   UNL     1       0.188  10.333  20.282  0.00  0.00    +0.000 HD
BRANCH   5   8
ATOM      8  C   UNL     1       0.894   8.203  21.195  0.00  0.00    +0.000 C 
ATOM      9  O   UNL     1      -0.255   7.772  21.206  0.00  0.00    +0.000 OA
ATOM     10  N   UNL     1       2.024   7.615  20.668  0.00  0.00    +0.000 N 
ATOM     11  H   UNL     1       2.903   8.091  20.865  0.00  0.00    +0.000 HD
BRANCH  10  12
ATOM     12  C   UNL     1       2.061   6.381  19.976  0.00  0.00    +0.000 A 
ATOM     13  C   UNL     1       2.360   6.288  18.613  0.00  0.00    +0.000 A 
ATOM     14  C   UNL     1       2.378   5.053  17.958  0.00  0.00    +0.000 A 
ATOM     15  C   UNL     1       2.091   3.873  18.650  0.00  0.00    +0.000 A 
ATOM     16  C   UNL     1       2.126   2.566  17.909  0.00  0.00    +0.000 C 
ATOM     17  C   UNL     1       1.787   3.964  20.017  0.00  0.00    +0.000 A 
ATOM     18 CL   UNL     1       1.380   2.556  20.935  0.00  0.00    +0.000 Cl
ATOM     19  C   UNL     1       1.790   5.204  20.679  0.00  0.00    +0.000 A 
ENDBRANCH  10  12
ENDBRANCH   5   8
ENDBRANCH   3   4
BRANCH   2  20
ATOM     20  C   UNL     1       0.120  14.218  21.328  0.00  0.00    +0.000 C 
BRANCH  20  21
ATOM     21  C   UNL     1       1.379  14.847  20.780  0.00  0.00    +0.000 C 
ATOM     22  O   UNL     1       1.413  16.061  20.589  0.00  0.00    +0.000 OA
ATOM     23  N   UNL     1       2.403  13.963  20.478  0.00  0.00    +0.000 N 
ATOM     24  H   UNL     1       2.212  12.971  20.543  0.00  0.00    +0.000 HD
BRANCH  23  25
ATOM     25  C   UNL     1       3.693  14.335  20.022  0.00  0.00    +0.000 A 
ATOM     26  C   UNL     1       4.000  14.429  18.664  0.00  0.00    +0.000 A 
ATOM     27  C   UNL     1       5.264  14.817  18.231  0.00  0.00    +0.000 A 
ATOM     28  C   UNL     1       6.244  15.171  19.153  0.00  0.00    +0.000 A 
ATOM     29  C   UNL     1       5.968  15.045  20.515  0.00  0.00    +0.000 A 
ATOM     30  C   UNL     1       4.696  14.640  20.950  0.00  0.00    +0.000 A 
BRANCH  28  31
ATOM     31  O   UNL     1       7.474  15.666  18.803  0.00  0.00    +0.000 OA
BRANCH  31  32
ATOM     32  C   UNL     1       8.176  14.853  17.850  0.00  0.00    +0.000 C 
BRANCH  32  33
ATOM     33  C   UNL     1       9.246  13.990  18.475  0.00  0.00    +0.000 A 
ATOM     34  C   UNL     1       9.797  12.883  17.825  0.00  0.00    +0.000 A 
ATOM     35  C   UNL     1      10.753  12.095  18.468  0.00  0.00    +0.000 A 
ATOM     36  C   UNL     1      11.169  12.412  19.761  0.00  0.00    +0.000 A 
ATOM     37  C   UNL     1      10.641  13.525  20.412  0.00  0.00    +0.000 A 
ATOM     38  C   UNL     1       9.688  14.310  19.772  0.00  0.00    +0.000 A 
ENDBRANCH  32  33
ENDBRANCH  31  32
ENDBRANCH  28  31
ENDBRANCH  23  25
ENDBRANCH  20  21
ENDBRANCH   2  20
TORSDOF 9
ENDMDL
MODEL 2
REMARK VINA RESULT:      -7.6      1.352      1.766
REMARK  Name = 
REMARK  11 active torsions:
REMARK  status: ('A' for Active; 'I' for Inactive)
REMARK    1  A    between atoms: C_1  and  C_2
REMARK    2  A    between atoms: C_2  and  C_3
REMARK    3  A    between atoms: C_3  and  C_4
REMARK    4  A    between atoms: N_6  and  C_7
REMARK    5  A    between atoms: C_10  and  O_11
REMARK    6  A    between atoms: O_11  and  C_12
REMARK    7  A    between atoms: C_12  and  C_13
REMARK    8  A    between atoms: N_21  and  N_22
REMARK    9  A    between atoms: C_23  and  C_25
REMARK   10  A    between atoms: N_27  and  C_28
REMARK   11  A    between atoms: C_31  and  C_32
REMARK                            x       y       z     vdW  Elec       q    Type
REMARK                         _______ _______ _______ _____ _____    ______ ____
ROOT
ATOM      1  C   UNL     1       2.052  12.094  18.945  0.00  0.00    +0.000 C 
ATOM      2  C   UNL     1       1.651  12.612  20.319  0.00  0.00    +0.000 C 
ATOM      3  N   UNL     1       1.106  11.861  21.237  0.00  0.00    +0.000 NA
ENDROOT
BRANCH   3   4
ATOM      4  N   UNL     1       0.909  10.552  20.917  0.00  0.00    +0.000 N 
ATOM      5  C   UNL     1       1.287   9.528  21.756  0.00  0.00    +0.000 C 
ATOM      6  O   UNL     1       1.793   9.615  22.862  0.00  0.00    +0.000 OA
ATOM      7  H   UNL     1       0.519  10.271  20.019  0.00  0.00    +0.000 HD
BRANCH   5   8
ATOM      8  C   UNL     1       0.976   8.159  21.115  0.00  0.00    +0.000 C 
ATOM      9  O   UNL     1      -0.191   7.782  21.152  0.00  0.00    +0.000 OA
ATOM     10  N   UNL     1       2.076   7.494  20.613  0.00  0.00    +0.000 N 
ATOM     11  H   UNL     1       2.976   7.939  20.782  0.00  0.00    +0.000 HD
BRANCH  10  12
ATOM     12  C   UNL     1       2.052   6.227  19.985  0.00  0.00    +0.000 A 
ATOM     13  C   UNL     1       2.225   6.063  18.607  0.00  0.00    +0.000 A 
ATOM     14  C   UNL     1       2.187   4.796  18.017  0.00  0.00    +0.000 A 
ATOM     15  C   UNL     1       1.967   3.653  18.792  0.00  0.00    +0.000 A 
ATOM     16  C   UNL     1       1.937   2.310  18.119  0.00  0.00    +0.000 C 
ATOM     17  C   UNL     1       1.789   3.815  20.174  0.00  0.00    +0.000 A 
ATOM     18 CL   UNL     1       1.470   2.457  21.196  0.00  0.00    +0.000 Cl
ATOM     19  C   UNL     1       1.849   5.087  20.769  0.00  0.00    +0.000 A 
ENDBRANCH  10  12
ENDBRANCH   5   8
ENDBRANCH   3   4
BRANCH   2  20
ATOM     20  C   UNL     1       1.966  14.055  20.679  0.00  0.00    +0.000 C 
BRANCH  20  21
ATOM     21  C   UNL     1       3.435  14.331  20.893  0.00  0.00    +0.000 C 
ATOM     22  O   UNL     1       3.957  14.022  21.962  0.00  0.00    +0.000 OA
ATOM     23  N   UNL     1       4.076  14.980  19.850  0.00  0.00    +0.000 N 
ATOM     24  H   UNL     1       3.513  15.313  19.076  0.00  0.00    +0.000 HD
BRANCH  23  25
ATOM     25  C   UNL     1       5.462  15.276  19.802  0.00  0.00    +0.000 A 
ATOM     26  C   UNL     1       6.329  14.628  18.921  0.00  0.00    +0.000 A 
ATOM     27  C   UNL     1       7.682  14.945  18.870  0.00  0.00    +0.000 A 
ATOM     28  C   UNL     1       8.196  15.960  19.670  0.00  0.00    +0.000 A 
ATOM     29  C   UNL     1       7.354  16.592  20.585  0.00  0.00    +0.000 A 
ATOM     30  C   UNL     1       5.990  16.261  20.645  0.00  0.00    +0.000 A 
BRANCH  28  31
ATOM     31  O   UNL     1       9.492  16.402  19.598  0.00  0.00    +0.000 OA
BRANCH  31  32
ATOM     32  C   UNL     1      10.360  15.818  20.581  0.00  0.00    +0.000 C 
BRANCH  32  33
ATOM     33  C   UNL     1      10.863  14.448  20.193  0.00  0.00    +0.000 A 
ATOM     34  C   UNL     1      11.722  14.240  19.111  0.00  0.00    +0.000 A 
ATOM     35  C   UNL     1      12.122  12.946  18.771  0.00  0.00    +0.000 A 
ATOM     36  C   UNL     1      11.672  11.854  19.514  0.00  0.00    +0.000 A 
ATOM     37  C   UNL     1      10.832  12.052  20.608  0.00  0.00    +0.000 A 
ATOM     38  C   UNL     1      10.432  13.340  20.946  0.00  0.00    +0.000 A 
ENDBRANCH  32  33
ENDBRANCH  31  32
ENDBRANCH  28  31
ENDBRANCH  23  25
ENDBRANCH  20  21
ENDBRANCH   2  20
TORSDOF 9
ENDMDL
MODEL 3
REMARK VINA RESULT:      -7.2      5.658     10.116
REMARK  Name = 
REMARK  11 active torsions:
REMARK  status: ('A' for Active; 'I' for Inactive)
REMARK    1  A    between atoms: C_1  and  C_2
REMARK    2  A    between atoms: C_2  and  C_3
REMARK    3  A    between atoms: C_3  and  C_4
REMARK    4  A    between atoms: N_6  and  C_7
REMARK    5  A    between atoms: C_10  and  O_11
REMARK    6  A    between atoms: O_11  and  C_12
REMARK    7  A    between atoms: C_12  and  C_13
REMARK    8  A    between atoms: N_21  and  N_22
REMARK    9  A    between atoms: C_23  and  C_25
REMARK   10  A    between atoms: N_27  and  C_28
REMARK   11  A    between atoms: C_31  and  C_32
REMARK                            x       y       z     vdW  Elec       q    Type
REMARK                         _______ _______ _______ _____ _____    ______ ____
ROOT
ATOM      1  C   UNL     1      -1.272  10.564  23.217  0.00  0.00    +0.000 C 
ATOM      2  C   UNL     1       0.023  10.766  22.445  0.00  0.00    +0.000 C 
ATOM      3  N   UNL     1       0.329  11.880  21.835  0.00  0.00    +0.000 NA
ENDROOT
BRANCH   3   4
ATOM      4  N   UNL     1      -0.577  12.892  21.924  0.00  0.00    +0.000 N 
ATOM      5  C   UNL     1      -0.208  14.178  22.250  0.00  0.00    +0.000 C 
ATOM      6  O   UNL     1       0.915  14.603  22.465  0.00  0.00    +0.000 OA
ATOM      7  H   UNL     1      -1.575  12.733  21.803  0.00  0.00    +0.000 HD
BRANCH   5   8
ATOM      8  C   UNL     1      -1.447  15.097  22.314  0.00  0.00    +0.000 C 
ATOM      9  O   UNL     1      -1.252  16.299  22.158  0.00  0.00    +0.000 OA
ATOM     10  N   UNL     1      -2.632  14.450  22.593  0.00  0.00    +0.000 N 
ATOM     11  H   UNL     1      -2.556  13.455  22.796  0.00  0.00    +0.000 HD
BRANCH  10  12
ATOM     12  C   UNL     1      -3.898  15.071  22.709  0.00  0.00    +0.000 A 
ATOM     13  C   UNL     1      -4.475  15.386  23.943  0.00  0.00    +0.000 A 
ATOM     14  C   UNL     1      -5.733  15.991  24.022  0.00  0.00    +0.000 A 
ATOM     15  C   UNL     1      -6.455  16.293  22.864  0.00  0.00    +0.000 A 
ATOM     16  C   UNL     1      -7.802  16.947  22.992  0.00  0.00    +0.000 C 
ATOM     17  C   UNL     1      -5.880  15.974  21.624  0.00  0.00    +0.000 A 
ATOM     18 CL   UNL     1      -6.725  16.276  20.146  0.00  0.00    +0.000 Cl
ATOM     19  C   UNL     1      -4.606  15.385  21.545  0.00  0.00    +0.000 A 
ENDBRANCH  10  12
ENDBRANCH   5   8
ENDBRANCH   3   4
BRANCH   2  20
ATOM     20  C   UNL     1       1.055   9.650  22.439  0.00  0.00    +0.000 C 
BRANCH  20  21
ATOM     21  C   UNL     1       0.931   8.701  21.271  0.00  0.00    +0.000 C 
ATOM     22  O   UNL     1       0.013   8.850  20.467  0.00  0.00    +0.000 OA
ATOM     23  N   UNL     1       1.863   7.676  21.237  0.00  0.00    +0.000 N 
ATOM     24  H   UNL     1       2.485   7.569  22.029  0.00  0.00    +0.000 HD
BRANCH  23  25
ATOM     25  C   UNL     1       1.981   6.715  20.200  0.00  0.00    +0.000 A 
ATOM     26  C   UNL     1       2.371   7.064  18.906  0.00  0.00    +0.000 A 
ATOM     27  C   UNL     1       2.504   6.107  17.905  0.00  0.00    +0.000 A 
ATOM     28  C   UNL     1       2.296   4.761  18.189  0.00  0.00    +0.000 A 
ATOM     29  C   UNL     1       1.868   4.397  19.466  0.00  0.00    +0.000 A 
ATOM     30  C   UNL     1       1.721   5.366  20.472  0.00  0.00    +0.000 A 
BRANCH  28  31
ATOM     31  O   UNL     1       2.514   3.752  17.287  0.00  0.00    +0.000 OA
BRANCH  31  32
ATOM     32  C   UNL     1       3.779   3.091  17.449  0.00  0.00    +0.000 C 
BRANCH  32  33
ATOM     33  C   UNL     1       4.959   3.986  17.158  0.00  0.00    +0.000 A 
ATOM     34  C   UNL     1       5.814   4.456  18.159  0.00  0.00    +0.000 A 
ATOM     35  C   UNL     1       6.865   5.316  17.838  0.00  0.00    +0.000 A 
ATOM     36  C   UNL     1       7.075   5.705  16.514  0.00  0.00    +0.000 A 
ATOM     37  C   UNL     1       6.242   5.226  15.505  0.00  0.00    +0.000 A 
ATOM     38  C   UNL     1       5.193   4.370  15.825  0.00  0.00    +0.000 A 
ENDBRANCH  32  33
ENDBRANCH  31  32
ENDBRANCH  28  31
ENDBRANCH  23  25
ENDBRANCH  20  21
ENDBRANCH   2  20
TORSDOF 9
ENDMDL
MODEL 4
REMARK VINA RESULT:      -7.2      5.142     10.085
REMARK  Name = 
REMARK  11 active torsions:
REMARK  status: ('A' for Active; 'I' for Inactive)
REMARK    1  A    between atoms: C_1  and  C_2
REMARK    2  A    between atoms: C_2  and  C_3
REMARK    3  A    between atoms: C_3  and  C_4
REMARK    4  A    between atoms: N_6  and  C_7
REMARK    5  A    between atoms: C_10  and  O_11
REMARK    6  A    between atoms: O_11  and  C_12
REMARK    7  A    between atoms: C_12  and  C_13
REMARK    8  A    between atoms: N_21  and  N_22
REMARK    9  A    between atoms: C_23  and  C_25
REMARK   10  A    between atoms: N_27  and  C_28
REMARK   11  A    between atoms: C_31  and  C_32
REMARK                            x       y       z     vdW  Elec       q    Type
REMARK                         _______ _______ _______ _____ _____    ______ ____
ROOT
ATOM      1  C   UNL     1       2.328   8.017  18.726  0.00  0.00    +0.000 C 
ATOM      2  C   UNL     1       1.951   7.122  19.897  0.00  0.00    +0.000 C 
ATOM      3  N   UNL     1       1.259   7.538  20.924  0.00  0.00    +0.000 NA
ENDROOT
BRANCH   3   4
ATOM      4  N   UNL     1       0.866   8.842  20.906  0.00  0.00    +0.000 N 
ATOM      5  C   UNL     1       1.102   9.691  21.964  0.00  0.00    +0.000 C 
ATOM      6  O   UNL     1       1.690   9.447  23.004  0.00  0.00    +0.000 OA
ATOM      7  H   UNL     1       0.335   9.234  20.131  0.00  0.00    +0.000 HD
BRANCH   5   8
ATOM      8  C   UNL     1       0.512  11.089  21.678  0.00  0.00    +0.000 C 
ATOM      9  O   UNL     1      -0.327  11.508  22.470  0.00  0.00    +0.000 OA
ATOM     10  N   UNL     1       0.971  11.685  20.522  0.00  0.00    +0.000 N 
ATOM     11  H   UNL     1       1.590  11.116  19.948  0.00  0.00    +0.000 HD
BRANCH  10  12
ATOM     12  C   UNL     1       0.579  12.957  20.043  0.00  0.00    +0.000 A 
ATOM     13  C   UNL     1      -0.737  13.423  20.127  0.00  0.00    +0.000 A 
ATOM     14  C   UNL     1      -1.092  14.683  19.635  0.00  0.00    +0.000 A 
ATOM     15  C   UNL     1      -0.139  15.511  19.036  0.00  0.00    +0.000 A 
ATOM     16  C   UNL     1      -0.562  16.858  18.523  0.00  0.00    +0.000 C 
ATOM     17  C   UNL     1       1.181  15.043  18.946  0.00  0.00    +0.000 A 
ATOM     18 CL   UNL     1       2.411  15.989  18.182  0.00  0.00    +0.000 Cl
ATOM     19  C   UNL     1       1.542  13.786  19.461  0.00  0.00    +0.000 A 
ENDBRANCH  10  12
ENDBRANCH   5   8
ENDBRANCH   3   4
BRANCH   2  20
ATOM     20  C   UNL     1       2.327   5.651  19.847  0.00  0.00    +0.000 C 
BRANCH  20  21
ATOM     21  C   UNL     1       3.628   5.370  19.134  0.00  0.00    +0.000 C 
ATOM     22  O   UNL     1       4.617   5.046  19.789  0.00  0.00    +0.000 OA
ATOM     23  N   UNL     1       3.608   5.561  17.762  0.00  0.00    +0.000 N 
ATOM     24  H   UNL     1       2.777   5.965  17.348  0.00  0.00    +0.000 HD
BRANCH  23  25
ATOM     25  C   UNL     1       4.689   5.291  16.885  0.00  0.00    +0.000 A 
ATOM     26  C   UNL     1       4.951   4.007  16.404  0.00  0.00    +0.000 A 
ATOM     27  C   UNL     1       6.002   3.761  15.526  0.00  0.00    +0.000 A 
ATOM     28  C   UNL     1       6.791   4.810  15.065  0.00  0.00    +0.000 A 
ATOM     29  C   UNL     1       6.570   6.093  15.565  0.00  0.00    +0.000 A 
ATOM     30  C   UNL     1       5.517   6.338  16.462  0.00  0.00    +0.000 A 
BRANCH  28  31
ATOM     31  O   UNL     1       7.772   4.664  14.119  0.00  0.00    +0.000 OA
BRANCH  31  32
ATOM     32  C   UNL     1       7.321   4.898  12.776  0.00  0.00    +0.000 C 
BRANCH  32  33
ATOM     33  C   UNL     1       6.718   3.675  12.127  0.00  0.00    +0.000 A 
ATOM     34  C   UNL     1       5.338   3.481  12.020  0.00  0.00    +0.000 A 
ATOM     35  C   UNL     1       4.836   2.311  11.449  0.00  0.00    +0.000 A 
ATOM     36  C   UNL     1       5.708   1.330  10.976  0.00  0.00    +0.000 A 
ATOM     37  C   UNL     1       7.086   1.521  11.059  0.00  0.00    +0.000 A 
ATOM     38  C   UNL     1       7.587   2.687  11.629  0.00  0.00    +0.000 A 
ENDBRANCH  32  33
ENDBRANCH  31  32
ENDBRANCH  28  31
ENDBRANCH  23  25
ENDBRANCH  20  21
ENDBRANCH   2  20
TORSDOF 9
ENDMDL
MODEL 5
REMARK VINA RESULT:      -7.1      4.984     10.002
REMARK  Name = 
REMARK  11 active torsions:
REMARK  status: ('A' for Active; 'I' for Inactive)
REMARK    1  A    between atoms: C_1  and  C_2
REMARK    2  A    between atoms: C_2  and  C_3
REMARK    3  A    between atoms: C_3  and  C_4
REMARK    4  A    between atoms: N_6  and  C_7
REMARK    5  A    between atoms: C_10  and  O_11
REMARK    6  A    between atoms: O_11  and  C_12
REMARK    7  A    between atoms: C_12  and  C_13
REMARK    8  A    between atoms: N_21  and  N_22
REMARK    9  A    between atoms: C_23  and  C_25
REMARK   10  A    between atoms: N_27  and  C_28
REMARK   11  A    between atoms: C_31  and  C_32
REMARK                            x       y       z     vdW  Elec       q    Type
REMARK                         _______ _______ _______ _____ _____    ______ ____
ROOT
ATOM      1  C   UNL     1       1.988   8.711  18.689  0.00  0.00    +0.000 C 
ATOM      2  C   UNL     1       1.736   7.953  19.983  0.00  0.00    +0.000 C 
ATOM      3  N   UNL     1       1.287   8.520  21.071  0.00  0.00    +0.000 NA
ENDROOT
BRANCH   3   4
ATOM      4  N   UNL     1       1.037   9.856  21.003  0.00  0.00    +0.000 N 
ATOM      5  C   UNL     1       0.432  10.540  22.034  0.00  0.00    +0.000 C 
ATOM      6  O   UNL     1       0.076  10.104  23.115  0.00  0.00    +0.000 OA
ATOM      7  H   UNL     1       1.240  10.400  20.167  0.00  0.00    +0.000 HD
BRANCH   5   8
ATOM      8  C   UNL     1       0.242  12.026  21.660  0.00  0.00    +0.000 C 
ATOM      9  O   UNL     1      -0.323  12.737  22.486  0.00  0.00    +0.000 OA
ATOM     10  N   UNL     1       0.695  12.368  20.403  0.00  0.00    +0.000 N 
ATOM     11  H   UNL     1       1.037  11.597  19.832  0.00  0.00    +0.000 HD
BRANCH  10  12
ATOM     12  C   UNL     1       0.629  13.660  19.830  0.00  0.00    +0.000 A 
ATOM     13  C   UNL     1      -0.580  14.276  19.493  0.00  0.00    +0.000 A 
ATOM     14  C   UNL     1      -0.608  15.551  18.920  0.00  0.00    +0.000 A 
ATOM     15  C   UNL     1       0.577  16.244  18.659  0.00  0.00    +0.000 A 
ATOM     16  C   UNL     1       0.503  17.614  18.045  0.00  0.00    +0.000 C 
ATOM     17  C   UNL     1       1.792  15.626  18.992  0.00  0.00    +0.000 A 
ATOM     18 CL   UNL     1       3.304  16.398  18.664  0.00  0.00    +0.000 Cl
ATOM     19  C   UNL     1       1.819  14.353  19.588  0.00  0.00    +0.000 A 
ENDBRANCH  10  12
ENDBRANCH   5   8
ENDBRANCH   3   4
BRANCH   2  20
ATOM     20  C   UNL     1       1.939   6.447  20.002  0.00  0.00    +0.000 C 
BRANCH  20  21
ATOM     21  C   UNL     1       2.637   5.903  18.779  0.00  0.00    +0.000 C 
ATOM     22  O   UNL     1       1.976   5.344  17.906  0.00  0.00    +0.000 OA
ATOM     23  N   UNL     1       4.016   6.038  18.773  0.00  0.00    +0.000 N 
ATOM     24  H   UNL     1       4.466   6.387  19.610  0.00  0.00    +0.000 HD
BRANCH  23  25
ATOM     25  C   UNL     1       4.867   5.666  17.701  0.00  0.00    +0.000 A 
ATOM     26  C   UNL     1       5.544   6.611  16.929  0.00  0.00    +0.000 A 
ATOM     27  C   UNL     1       6.393   6.230  15.895  0.00  0.00    +0.000 A 
ATOM     28  C   UNL     1       6.626   4.883  15.638  0.00  0.00    +0.000 A 
ATOM     29  C   UNL     1       5.929   3.924  16.373  0.00  0.00    +0.000 A 
ATOM     30  C   UNL     1       5.061   4.310  17.408  0.00  0.00    +0.000 A 
BRANCH  28  31
ATOM     31  O   UNL     1       7.530   4.431  14.712  0.00  0.00    +0.000 OA
BRANCH  31  32
ATOM     32  C   UNL     1       7.244   4.853  13.369  0.00  0.00    +0.000 C 
BRANCH  32  33
ATOM     33  C   UNL     1       6.510   3.811  12.561  0.00  0.00    +0.000 A 
ATOM     34  C   UNL     1       7.162   2.747  11.931  0.00  0.00    +0.000 A 
ATOM     35  C   UNL     1       6.438   1.836  11.160  0.00  0.00    +0.000 A 
ATOM     36  C   UNL     1       5.057   1.978  11.019  0.00  0.00    +0.000 A 
ATOM     37  C   UNL     1       4.393   3.023  11.658  0.00  0.00    +0.000 A 
ATOM     38  C   UNL     1       5.114   3.931  12.426  0.00  0.00    +0.000 A 
ENDBRANCH  32  33
ENDBRANCH  31  32
ENDBRANCH  28  31
ENDBRANCH  23  25
ENDBRANCH  20  21
ENDBRANCH   2  20
TORSDOF 9
ENDMDL
MODEL 6
REMARK VINA RESULT:      -7.1      1.304      1.728
REMARK  Name = 
REMARK  11 active torsions:
REMARK  status: ('A' for Active; 'I' for Inactive)
REMARK    1  A    between atoms: C_1  and  C_2
REMARK    2  A    between atoms: C_2  and  C_3
REMARK    3  A    between atoms: C_3  and  C_4
REMARK    4  A    between atoms: N_6  and  C_7
REMARK    5  A    between atoms: C_10  and  O_11
REMARK    6  A    between atoms: O_11  and  C_12
REMARK    7  A    between atoms: C_12  and  C_13
REMARK    8  A    between atoms: N_21  and  N_22
REMARK    9  A    between atoms: C_23  and  C_25
REMARK   10  A    between atoms: N_27  and  C_28
REMARK   11  A    between atoms: C_31  and  C_32
REMARK                            x       y       z     vdW  Elec       q    Type
REMARK                         _______ _______ _______ _____ _____    ______ ____
ROOT
ATOM      1  C   UNL     1      -1.122  11.488  18.335  0.00  0.00    +0.000 C 
ATOM      2  C   UNL     1      -0.663  12.271  19.557  0.00  0.00    +0.000 C 
ATOM      3  N   UNL     1      -0.128  11.711  20.608  0.00  0.00    +0.000 NA
ENDROOT
BRANCH   3   4
ATOM      4  N   UNL     1       0.018  10.357  20.570  0.00  0.00    +0.000 N 
ATOM      5  C   UNL     1       0.929   9.697  21.363  0.00  0.00    +0.000 C 
ATOM      6  O   UNL     1       1.681  10.174  22.196  0.00  0.00    +0.000 OA
ATOM      7  H   UNL     1      -0.505   9.778  19.917  0.00  0.00    +0.000 HD
BRANCH   5   8
ATOM      8  C   UNL     1       0.899   8.180  21.076  0.00  0.00    +0.000 C 
ATOM      9  O   UNL     1      -0.057   7.552  21.521  0.00  0.00    +0.000 OA
ATOM     10  N   UNL     1       1.993   7.701  20.386  0.00  0.00    +0.000 N 
ATOM     11  H   UNL     1       2.732   8.378  20.204  0.00  0.00    +0.000 HD
BRANCH  10  12
ATOM     12  C   UNL     1       2.200   6.353  20.010  0.00  0.00    +0.000 A 
ATOM     13  C   UNL     1       1.430   5.301  20.516  0.00  0.00    +0.000 A 
ATOM     14  C   UNL     1       1.668   3.978  20.129  0.00  0.00    +0.000 A 
ATOM     15  C   UNL     1       2.691   3.670  19.229  0.00  0.00    +0.000 A 
ATOM     16  C   UNL     1       2.910   2.236  18.837  0.00  0.00    +0.000 C 
ATOM     17  C   UNL     1       3.468   4.723  18.724  0.00  0.00    +0.000 A 
ATOM     18 CL   UNL     1       4.779   4.422  17.637  0.00  0.00    +0.000 Cl
ATOM     19  C   UNL     1       3.214   6.055  19.095  0.00  0.00    +0.000 A 
ENDBRANCH  10  12
ENDBRANCH   5   8
ENDBRANCH   3   4
BRANCH   2  20
ATOM     20  C   UNL     1      -0.756  13.788  19.533  0.00  0.00    +0.000 C 
BRANCH  20  21
ATOM     21  C   UNL     1       0.563  14.483  19.296  0.00  0.00    +0.000 C 
ATOM     22  O   UNL     1       0.569  15.662  18.946  0.00  0.00    +0.000 OA
ATOM     23  N   UNL     1       1.689  13.690  19.447  0.00  0.00    +0.000 N 
ATOM     24  H   UNL     1       1.557  12.698  19.600  0.00  0.00    +0.000 HD
BRANCH  23  25
ATOM     25  C   UNL     1       3.028  14.146  19.344  0.00  0.00    +0.000 A 
ATOM     26  C   UNL     1       3.728  14.646  20.443  0.00  0.00    +0.000 A 
ATOM     27  C   UNL     1       5.048  15.069  20.332  0.00  0.00    +0.000 A 
ATOM     28  C   UNL     1       5.722  14.955  19.120  0.00  0.00    +0.000 A 
ATOM     29  C   UNL     1       5.028  14.495  18.001  0.00  0.00    +0.000 A 
ATOM     30  C   UNL     1       3.690  14.081  18.112  0.00  0.00    +0.000 A 
BRANCH  28  31
ATOM     31  O   UNL     1       7.052  15.247  18.959  0.00  0.00    +0.000 OA
BRANCH  31  32
ATOM     32  C   UNL     1       7.690  14.490  17.919  0.00  0.00    +0.000 C 
BRANCH  32  33
ATOM     33  C   UNL     1       8.687  13.483  18.441  0.00  0.00    +0.000 A 
ATOM     34  C   UNL     1       8.942  12.270  17.794  0.00  0.00    +0.000 A 
ATOM     35  C   UNL     1       9.843  11.358  18.345  0.00  0.00    +0.000 A 
ATOM     36  C   UNL     1      10.499  11.653  19.541  0.00  0.00    +0.000 A 
ATOM     37  C   UNL     1      10.267  12.867  20.184  0.00  0.00    +0.000 A 
ATOM     38  C   UNL     1       9.369  13.777  19.636  0.00  0.00    +0.000 A 
ENDBRANCH  32  33
ENDBRANCH  31  32
ENDBRANCH  28  31
ENDBRANCH  23  25
ENDBRANCH  20  21
ENDBRANCH   2  20
TORSDOF 9
ENDMDL
MODEL 7
REMARK VINA RESULT:      -7.1      5.655     10.246
REMARK  Name = 
REMARK  11 active torsions:
REMARK  status: ('A' for Active; 'I' for Inactive)
REMARK    1  A    between atoms: C_1  and  C_2
REMARK    2  A    between atoms: C_2  and  C_3
REMARK    3  A    between atoms: C_3  and  C_4
REMARK    4  A    between atoms: N_6  and  C_7
REMARK    5  A    between atoms: C_10  and  O_11
REMARK    6  A    between atoms: O_11  and  C_12
REMARK    7  A    between atoms: C_12  and  C_13
REMARK    8  A    between atoms: N_21  and  N_22
REMARK    9  A    between atoms: C_23  and  C_25
REMARK   10  A    between atoms: N_27  and  C_28
REMARK   11  A    between atoms: C_31  and  C_32
REMARK                            x       y       z     vdW  Elec       q    Type
REMARK                         _______ _______ _______ _____ _____    ______ ____
ROOT
ATOM      1  C   UNL     1       1.203   7.837  21.607  0.00  0.00    +0.000 C 
ATOM      2  C   UNL     1       1.720   7.305  20.278  0.00  0.00    +0.000 C 
ATOM      3  N   UNL     1       1.956   8.066  19.244  0.00  0.00    +0.000 NA
ENDROOT
BRANCH   3   4
ATOM      4  N   UNL     1       1.724   9.398  19.402  0.00  0.00    +0.000 N 
ATOM      5  C   UNL     1       0.810  10.079  18.628  0.00  0.00    +0.000 C 
ATOM      6  O   UNL     1       0.084   9.629  17.758  0.00  0.00    +0.000 OA
ATOM      7  H   UNL     1       2.252   9.962  20.065  0.00  0.00    +0.000 HD
BRANCH   5   8
ATOM      8  C   UNL     1       0.790  11.576  19.004  0.00  0.00    +0.000 C 
ATOM      9  O   UNL     1       1.878  12.126  19.145  0.00  0.00    +0.000 OA
ATOM     10  N   UNL     1      -0.469  12.109  19.186  0.00  0.00    +0.000 N 
ATOM     11  H   UNL     1      -1.242  11.447  19.125  0.00  0.00    +0.000 HD
BRANCH  10  12
ATOM     12  C   UNL     1      -0.750  13.450  19.537  0.00  0.00    +0.000 A 
ATOM     13  C   UNL     1      -1.584  13.792  20.606  0.00  0.00    +0.000 A 
ATOM     14  C   UNL     1      -1.847  15.129  20.920  0.00  0.00    +0.000 A 
ATOM     15  C   UNL     1      -1.289  16.164  20.166  0.00  0.00    +0.000 A 
ATOM     16  C   UNL     1      -1.595  17.587  20.540  0.00  0.00    +0.000 C 
ATOM     17  C   UNL     1      -0.456  15.823  19.090  0.00  0.00    +0.000 A 
ATOM     18 CL   UNL     1       0.242  17.043  18.082  0.00  0.00    +0.000 Cl
ATOM     19  C   UNL     1      -0.173  14.480  18.788  0.00  0.00    +0.000 A 
ENDBRANCH  10  12
ENDBRANCH   5   8
ENDBRANCH   3   4
BRANCH   2  20
ATOM     20  C   UNL     1       2.055   5.827  20.160  0.00  0.00    +0.000 C 
BRANCH  20  21
ATOM     21  C   UNL     1       2.721   5.447  18.860  0.00  0.00    +0.000 C 
ATOM     22  O   UNL     1       2.060   4.895  17.982  0.00  0.00    +0.000 OA
ATOM     23  N   UNL     1       4.079   5.715  18.787  0.00  0.00    +0.000 N 
ATOM     24  H   UNL     1       4.547   6.042  19.622  0.00  0.00    +0.000 HD
BRANCH  23  25
ATOM     25  C   UNL     1       4.890   5.509  17.642  0.00  0.00    +0.000 A 
ATOM     26  C   UNL     1       4.802   6.325  16.514  0.00  0.00    +0.000 A 
ATOM     27  C   UNL     1       5.620   6.125  15.406  0.00  0.00    +0.000 A 
ATOM     28  C   UNL     1       6.588   5.126  15.421  0.00  0.00    +0.000 A 
ATOM     29  C   UNL     1       6.665   4.274  16.524  0.00  0.00    +0.000 A 
ATOM     30  C   UNL     1       5.829   4.470  17.635  0.00  0.00    +0.000 A 
BRANCH  28  31
ATOM     31  O   UNL     1       7.502   4.938  14.416  0.00  0.00    +0.000 OA
BRANCH  31  32
ATOM     32  C   UNL     1       6.963   5.132  13.099  0.00  0.00    +0.000 C 
BRANCH  32  33
ATOM     33  C   UNL     1       6.624   3.839  12.397  0.00  0.00    +0.000 A 
ATOM     34  C   UNL     1       7.602   2.972  11.900  0.00  0.00    +0.000 A 
ATOM     35  C   UNL     1       7.230   1.811  11.221  0.00  0.00    +0.000 A 
ATOM     36  C   UNL     1       5.881   1.504  11.040  0.00  0.00    +0.000 A 
ATOM     37  C   UNL     1       4.898   2.351  11.549  0.00  0.00    +0.000 A 
ATOM     38  C   UNL     1       5.267   3.509  12.225  0.00  0.00    +0.000 A 
ENDBRANCH  32  33
ENDBRANCH  31  32
ENDBRANCH  28  31
ENDBRANCH  23  25
ENDBRANCH  20  21
ENDBRANCH   2  20
TORSDOF 9
ENDMDL
MODEL 8
REMARK VINA RESULT:      -7.0      6.107      9.873
REMARK  Name = 
REMARK  11 active torsions:
REMARK  status: ('A' for Active; 'I' for Inactive)
REMARK    1  A    between atoms: C_1  and  C_2
REMARK    2  A    between atoms: C_2  and  C_3
REMARK    3  A    between atoms: C_3  and  C_4
REMARK    4  A    between atoms: N_6  and  C_7
REMARK    5  A    between atoms: C_10  and  O_11
REMARK    6  A    between atoms: O_11  and  C_12
REMARK    7  A    between atoms: C_12  and  C_13
REMARK    8  A    between atoms: N_21  and  N_22
REMARK    9  A    between atoms: C_23  and  C_25
REMARK   10  A    between atoms: N_27  and  C_28
REMARK   11  A    between atoms: C_31  and  C_32
REMARK                            x       y       z     vdW  Elec       q    Type
REMARK                         _______ _______ _______ _____ _____    ______ ____
ROOT
ATOM      1  C   UNL     1       0.818   5.816  20.535  0.00  0.00    +0.000 C 
ATOM      2  C   UNL     1       2.227   5.890  19.964  0.00  0.00    +0.000 C 
ATOM      3  N   UNL     1       2.645   6.871  19.210  0.00  0.00    +0.000 NA
ENDROOT
BRANCH   3   4
ATOM      4  N   UNL     1       1.750   7.863  18.949  0.00  0.00    +0.000 N 
ATOM      5  C   UNL     1       2.062   8.938  18.148  0.00  0.00    +0.000 C 
ATOM      6  O   UNL     1       3.105   9.151  17.553  0.00  0.00    +0.000 OA
ATOM      7  H   UNL     1       0.825   7.880  19.376  0.00  0.00    +0.000 HD
BRANCH   5   8
ATOM      8  C   UNL     1       0.871   9.917  18.066  0.00  0.00    +0.000 C 
ATOM      9  O   UNL     1       1.088  11.081  18.390  0.00  0.00    +0.000 OA
ATOM     10  N   UNL     1      -0.322   9.344  17.677  0.00  0.00    +0.000 N 
ATOM     11  H   UNL     1      -0.308   8.333  17.557  0.00  0.00    +0.000 HD
BRANCH  10  12
ATOM     12  C   UNL     1      -1.552  10.027  17.533  0.00  0.00    +0.000 A 
ATOM     13  C   UNL     1      -2.321   9.960  16.367  0.00  0.00    +0.000 A 
ATOM     14  C   UNL     1      -3.529  10.656  16.254  0.00  0.00    +0.000 A 
ATOM     15  C   UNL     1      -3.998  11.448  17.305  0.00  0.00    +0.000 A 
ATOM     16  C   UNL     1      -5.302  12.176  17.145  0.00  0.00    +0.000 C 
ATOM     17  C   UNL     1      -3.226  11.521  18.474  0.00  0.00    +0.000 A 
ATOM     18 CL   UNL     1      -3.715  12.511  19.805  0.00  0.00    +0.000 Cl
ATOM     19  C   UNL     1      -2.023  10.804  18.596  0.00  0.00    +0.000 A 
ENDBRANCH  10  12
ENDBRANCH   5   8
ENDBRANCH   3   4
BRANCH   2  20
ATOM     20  C   UNL     1       3.230   4.814  20.346  0.00  0.00    +0.000 C 
BRANCH  20  21
ATOM     21  C   UNL     1       4.167   4.420  19.231  0.00  0.00    +0.000 C 
ATOM     22  O   UNL     1       4.592   3.267  19.177  0.00  0.00    +0.000 OA
ATOM     23  N   UNL     1       4.523   5.441  18.364  0.00  0.00    +0.000 N 
ATOM     24  H   UNL     1       4.224   6.383  18.587  0.00  0.00    +0.000 HD
BRANCH  23  25
ATOM     25  C   UNL     1       5.330   5.287  17.208  0.00  0.00    +0.000 A 
ATOM     26  C   UNL     1       5.007   5.888  15.991  0.00  0.00    +0.000 A 
ATOM     27  C   UNL     1       5.821   5.746  14.872  0.00  0.00    +0.000 A 
ATOM     28  C   UNL     1       7.013   5.034  14.957  0.00  0.00    +0.000 A 
ATOM     29  C   UNL     1       7.334   4.393  16.154  0.00  0.00    +0.000 A 
ATOM     30  C   UNL     1       6.504   4.526  17.279  0.00  0.00    +0.000 A 
BRANCH  28  31
ATOM     31  O   UNL     1       7.918   4.942  13.931  0.00  0.00    +0.000 OA
BRANCH  31  32
ATOM     32  C   UNL     1       7.333   5.083  12.627  0.00  0.00    +0.000 C 
BRANCH  32  33
ATOM     33  C   UNL     1       6.799   3.785  12.071  0.00  0.00    +0.000 A 
ATOM     34  C   UNL     1       5.437   3.469  12.070  0.00  0.00    +0.000 A 
ATOM     35  C   UNL     1       5.003   2.236  11.581  0.00  0.00    +0.000 A 
ATOM     36  C   UNL     1       5.924   1.314  11.083  0.00  0.00    +0.000 A 
ATOM     37  C   UNL     1       7.282   1.627  11.060  0.00  0.00    +0.000 A 
ATOM     38  C   UNL     1       7.716   2.855  11.548  0.00  0.00    +0.000 A 
ENDBRANCH  32  33
ENDBRANCH  31  32
ENDBRANCH  28  31
ENDBRANCH  23  25
ENDBRANCH  20  21
ENDBRANCH   2  20
TORSDOF 9
ENDMDL
MODEL 9
REMARK VINA RESULT:      -7.0      1.583      2.043
REMARK  Name = 
REMARK  11 active torsions:
REMARK  status: ('A' for Active; 'I' for Inactive)
REMARK    1  A    between atoms: C_1  and  C_2
REMARK    2  A    between atoms: C_2  and  C_3
REMARK    3  A    between atoms: C_3  and  C_4
REMARK    4  A    between atoms: N_6  and  C_7
REMARK    5  A    between atoms: C_10  and  O_11
REMARK    6  A    between atoms: O_11  and  C_12
REMARK    7  A    between atoms: C_12  and  C_13
REMARK    8  A    between atoms: N_21  and  N_22
REMARK    9  A    between atoms: C_23  and  C_25
REMARK   10  A    between atoms: N_27  and  C_28
REMARK   11  A    between atoms: C_31  and  C_32
REMARK                            x       y       z     vdW  Elec       q    Type
REMARK                         _______ _______ _______ _____ _____    ______ ____
ROOT
ATOM      1  C   UNL     1       2.184  11.902  17.992  0.00  0.00    +0.000 C 
ATOM      2  C   UNL     1       1.669  12.782  19.121  0.00  0.00    +0.000 C 
ATOM      3  N   UNL     1       1.427  12.337  20.325  0.00  0.00    +0.000 NA
ENDROOT
BRANCH   3   4
ATOM      4  N   UNL     1       1.667  11.015  20.545  0.00  0.00    +0.000 N 
ATOM      5  C   UNL     1       0.670  10.068  20.466  0.00  0.00    +0.000 C 
ATOM      6  O   UNL     1      -0.502  10.236  20.174  0.00  0.00    +0.000 OA
ATOM      7  H   UNL     1       2.583  10.674  20.828  0.00  0.00    +0.000 HD
BRANCH   5   8
ATOM      8  C   UNL     1       1.226   8.667  20.803  0.00  0.00    +0.000 C 
ATOM      9  O   UNL     1       1.200   8.330  21.982  0.00  0.00    +0.000 OA
ATOM     10  N   UNL     1       1.736   7.974  19.725  0.00  0.00    +0.000 N 
ATOM     11  H   UNL     1       1.759   8.483  18.843  0.00  0.00    +0.000 HD
BRANCH  10  12
ATOM     12  C   UNL     1       2.304   6.680  19.776  0.00  0.00    +0.000 A 
ATOM     13  C   UNL     1       3.531   6.369  19.181  0.00  0.00    +0.000 A 
ATOM     14  C   UNL     1       4.059   5.075  19.243  0.00  0.00    +0.000 A 
ATOM     15  C   UNL     1       3.369   4.052  19.898  0.00  0.00    +0.000 A 
ATOM     16  C   UNL     1       3.974   2.677  19.944  0.00  0.00    +0.000 C 
ATOM     17  C   UNL     1       2.136   4.360  20.492  0.00  0.00    +0.000 A 
ATOM     18 CL   UNL     1       1.200   3.142  21.286  0.00  0.00    +0.000 Cl
ATOM     19  C   UNL     1       1.616   5.665  20.448  0.00  0.00    +0.000 A 
ENDBRANCH  10  12
ENDBRANCH   5   8
ENDBRANCH   3   4
BRANCH   2  20
ATOM     20  C   UNL     1       1.496  14.271  18.869  0.00  0.00    +0.000 C 
BRANCH  20  21
ATOM     21  C   UNL     1       2.794  15.039  18.795  0.00  0.00    +0.000 C 
ATOM     22  O   UNL     1       2.767  16.251  18.590  0.00  0.00    +0.000 OA
ATOM     23  N   UNL     1       3.944  14.276  18.917  0.00  0.00    +0.000 N 
ATOM     24  H   UNL     1       3.849  13.268  18.941  0.00  0.00    +0.000 HD
BRANCH  23  25
ATOM     25  C   UNL     1       5.265  14.790  18.948  0.00  0.00    +0.000 A 
ATOM     26  C   UNL     1       5.836  15.297  20.117  0.00  0.00    +0.000 A 
ATOM     27  C   UNL     1       7.141  15.779  20.138  0.00  0.00    +0.000 A 
ATOM     28  C   UNL     1       7.930  15.718  18.994  0.00  0.00    +0.000 A 
ATOM     29  C   UNL     1       7.365  15.251  17.807  0.00  0.00    +0.000 A 
ATOM     30  C   UNL     1       6.043  14.778  17.784  0.00  0.00    +0.000 A 
BRANCH  28  31
ATOM     31  O   UNL     1       9.255  16.070  18.964  0.00  0.00    +0.000 OA
BRANCH  31  32
ATOM     32  C   UNL     1       9.996  15.448  17.904  0.00  0.00    +0.000 C 
BRANCH  32  33
ATOM     33  C   UNL     1      10.551  14.095  18.279  0.00  0.00    +0.000 A 
ATOM     34  C   UNL     1      10.435  12.976  17.449  0.00  0.00    +0.000 A 
ATOM     35  C   UNL     1      10.930  11.739  17.866  0.00  0.00    +0.000 A 
ATOM     36  C   UNL     1      11.549  11.613  19.109  0.00  0.00    +0.000 A 
ATOM     37  C   UNL     1      11.688  12.726  19.936  0.00  0.00    +0.000 A 
ATOM     38  C   UNL     1      11.195  13.958  19.522  0.00  0.00    +0.000 A 
ENDBRANCH  32  33
ENDBRANCH  31  32
ENDBRANCH  28  31
ENDBRANCH  23  25
ENDBRANCH  20  21
ENDBRANCH   2  20
TORSDOF 9
ENDMDL
