MODEL 1
REMARK VINA RESULT:      -7.9      0.000      0.000
REMARK  Name = 
REMARK  6 active torsions:
REMARK  status: ('A' for Active; 'I' for Inactive)
REMARK    1  A    between atoms: C_1  and  C_2
REMARK    2  A    between atoms: C_2  and  C_3
REMARK    3  A    between atoms: C_2  and  C_4
REMARK    4  A    between atoms: C_2  and  C_5
REMARK    5  A    between atoms: C_8  and  C_9
REMARK    6  A    between atoms: C_9  and  N_10
REMARK                            x       y       z     vdW  Elec       q    Type
REMARK                         _______ _______ _______ _____ _____    ______ ____
ROOT
ATOM      1  N   UNL     1      -1.445  11.438  19.178  0.00  0.00    +0.000 N 
ATOM      2  C   UNL     1      -1.612  12.696  19.906  0.00  0.00    +0.000 C 
ATOM      3  O   UNL     1      -1.105  13.740  19.640  0.00  0.00    +0.000 OA
ATOM      4  C   UNL     1      -2.985  12.609  20.420  0.00  0.00    +0.000 C 
ATOM      5  O   UNL     1      -3.365  12.598  21.560  0.00  0.00    +0.000 OA
ATOM      6  C   UNL     1      -3.705  12.165  19.274  0.00  0.00    +0.000 A 
ATOM      7  C   UNL     1      -5.039  12.603  19.167  0.00  0.00    +0.000 A 
ATOM      8  C   UNL     1      -5.688  12.376  18.001  0.00  0.00    +0.000 A 
ATOM      9 BR   UNL     1      -7.455  13.023  17.789  0.00  0.00    +0.000 Br
ATOM     10  C   UNL     1      -4.973  11.642  17.049  0.00  0.00    +0.000 A 
ATOM     11  C   UNL     1      -3.555  11.136  17.247  0.00  0.00    +0.000 A 
ATOM     12 BR   UNL     1      -2.990  10.130  15.742  0.00  0.00    +0.000 Br
ATOM     13  C   UNL     1      -2.808  11.454  18.400  0.00  0.00    +0.000 A 
ENDROOT
BRANCH   1  14
ATOM     14  C   UNL     1       0.015  10.987  19.450  0.00  0.00    +0.000 C 
BRANCH  14  18
ATOM     15  C   UNL     1       2.624   7.265  18.632  0.00  0.00    +0.000 A 
ATOM     16  C   UNL     1       2.447   8.331  17.730  0.00  0.00    +0.000 A 
ATOM     17  C   UNL     1       1.651   9.512  18.024  0.00  0.00    +0.000 A 
ATOM     18  C   UNL     1       0.897   9.687  19.213  0.00  0.00    +0.000 A 
ATOM     19  C   UNL     1       1.261   8.730  20.188  0.00  0.00    +0.000 A 
ATOM     20  C   UNL     1       2.070   7.544  19.899  0.00  0.00    +0.000 A 
BRANCH  15  22
ATOM     21  C   UNL     1       2.421   4.757  17.870  0.00  0.00    +0.000 C 
ATOM     22  C   UNL     1       3.377   5.916  18.272  0.00  0.00    +0.000 C 
ATOM     23  C   UNL     1       4.230   5.341  19.445  0.00  0.00    +0.000 C 
ATOM     24  C   UNL     1       4.378   6.065  17.095  0.00  0.00    +0.000 C 
ENDBRANCH  15  22
ENDBRANCH  14  18
ENDBRANCH   1  14
TORSDOF 3
ENDMDL
MODEL 2
REMARK VINA RESULT:      -7.9      7.862     10.558
REMARK  Name = 
REMARK  6 active torsions:
REMARK  status: ('A' for Active; 'I' for Inactive)
REMARK    1  A    between atoms: C_1  and  C_2
REMARK    2  A    between atoms: C_2  and  C_3
REMARK    3  A    between atoms: C_2  and  C_4
REMARK    4  A    between atoms: C_2  and  C_5
REMARK    5  A    between atoms: C_8  and  C_9
REMARK    6  A    between atoms: C_9  and  N_10
REMARK                            x       y       z     vdW  Elec       q    Type
REMARK                         _______ _______ _______ _____ _____    ______ ____
ROOT
ATOM      1  N   UNL     1       6.916   7.187  17.470  0.00  0.00    +0.000 N 
ATOM      2  C   UNL     1       7.701   6.173  18.174  0.00  0.00    +0.000 C 
ATOM      3  O   UNL     1       8.082   6.229  19.301  0.00  0.00    +0.000 OA
ATOM      4  C   UNL     1       7.243   4.914  17.572  0.00  0.00    +0.000 C 
ATOM      5  O   UNL     1       7.873   4.102  16.949  0.00  0.00    +0.000 OA
ATOM      6  C   UNL     1       5.828   5.077  17.578  0.00  0.00    +0.000 A 
ATOM      7  C   UNL     1       5.065   3.904  17.725  0.00  0.00    +0.000 A 
ATOM      8  C   UNL     1       3.735   4.036  17.941  0.00  0.00    +0.000 A 
ATOM      9 BR   UNL     1       2.689   2.484  18.227  0.00  0.00    +0.000 Br
ATOM     10  C   UNL     1       3.249   5.347  17.906  0.00  0.00    +0.000 A 
ATOM     11  C   UNL     1       4.113   6.574  17.675  0.00  0.00    +0.000 A 
ATOM     12 BR   UNL     1       3.048   8.143  17.636  0.00  0.00    +0.000 Br
ATOM     13  C   UNL     1       5.516   6.483  17.564  0.00  0.00    +0.000 A 
ENDROOT
BRANCH   1  14
ATOM     14  C   UNL     1       7.876   8.389  17.261  0.00  0.00    +0.000 C 
BRANCH  14  18
ATOM     15  C   UNL     1       9.227  12.064  19.709  0.00  0.00    +0.000 A 
ATOM     16  C   UNL     1       9.458  10.726  20.081  0.00  0.00    +0.000 A 
ATOM     17  C   UNL     1       9.058   9.584  19.275  0.00  0.00    +0.000 A 
ATOM     18  C   UNL     1       8.316   9.684  18.070  0.00  0.00    +0.000 A 
ATOM     19  C   UNL     1       8.292  11.017  17.599  0.00  0.00    +0.000 A 
ATOM     20  C   UNL     1       8.704  12.169  18.403  0.00  0.00    +0.000 A 
BRANCH  15  22
ATOM     21  C   UNL     1       9.383  13.006  22.159  0.00  0.00    +0.000 C 
ATOM     22  C   UNL     1       9.539  13.309  20.641  0.00  0.00    +0.000 C 
ATOM     23  C   UNL     1       8.610  14.535  20.382  0.00  0.00    +0.000 C 
ATOM     24  C   UNL     1      10.978  13.864  20.467  0.00  0.00    +0.000 C 
ENDBRANCH  15  22
ENDBRANCH  14  18
ENDBRANCH   1  14
TORSDOF 3
ENDMDL
MODEL 3
REMARK VINA RESULT:      -7.8      7.892     10.614
REMARK  Name = 
REMARK  6 active torsions:
REMARK  status: ('A' for Active; 'I' for Inactive)
REMARK    1  A    between atoms: C_1  and  C_2
REMARK    2  A    between atoms: C_2  and  C_3
REMARK    3  A    between atoms: C_2  and  C_4
REMARK    4  A    between atoms: C_2  and  C_5
REMARK    5  A    between atoms: C_8  and  C_9
REMARK    6  A    between atoms: C_9  and  N_10
REMARK                            x       y       z     vdW  Elec       q    Type
REMARK                         _______ _______ _______ _____ _____    ______ ____
ROOT
ATOM      1  N   UNL     1       6.927   7.178  17.489  0.00  0.00    +0.000 N 
ATOM      2  C   UNL     1       7.751   6.205  18.206  0.00  0.00    +0.000 C 
ATOM      3  O   UNL     1       8.159   6.308  19.320  0.00  0.00    +0.000 OA
ATOM      4  C   UNL     1       7.303   4.916  17.661  0.00  0.00    +0.000 C 
ATOM      5  O   UNL     1       7.934   4.096  17.050  0.00  0.00    +0.000 OA
ATOM      6  C   UNL     1       5.886   5.051  17.699  0.00  0.00    +0.000 A 
ATOM      7  C   UNL     1       5.151   3.869  17.907  0.00  0.00    +0.000 A 
ATOM      8  C   UNL     1       3.826   3.982  18.154  0.00  0.00    +0.000 A 
ATOM      9 BR   UNL     1       2.820   2.421  18.521  0.00  0.00    +0.000 Br
ATOM     10  C   UNL     1       3.311   5.282  18.087  0.00  0.00    +0.000 A 
ATOM     11  C   UNL     1       4.144   6.516  17.790  0.00  0.00    +0.000 A 
ATOM     12 BR   UNL     1       3.045   8.061  17.724  0.00  0.00    +0.000 Br
ATOM     13  C   UNL     1       5.544   6.449  17.644  0.00  0.00    +0.000 A 
ENDROOT
BRANCH   1  14
ATOM     14  C   UNL     1       7.855   8.390  17.212  0.00  0.00    +0.000 C 
BRANCH  14  18
ATOM     15  C   UNL     1       9.426  12.099  19.471  0.00  0.00    +0.000 A 
ATOM     16  C   UNL     1       8.683  12.146  18.276  0.00  0.00    +0.000 A 
ATOM     17  C   UNL     1       8.165  10.966  17.602  0.00  0.00    +0.000 A 
ATOM     18  C   UNL     1       8.420   9.635  18.022  0.00  0.00    +0.000 A 
ATOM     19  C   UNL     1       8.963   9.612  19.327  0.00  0.00    +0.000 A 
ATOM     20  C   UNL     1       9.476  10.798  20.014  0.00  0.00    +0.000 A 
BRANCH  15  22
ATOM     21  C   UNL     1       9.830  13.491  21.665  0.00  0.00    +0.000 C 
ATOM     22  C   UNL     1      10.108  13.366  20.139  0.00  0.00    +0.000 C 
ATOM     23  C   UNL     1       9.636  14.725  19.535  0.00  0.00    +0.000 C 
ATOM     24  C   UNL     1      11.653  13.384  19.988  0.00  0.00    +0.000 C 
ENDBRANCH  15  22
ENDBRANCH  14  18
ENDBRANCH   1  14
TORSDOF 3
ENDMDL
MODEL 4
REMARK VINA RESULT:      -7.6      1.773      2.666
REMARK  Name = 
REMARK  6 active torsions:
REMARK  status: ('A' for Active; 'I' for Inactive)
REMARK    1  A    between atoms: C_1  and  C_2
REMARK    2  A    between atoms: C_2  and  C_3
REMARK    3  A    between atoms: C_2  and  C_4
REMARK    4  A    between atoms: C_2  and  C_5
REMARK    5  A    between atoms: C_8  and  C_9
REMARK    6  A    between atoms: C_9  and  N_10
REMARK                            x       y       z     vdW  Elec       q    Type
REMARK                         _______ _______ _______ _____ _____    ______ ____
ROOT
ATOM      1  N   UNL     1       0.559  10.471  18.817  0.00  0.00    +0.000 N 
ATOM      2  C   UNL     1       1.054  11.610  19.589  0.00  0.00    +0.000 C 
ATOM      3  O   UNL     1       1.630  12.560  19.158  0.00  0.00    +0.000 OA
ATOM      4  C   UNL     1       0.084  11.723  20.685  0.00  0.00    +0.000 C 
ATOM      5  O   UNL     1       0.265  11.615  21.868  0.00  0.00    +0.000 OA
ATOM      6  C   UNL     1      -1.158  11.613  19.997  0.00  0.00    +0.000 A 
ATOM      7  C   UNL     1      -2.243  12.321  20.549  0.00  0.00    +0.000 A 
ATOM      8  C   UNL     1      -3.379  12.410  19.819  0.00  0.00    +0.000 A 
ATOM      9 BR   UNL     1      -4.830  13.422  20.492  0.00  0.00    +0.000 Br
ATOM     10  C   UNL     1      -3.375  11.701  18.613  0.00  0.00    +0.000 A 
ATOM     11  C   UNL     1      -2.194  10.897  18.098  0.00  0.00    +0.000 A 
ATOM     12 BR   UNL     1      -2.632  10.040  16.464  0.00  0.00    +0.000 Br
ATOM     13  C   UNL     1      -0.957  10.879  18.775  0.00  0.00    +0.000 A 
ENDROOT
BRANCH   1  14
ATOM     14  C   UNL     1       1.822   9.700  18.349  0.00  0.00    +0.000 C 
BRANCH  14  18
ATOM     15  C   UNL     1       3.394   5.361  18.189  0.00  0.00    +0.000 A 
ATOM     16  C   UNL     1       3.819   6.398  17.336  0.00  0.00    +0.000 A 
ATOM     17  C   UNL     1       3.339   7.767  17.430  0.00  0.00    +0.000 A 
ATOM     18  C   UNL     1       2.329   8.195  18.330  0.00  0.00    +0.000 A 
ATOM     19  C   UNL     1       2.082   7.212  19.317  0.00  0.00    +0.000 A 
ATOM     20  C   UNL     1       2.572   5.836  19.232  0.00  0.00    +0.000 A 
BRANCH  15  22
ATOM     21  C   UNL     1       4.427   3.208  19.289  0.00  0.00    +0.000 C 
ATOM     22  C   UNL     1       3.810   3.840  18.009  0.00  0.00    +0.000 C 
ATOM     23  C   UNL     1       4.877   3.609  16.895  0.00  0.00    +0.000 C 
ATOM     24  C   UNL     1       2.623   2.921  17.613  0.00  0.00    +0.000 C 
ENDBRANCH  15  22
ENDBRANCH  14  18
ENDBRANCH   1  14
TORSDOF 3
ENDMDL
MODEL 5
REMARK VINA RESULT:      -7.6      7.494     10.221
REMARK  Name = 
REMARK  6 active torsions:
REMARK  status: ('A' for Active; 'I' for Inactive)
REMARK    1  A    between atoms: C_1  and  C_2
REMARK    2  A    between atoms: C_2  and  C_3
REMARK    3  A    between atoms: C_2  and  C_4
REMARK    4  A    between atoms: C_2  and  C_5
REMARK    5  A    between atoms: C_8  and  C_9
REMARK    6  A    between atoms: C_9  and  N_10
REMARK                            x       y       z     vdW  Elec       q    Type
REMARK                         _______ _______ _______ _____ _____    ______ ____
ROOT
ATOM      1  N   UNL     1       6.517   7.102  17.407  0.00  0.00    +0.000 N 
ATOM      2  C   UNL     1       7.215   5.978  18.031  0.00  0.00    +0.000 C 
ATOM      3  O   UNL     1       7.664   5.948  19.134  0.00  0.00    +0.000 OA
ATOM      4  C   UNL     1       6.576   4.804  17.423  0.00  0.00    +0.000 C 
ATOM      5  O   UNL     1       7.067   3.947  16.739  0.00  0.00    +0.000 OA
ATOM      6  C   UNL     1       5.193   5.131  17.521  0.00  0.00    +0.000 A 
ATOM      7  C   UNL     1       4.305   4.051  17.681  0.00  0.00    +0.000 A 
ATOM      8  C   UNL     1       3.016   4.330  17.983  0.00  0.00    +0.000 A 
ATOM      9 BR   UNL     1       1.810   2.903  18.287  0.00  0.00    +0.000 Br
ATOM     10  C   UNL     1       2.688   5.690  18.016  0.00  0.00    +0.000 A 
ATOM     11  C   UNL     1       3.678   6.814  17.767  0.00  0.00    +0.000 A 
ATOM     12 BR   UNL     1       2.806   8.498  17.839  0.00  0.00    +0.000 Br
ATOM     13  C   UNL     1       5.051   6.564  17.567  0.00  0.00    +0.000 A 
ENDROOT
BRANCH   1  14
ATOM     14  C   UNL     1       7.599   8.189  17.174  0.00  0.00    +0.000 C 
BRANCH  14  18
ATOM     15  C   UNL     1       9.269  11.825  19.480  0.00  0.00    +0.000 A 
ATOM     16  C   UNL     1       9.494  10.481  19.834  0.00  0.00    +0.000 A 
ATOM     17  C   UNL     1       8.990   9.351  19.071  0.00  0.00    +0.000 A 
ATOM     18  C   UNL     1       8.147   9.471  17.936  0.00  0.00    +0.000 A 
ATOM     19  C   UNL     1       8.119  10.804  17.465  0.00  0.00    +0.000 A 
ATOM     20  C   UNL     1       8.634  11.944  18.226  0.00  0.00    +0.000 A 
BRANCH  15  22
ATOM     21  C   UNL     1       8.902  14.361  20.069  0.00  0.00    +0.000 C 
ATOM     22  C   UNL     1       9.698  13.061  20.377  0.00  0.00    +0.000 C 
ATOM     23  C   UNL     1      11.197  13.463  20.214  0.00  0.00    +0.000 C 
ATOM     24  C   UNL     1       9.522  12.809  21.898  0.00  0.00    +0.000 C 
ENDBRANCH  15  22
ENDBRANCH  14  18
ENDBRANCH   1  14
TORSDOF 3
ENDMDL
MODEL 6
REMARK VINA RESULT:      -7.6      0.307      1.307
REMARK  Name = 
REMARK  6 active torsions:
REMARK  status: ('A' for Active; 'I' for Inactive)
REMARK    1  A    between atoms: C_1  and  C_2
REMARK    2  A    between atoms: C_2  and  C_3
REMARK    3  A    between atoms: C_2  and  C_4
REMARK    4  A    between atoms: C_2  and  C_5
REMARK    5  A    between atoms: C_8  and  C_9
REMARK    6  A    between atoms: C_9  and  N_10
REMARK                            x       y       z     vdW  Elec       q    Type
REMARK                         _______ _______ _______ _____ _____    ______ ____
ROOT
ATOM      1  N   UNL     1      -1.351  11.344  19.346  0.00  0.00    +0.000 N 
ATOM      2  C   UNL     1      -1.491  12.602  20.080  0.00  0.00    +0.000 C 
ATOM      3  O   UNL     1      -0.954  13.634  19.826  0.00  0.00    +0.000 OA
ATOM      4  C   UNL     1      -2.872  12.549  20.578  0.00  0.00    +0.000 C 
ATOM      5  O   UNL     1      -3.264  12.541  21.714  0.00  0.00    +0.000 OA
ATOM      6  C   UNL     1      -3.591  12.132  19.423  0.00  0.00    +0.000 A 
ATOM      7  C   UNL     1      -4.912  12.606  19.303  0.00  0.00    +0.000 A 
ATOM      8  C   UNL     1      -5.554  12.404  18.130  0.00  0.00    +0.000 A 
ATOM      9 BR   UNL     1      -7.300  13.099  17.903  0.00  0.00    +0.000 Br
ATOM     10  C   UNL     1      -4.849  11.657  17.180  0.00  0.00    +0.000 A 
ATOM     11  C   UNL     1      -3.447  11.111  17.390  0.00  0.00    +0.000 A 
ATOM     12 BR   UNL     1      -2.893  10.100  15.884  0.00  0.00    +0.000 Br
ATOM     13  C   UNL     1      -2.705  11.402  18.553  0.00  0.00    +0.000 A 
ENDROOT
BRANCH   1  14
ATOM     14  C   UNL     1       0.094  10.852  19.630  0.00  0.00    +0.000 C 
BRANCH  14  18
ATOM     15  C   UNL     1       2.739   7.234  18.519  0.00  0.00    +0.000 A 
ATOM     16  C   UNL     1       2.112   7.413  19.767  0.00  0.00    +0.000 A 
ATOM     17  C   UNL     1       1.251   8.542  20.082  0.00  0.00    +0.000 A 
ATOM     18  C   UNL     1       1.014   9.630  19.203  0.00  0.00    +0.000 A 
ATOM     19  C   UNL     1       1.457   9.329  17.894  0.00  0.00    +0.000 A 
ATOM     20  C   UNL     1       2.315   8.188  17.571  0.00  0.00    +0.000 A 
BRANCH  15  22
ATOM     21  C   UNL     1       4.573   5.603  19.463  0.00  0.00    +0.000 C 
ATOM     22  C   UNL     1       3.784   6.080  18.211  0.00  0.00    +0.000 C 
ATOM     23  C   UNL     1       4.881   6.488  17.179  0.00  0.00    +0.000 C 
ATOM     24  C   UNL     1       3.133   4.805  17.610  0.00  0.00    +0.000 C 
ENDBRANCH  15  22
ENDBRANCH  14  18
ENDBRANCH   1  14
TORSDOF 3
ENDMDL
MODEL 7
REMARK VINA RESULT:      -7.5      7.319     10.079
REMARK  Name = 
REMARK  6 active torsions:
REMARK  status: ('A' for Active; 'I' for Inactive)
REMARK    1  A    between atoms: C_1  and  C_2
REMARK    2  A    between atoms: C_2  and  C_3
REMARK    3  A    between atoms: C_2  and  C_4
REMARK    4  A    between atoms: C_2  and  C_5
REMARK    5  A    between atoms: C_8  and  C_9
REMARK    6  A    between atoms: C_9  and  N_10
REMARK                            x       y       z     vdW  Elec       q    Type
REMARK                         _______ _______ _______ _____ _____    ______ ____
ROOT
ATOM      1  N   UNL     1       6.385   7.083  17.374  0.00  0.00    +0.000 N 
ATOM      2  C   UNL     1       7.027   5.937  18.016  0.00  0.00    +0.000 C 
ATOM      3  O   UNL     1       7.495   5.909  19.111  0.00  0.00    +0.000 OA
ATOM      4  C   UNL     1       6.308   4.787  17.452  0.00  0.00    +0.000 C 
ATOM      5  O   UNL     1       6.735   3.885  16.783  0.00  0.00    +0.000 OA
ATOM      6  C   UNL     1       4.950   5.199  17.565  0.00  0.00    +0.000 A 
ATOM      7  C   UNL     1       4.003   4.178  17.771  0.00  0.00    +0.000 A 
ATOM      8  C   UNL     1       2.738   4.541  18.087  0.00  0.00    +0.000 A 
ATOM      9 BR   UNL     1       1.457   3.196  18.452  0.00  0.00    +0.000 Br
ATOM     10  C   UNL     1       2.492   5.918  18.088  0.00  0.00    +0.000 A 
ATOM     11  C   UNL     1       3.541   6.975  17.791  0.00  0.00    +0.000 A 
ATOM     12 BR   UNL     1       2.772   8.708  17.832  0.00  0.00    +0.000 Br
ATOM     13  C   UNL     1       4.893   6.638  17.574  0.00  0.00    +0.000 A 
ENDROOT
BRANCH   1  14
ATOM     14  C   UNL     1       7.525   8.098  17.091  0.00  0.00    +0.000 C 
BRANCH  14  18
ATOM     15  C   UNL     1       9.542  11.653  19.239  0.00  0.00    +0.000 A 
ATOM     16  C   UNL     1       8.706  11.770  18.113  0.00  0.00    +0.000 A 
ATOM     17  C   UNL     1       8.050  10.640  17.476  0.00  0.00    +0.000 A 
ATOM     18  C   UNL     1       8.243   9.288  17.860  0.00  0.00    +0.000 A 
ATOM     19  C   UNL     1       8.892   9.207  19.114  0.00  0.00    +0.000 A 
ATOM     20  C   UNL     1       9.546  10.344  19.764  0.00  0.00    +0.000 A 
BRANCH  15  22
ATOM     21  C   UNL     1      11.907  12.630  19.848  0.00  0.00    +0.000 C 
ATOM     22  C   UNL     1      10.368  12.859  19.858  0.00  0.00    +0.000 C 
ATOM     23  C   UNL     1      10.018  13.158  21.349  0.00  0.00    +0.000 C 
ATOM     24  C   UNL     1      10.136  14.205  19.122  0.00  0.00    +0.000 C 
ENDBRANCH  15  22
ENDBRANCH  14  18
ENDBRANCH   1  14
TORSDOF 3
ENDMDL
MODEL 8
REMARK VINA RESULT:      -7.5      2.993      3.741
REMARK  Name = 
REMARK  6 active torsions:
REMARK  status: ('A' for Active; 'I' for Inactive)
REMARK    1  A    between atoms: C_1  and  C_2
REMARK    2  A    between atoms: C_2  and  C_3
REMARK    3  A    between atoms: C_2  and  C_4
REMARK    4  A    between atoms: C_2  and  C_5
REMARK    5  A    between atoms: C_8  and  C_9
REMARK    6  A    between atoms: C_9  and  N_10
REMARK                            x       y       z     vdW  Elec       q    Type
REMARK                         _______ _______ _______ _____ _____    ______ ____
ROOT
ATOM      1  N   UNL     1       0.541  10.518  19.469  0.00  0.00    +0.000 N 
ATOM      2  C   UNL     1      -0.422  10.903  18.438  0.00  0.00    +0.000 C 
ATOM      3  O   UNL     1      -1.145  10.172  17.836  0.00  0.00    +0.000 OA
ATOM      4  C   UNL     1      -0.851  12.243  18.859  0.00  0.00    +0.000 C 
ATOM      5  O   UNL     1      -0.728  13.290  18.283  0.00  0.00    +0.000 OA
ATOM      6  C   UNL     1      -1.095  12.055  20.249  0.00  0.00    +0.000 A 
ATOM      7  C   UNL     1      -2.109  12.848  20.819  0.00  0.00    +0.000 A 
ATOM      8  C   UNL     1      -2.509  12.557  22.078  0.00  0.00    +0.000 A 
ATOM      9 BR   UNL     1      -3.926  13.549  22.847  0.00  0.00    +0.000 Br
ATOM     10  C   UNL     1      -1.796  11.535  22.714  0.00  0.00    +0.000 A 
ATOM     11  C   UNL     1      -0.662  10.756  22.071  0.00  0.00    +0.000 A 
ATOM     12 BR   UNL     1       0.074   9.513  23.300  0.00  0.00    +0.000 Br
ATOM     13  C   UNL     1      -0.297  10.953  20.723  0.00  0.00    +0.000 A 
ENDROOT
BRANCH   1  14
ATOM     14  C   UNL     1       1.666   9.748  18.726  0.00  0.00    +0.000 C 
BRANCH  14  18
ATOM     15  C   UNL     1       3.268   5.435  18.336  0.00  0.00    +0.000 A 
ATOM     16  C   UNL     1       3.555   6.479  17.436  0.00  0.00    +0.000 A 
ATOM     17  C   UNL     1       3.071   7.840  17.600  0.00  0.00    +0.000 A 
ATOM     18  C   UNL     1       2.188   8.251  18.633  0.00  0.00    +0.000 A 
ATOM     19  C   UNL     1       2.095   7.264  19.641  0.00  0.00    +0.000 A 
ATOM     20  C   UNL     1       2.590   5.895  19.484  0.00  0.00    +0.000 A 
BRANCH  15  22
ATOM     21  C   UNL     1       2.476   2.998  17.747  0.00  0.00    +0.000 C 
ATOM     22  C   UNL     1       3.678   3.921  18.096  0.00  0.00    +0.000 C 
ATOM     23  C   UNL     1       4.350   3.250  19.334  0.00  0.00    +0.000 C 
ATOM     24  C   UNL     1       4.701   3.736  16.944  0.00  0.00    +0.000 C 
ENDBRANCH  15  22
ENDBRANCH  14  18
ENDBRANCH   1  14
TORSDOF 3
ENDMDL
MODEL 9
REMARK VINA RESULT:      -7.5      1.942      2.821
REMARK  Name = 
REMARK  6 active torsions:
REMARK  status: ('A' for Active; 'I' for Inactive)
REMARK    1  A    between atoms: C_1  and  C_2
REMARK    2  A    between atoms: C_2  and  C_3
REMARK    3  A    between atoms: C_2  and  C_4
REMARK    4  A    between atoms: C_2  and  C_5
REMARK    5  A    between atoms: C_8  and  C_9
REMARK    6  A    between atoms: C_9  and  N_10
REMARK                            x       y       z     vdW  Elec       q    Type
REMARK                         _______ _______ _______ _____ _____    ______ ____
ROOT
ATOM      1  N   UNL     1       0.376  10.271  19.685  0.00  0.00    +0.000 N 
ATOM      2  C   UNL     1       0.904  11.329  20.547  0.00  0.00    +0.000 C 
ATOM      3  O   UNL     1       1.650  12.200  20.223  0.00  0.00    +0.000 OA
ATOM      4  C   UNL     1      -0.185  11.557  21.505  0.00  0.00    +0.000 C 
ATOM      5  O   UNL     1      -0.181  11.415  22.699  0.00  0.00    +0.000 OA
ATOM      6  C   UNL     1      -1.325  11.617  20.655  0.00  0.00    +0.000 A 
ATOM      7  C   UNL     1      -2.375  12.455  21.076  0.00  0.00    +0.000 A 
ATOM      8  C   UNL     1      -3.380  12.698  20.203  0.00  0.00    +0.000 A 
ATOM      9 BR   UNL     1      -4.768  13.884  20.702  0.00  0.00    +0.000 Br
ATOM     10  C   UNL     1      -3.302  12.006  18.989  0.00  0.00    +0.000 A 
ATOM     11  C   UNL     1      -2.175  11.059  18.616  0.00  0.00    +0.000 A 
ATOM     12 BR   UNL     1      -2.493  10.283  16.915  0.00  0.00    +0.000 Br
ATOM     13  C   UNL     1      -1.055  10.874  19.451  0.00  0.00    +0.000 A 
ENDROOT
BRANCH   1  14
ATOM     14  C   UNL     1       1.583   9.347  19.369  0.00  0.00    +0.000 C 
BRANCH  14  18
ATOM     15  C   UNL     1       2.512   4.829  19.152  0.00  0.00    +0.000 A 
ATOM     16  C   UNL     1       2.795   5.753  18.129  0.00  0.00    +0.000 A 
ATOM     17  C   UNL     1       2.529   7.179  18.235  0.00  0.00    +0.000 A 
ATOM     18  C   UNL     1       1.879   7.786  19.340  0.00  0.00    +0.000 A 
ATOM     19  C   UNL     1       1.809   6.897  20.437  0.00  0.00    +0.000 A 
ATOM     20  C   UNL     1       2.086   5.463  20.338  0.00  0.00    +0.000 A 
BRANCH  15  22
ATOM     21  C   UNL     1       2.565   2.763  17.525  0.00  0.00    +0.000 C 
ATOM     22  C   UNL     1       2.674   3.258  18.996  0.00  0.00    +0.000 C 
ATOM     23  C   UNL     1       1.599   2.437  19.774  0.00  0.00    +0.000 C 
ATOM     24  C   UNL     1       4.033   2.724  19.522  0.00  0.00    +0.000 C 
ENDBRANCH  15  22
ENDBRANCH  14  18
ENDBRANCH   1  14
TORSDOF 3
ENDMDL
