MODEL 1
REMARK VINA RESULT:      -8.7      0.000      0.000
REMARK  Name = 
REMARK  2 active torsions:
REMARK  status: ('A' for Active; 'I' for Inactive)
REMARK    1  A    between atoms: C_2  and  C_3
REMARK    2  A    between atoms: N_17  and  C_18
REMARK                            x       y       z     vdW  Elec       q    Type
REMARK                         _______ _______ _______ _____ _____    ______ ____
ROOT
ATOM      1  O   UNL     1       5.050   3.412  18.549  0.00  0.00    +0.000 OA
ATOM      2  C   UNL     1       5.137   4.481  17.945  0.00  0.00    +0.000 C 
ATOM      3  N   UNL     1       4.543   5.645  18.428  0.00  0.00    +0.000 N 
ATOM      4  C   UNL     1       4.448   6.962  17.776  0.00  0.00    +0.000 C 
ATOM      5  C   UNL     1       2.971   7.227  17.440  0.00  0.00    +0.000 C 
ATOM      6  N   UNL     1       2.207   7.296  18.692  0.00  0.00    +0.000 N 
ATOM      7  C   UNL     1       2.317   6.092  19.553  0.00  0.00    +0.000 C 
ATOM      8  C   UNL     1       3.789   5.607  19.695  0.00  0.00    +0.000 C 
ENDROOT
BRANCH   2   9
ATOM      9  C   UNL     1       5.924   4.540  16.673  0.00  0.00    +0.000 A 
ATOM     10  C   UNL     1       5.594   3.723  15.662  0.00  0.00    +0.000 A 
ATOM     11  C   UNL     1       6.131   3.945  14.335  0.00  0.00    +0.000 A 
ATOM     12  C   UNL     1       5.535   3.390  13.201  0.00  0.00    +0.000 A 
ATOM     13  C   UNL     1       6.050   3.675  11.934  0.00  0.00    +0.000 A 
ATOM     14  C   UNL     1       7.164   4.507  11.800  0.00  0.00    +0.000 A 
ATOM     15  C   UNL     1       7.745   5.085  12.929  0.00  0.00    +0.000 A 
ATOM     16  C   UNL     1       7.206   4.810  14.183  0.00  0.00    +0.000 A 
ATOM     17  O   UNL     1       7.745   5.466  15.302  0.00  0.00    +0.000 OA
ATOM     18  C   UNL     1       7.125   5.413  16.558  0.00  0.00    +0.000 A 
ATOM     19  O   UNL     1       7.581   6.060  17.492  0.00  0.00    +0.000 OA
ENDBRANCH   2   9
BRANCH   6  20
ATOM     20  C   UNL     1       1.712   8.499  19.165  0.00  0.00    +0.000 A 
ATOM     21  C   UNL     1       1.293   8.648  20.494  0.00  0.00    +0.000 A 
ATOM     22  C   UNL     1       0.724   9.838  20.966  0.00  0.00    +0.000 A 
ATOM     23  C   UNL     1       0.560  10.923  20.109  0.00  0.00    +0.000 A 
ATOM     24  C   UNL     1       0.980  10.813  18.792  0.00  0.00    +0.000 A 
ATOM     25  C   UNL     1       1.548   9.625  18.336  0.00  0.00    +0.000 A 
ENDBRANCH   6  20
TORSDOF 2
ENDMDL
MODEL 2
REMARK VINA RESULT:      -7.5      2.323      4.184
REMARK  Name = 
REMARK  2 active torsions:
REMARK  status: ('A' for Active; 'I' for Inactive)
REMARK    1  A    between atoms: C_2  and  C_3
REMARK    2  A    between atoms: N_17  and  C_18
REMARK                            x       y       z     vdW  Elec       q    Type
REMARK                         _______ _______ _______ _____ _____    ______ ____
ROOT
ATOM      1  O   UNL     1       1.839   5.863  20.752  0.00  0.00    +0.000 OA
ATOM      2  C   UNL     1       2.192   6.565  19.804  0.00  0.00    +0.000 C 
ATOM      3  N   UNL     1       1.940   7.935  19.773  0.00  0.00    +0.000 N 
ATOM      4  C   UNL     1       2.183   8.885  18.675  0.00  0.00    +0.000 C 
ATOM      5  C   UNL     1       0.822   9.371  18.149  0.00  0.00    +0.000 C 
ATOM      6  N   UNL     1       0.134  10.100  19.222  0.00  0.00    +0.000 N 
ATOM      7  C   UNL     1      -0.059   9.325  20.473  0.00  0.00    +0.000 C 
ATOM      8  C   UNL     1       1.235   8.572  20.900  0.00  0.00    +0.000 C 
ENDROOT
BRANCH   2   9
ATOM      9  C   UNL     1       2.936   5.936  18.667  0.00  0.00    +0.000 A 
ATOM     10  C   UNL     1       4.031   6.544  18.187  0.00  0.00    +0.000 A 
ATOM     11  C   UNL     1       4.931   5.837  17.298  0.00  0.00    +0.000 A 
ATOM     12  C   UNL     1       6.244   6.265  17.092  0.00  0.00    +0.000 A 
ATOM     13  C   UNL     1       7.096   5.524  16.272  0.00  0.00    +0.000 A 
ATOM     14  C   UNL     1       6.637   4.361  15.650  0.00  0.00    +0.000 A 
ATOM     15  C   UNL     1       5.335   3.916  15.875  0.00  0.00    +0.000 A 
ATOM     16  C   UNL     1       4.503   4.653  16.715  0.00  0.00    +0.000 A 
ATOM     17  O   UNL     1       3.225   4.148  17.002  0.00  0.00    +0.000 OA
ATOM     18  C   UNL     1       2.416   4.711  17.999  0.00  0.00    +0.000 A 
ATOM     19  O   UNL     1       1.339   4.197  18.275  0.00  0.00    +0.000 OA
ENDBRANCH   2   9
BRANCH   6  20
ATOM     20  C   UNL     1      -0.012  11.475  19.176  0.00  0.00    +0.000 A 
ATOM     21  C   UNL     1       0.990  12.302  18.650  0.00  0.00    +0.000 A 
ATOM     22  C   UNL     1       0.885  13.698  18.663  0.00  0.00    +0.000 A 
ATOM     23  C   UNL     1      -0.241  14.310  19.209  0.00  0.00    +0.000 A 
ATOM     24  C   UNL     1      -1.258  13.520  19.721  0.00  0.00    +0.000 A 
ATOM     25  C   UNL     1      -1.143  12.131  19.699  0.00  0.00    +0.000 A 
ENDBRANCH   6  20
TORSDOF 2
ENDMDL
MODEL 3
REMARK VINA RESULT:      -7.4      6.192      9.786
REMARK  Name = 
REMARK  2 active torsions:
REMARK  status: ('A' for Active; 'I' for Inactive)
REMARK    1  A    between atoms: C_2  and  C_3
REMARK    2  A    between atoms: N_17  and  C_18
REMARK                            x       y       z     vdW  Elec       q    Type
REMARK                         _______ _______ _______ _____ _____    ______ ____
ROOT
ATOM      1  O   UNL     1       1.072  13.644  21.712  0.00  0.00    +0.000 OA
ATOM      2  C   UNL     1       0.149  12.841  21.574  0.00  0.00    +0.000 C 
ATOM      3  N   UNL     1      -1.177  13.203  21.807  0.00  0.00    +0.000 N 
ATOM      4  C   UNL     1      -2.372  12.344  21.808  0.00  0.00    +0.000 C 
ATOM      5  C   UNL     1      -2.913  12.273  23.246  0.00  0.00    +0.000 C 
ATOM      6  N   UNL     1      -3.332  13.617  23.660  0.00  0.00    +0.000 N 
ATOM      7  C   UNL     1      -2.272  14.652  23.573  0.00  0.00    +0.000 C 
ATOM      8  C   UNL     1      -1.493  14.580  22.227  0.00  0.00    +0.000 C 
ENDROOT
BRANCH   2   9
ATOM      9  C   UNL     1       0.453  11.448  21.119  0.00  0.00    +0.000 A 
ATOM     10  C   UNL     1       0.608  11.207  19.809  0.00  0.00    +0.000 A 
ATOM     11  C   UNL     1       1.181   9.957  19.356  0.00  0.00    +0.000 A 
ATOM     12  C   UNL     1       1.715   9.817  18.073  0.00  0.00    +0.000 A 
ATOM     13  C   UNL     1       2.309   8.611  17.695  0.00  0.00    +0.000 A 
ATOM     14  C   UNL     1       2.363   7.542  18.593  0.00  0.00    +0.000 A 
ATOM     15  C   UNL     1       1.855   7.688  19.884  0.00  0.00    +0.000 A 
ATOM     16  C   UNL     1       1.287   8.904  20.254  0.00  0.00    +0.000 A 
ATOM     17  O   UNL     1       0.859   9.066  21.582  0.00  0.00    +0.000 OA
ATOM     18  C   UNL     1       0.480  10.317  22.088  0.00  0.00    +0.000 A 
ATOM     19  O   UNL     1       0.186  10.434  23.271  0.00  0.00    +0.000 OA
ENDBRANCH   2   9
BRANCH   6  20
ATOM     20  C   UNL     1      -4.671  13.942  23.792  0.00  0.00    +0.000 A 
ATOM     21  C   UNL     1      -5.660  12.953  23.883  0.00  0.00    +0.000 A 
ATOM     22  C   UNL     1      -7.024  13.268  23.945  0.00  0.00    +0.000 A 
ATOM     23  C   UNL     1      -7.436  14.598  23.919  0.00  0.00    +0.000 A 
ATOM     24  C   UNL     1      -6.481  15.601  23.848  0.00  0.00    +0.000 A 
ATOM     25  C   UNL     1      -5.128  15.274  23.790  0.00  0.00    +0.000 A 
ENDBRANCH   6  20
TORSDOF 2
ENDMDL
MODEL 4
REMARK VINA RESULT:      -7.4      5.880      9.425
REMARK  Name = 
REMARK  2 active torsions:
REMARK  status: ('A' for Active; 'I' for Inactive)
REMARK    1  A    between atoms: C_2  and  C_3
REMARK    2  A    between atoms: N_17  and  C_18
REMARK                            x       y       z     vdW  Elec       q    Type
REMARK                         _______ _______ _______ _____ _____    ______ ____
ROOT
ATOM      1  O   UNL     1       1.371  13.107  21.594  0.00  0.00    +0.000 OA
ATOM      2  C   UNL     1       0.427  12.321  21.517  0.00  0.00    +0.000 C 
ATOM      3  N   UNL     1      -0.888  12.731  21.732  0.00  0.00    +0.000 N 
ATOM      4  C   UNL     1      -2.104  11.905  21.799  0.00  0.00    +0.000 C 
ATOM      5  C   UNL     1      -2.635  11.946  23.241  0.00  0.00    +0.000 C 
ATOM      6  N   UNL     1      -3.018  13.326  23.564  0.00  0.00    +0.000 N 
ATOM      7  C   UNL     1      -1.933  14.326  23.400  0.00  0.00    +0.000 C 
ATOM      8  C   UNL     1      -1.166  14.142  22.058  0.00  0.00    +0.000 C 
ENDROOT
BRANCH   2   9
ATOM      9  C   UNL     1       0.693  10.893  21.157  0.00  0.00    +0.000 A 
ATOM     10  C   UNL     1       0.848  10.561  19.867  0.00  0.00    +0.000 A 
ATOM     11  C   UNL     1       1.387   9.267  19.502  0.00  0.00    +0.000 A 
ATOM     12  C   UNL     1       1.924   9.027  18.236  0.00  0.00    +0.000 A 
ATOM     13  C   UNL     1       2.485   7.782  17.943  0.00  0.00    +0.000 A 
ATOM     14  C   UNL     1       2.502   6.775  18.909  0.00  0.00    +0.000 A 
ATOM     15  C   UNL     1       1.992   7.020  20.184  0.00  0.00    +0.000 A 
ATOM     16  C   UNL     1       1.457   8.274  20.469  0.00  0.00    +0.000 A 
ATOM     17  O   UNL     1       1.026   8.536  21.780  0.00  0.00    +0.000 OA
ATOM     18  C   UNL     1       0.681   9.828  22.199  0.00  0.00    +0.000 A 
ATOM     19  O   UNL     1       0.384  10.032  23.369  0.00  0.00    +0.000 OA
ENDBRANCH   2   9
BRANCH   6  20
ATOM     20  C   UNL     1      -4.347  13.693  23.682  0.00  0.00    +0.000 A 
ATOM     21  C   UNL     1      -4.742  15.038  23.666  0.00  0.00    +0.000 A 
ATOM     22  C   UNL     1      -6.075  15.424  23.856  0.00  0.00    +0.000 A 
ATOM     23  C   UNL     1      -7.059  14.463  24.069  0.00  0.00    +0.000 A 
ATOM     24  C   UNL     1      -6.704  13.122  24.073  0.00  0.00    +0.000 A 
ATOM     25  C   UNL     1      -5.375  12.750  23.879  0.00  0.00    +0.000 A 
ENDBRANCH   6  20
TORSDOF 2
ENDMDL
MODEL 5
REMARK VINA RESULT:      -7.3      1.255      1.864
REMARK  Name = 
REMARK  2 active torsions:
REMARK  status: ('A' for Active; 'I' for Inactive)
REMARK    1  A    between atoms: C_2  and  C_3
REMARK    2  A    between atoms: N_17  and  C_18
REMARK                            x       y       z     vdW  Elec       q    Type
REMARK                         _______ _______ _______ _____ _____    ______ ____
ROOT
ATOM      1  O   UNL     1       3.942   2.901  19.599  0.00  0.00    +0.000 OA
ATOM      2  C   UNL     1       4.241   4.016  19.171  0.00  0.00    +0.000 C 
ATOM      3  N   UNL     1       3.711   5.180  19.725  0.00  0.00    +0.000 N 
ATOM      4  C   UNL     1       3.866   6.568  19.260  0.00  0.00    +0.000 C 
ATOM      5  C   UNL     1       2.498   7.064  18.761  0.00  0.00    +0.000 C 
ATOM      6  N   UNL     1       1.560   7.077  19.891  0.00  0.00    +0.000 N 
ATOM      7  C   UNL     1       1.400   5.772  20.579  0.00  0.00    +0.000 C 
ATOM      8  C   UNL     1       2.769   5.085  20.856  0.00  0.00    +0.000 C 
ENDROOT
BRANCH   2   9
ATOM      9  C   UNL     1       5.219   4.128  18.043  0.00  0.00    +0.000 A 
ATOM     10  C   UNL     1       4.889   3.634  16.841  0.00  0.00    +0.000 A 
ATOM     11  C   UNL     1       5.671   3.974  15.670  0.00  0.00    +0.000 A 
ATOM     12  C   UNL     1       5.162   3.819  14.379  0.00  0.00    +0.000 A 
ATOM     13  C   UNL     1       5.927   4.211  13.278  0.00  0.00    +0.000 A 
ATOM     14  C   UNL     1       7.201   4.750  13.465  0.00  0.00    +0.000 A 
ATOM     15  C   UNL     1       7.701   4.932  14.754  0.00  0.00    +0.000 A 
ATOM     16  C   UNL     1       6.918   4.558  15.843  0.00  0.00    +0.000 A 
ATOM     17  O   UNL     1       7.396   4.826  17.136  0.00  0.00    +0.000 OA
ATOM     18  C   UNL     1       6.583   4.681  18.268  0.00  0.00    +0.000 A 
ATOM     19  O   UNL     1       7.010   4.998  19.371  0.00  0.00    +0.000 OA
ENDBRANCH   2   9
BRANCH   6  20
ATOM     20  C   UNL     1       1.134   8.266  20.455  0.00  0.00    +0.000 A 
ATOM     21  C   UNL     1       0.965   9.425  19.685  0.00  0.00    +0.000 A 
ATOM     22  C   UNL     1       0.603  10.652  20.256  0.00  0.00    +0.000 A 
ATOM     23  C   UNL     1       0.399  10.751  21.629  0.00  0.00    +0.000 A 
ATOM     24  C   UNL     1       0.542   9.619  22.417  0.00  0.00    +0.000 A 
ATOM     25  C   UNL     1       0.897   8.403  21.836  0.00  0.00    +0.000 A 
ENDBRANCH   6  20
TORSDOF 2
ENDMDL
MODEL 6
REMARK VINA RESULT:      -7.1      3.813      6.044
REMARK  Name = 
REMARK  2 active torsions:
REMARK  status: ('A' for Active; 'I' for Inactive)
REMARK    1  A    between atoms: C_2  and  C_3
REMARK    2  A    between atoms: N_17  and  C_18
REMARK                            x       y       z     vdW  Elec       q    Type
REMARK                         _______ _______ _______ _____ _____    ______ ____
ROOT
ATOM      1  O   UNL     1       2.409   9.012  17.168  0.00  0.00    +0.000 OA
ATOM      2  C   UNL     1       2.056   8.555  18.255  0.00  0.00    +0.000 C 
ATOM      3  N   UNL     1       1.160   9.233  19.079  0.00  0.00    +0.000 N 
ATOM      4  C   UNL     1       0.735   8.891  20.446  0.00  0.00    +0.000 C 
ATOM      5  C   UNL     1       1.281   9.964  21.403  0.00  0.00    +0.000 C 
ATOM      6  N   UNL     1       0.674  11.256  21.060  0.00  0.00    +0.000 N 
ATOM      7  C   UNL     1       0.881  11.685  19.654  0.00  0.00    +0.000 C 
ATOM      8  C   UNL     1       0.611  10.532  18.645  0.00  0.00    +0.000 C 
ENDROOT
BRANCH   2   9
ATOM      9  C   UNL     1       2.583   7.225  18.695  0.00  0.00    +0.000 A 
ATOM     10  C   UNL     1       2.015   6.611  19.743  0.00  0.00    +0.000 A 
ATOM     11  C   UNL     1       2.296   5.216  20.016  0.00  0.00    +0.000 A 
ATOM     12  C   UNL     1       1.459   4.445  20.825  0.00  0.00    +0.000 A 
ATOM     13  C   UNL     1       1.734   3.089  21.017  0.00  0.00    +0.000 A 
ATOM     14  C   UNL     1       2.848   2.505  20.410  0.00  0.00    +0.000 A 
ATOM     15  C   UNL     1       3.670   3.267  19.579  0.00  0.00    +0.000 A 
ATOM     16  C   UNL     1       3.370   4.611  19.378  0.00  0.00    +0.000 A 
ATOM     17  O   UNL     1       4.154   5.344  18.472  0.00  0.00    +0.000 OA
ATOM     18  C   UNL     1       3.788   6.631  18.052  0.00  0.00    +0.000 A 
ATOM     19  O   UNL     1       4.455   7.208  17.203  0.00  0.00    +0.000 OA
ENDBRANCH   2   9
BRANCH   6  20
ATOM     20  C   UNL     1      -0.276  11.841  21.878  0.00  0.00    +0.000 A 
ATOM     21  C   UNL     1      -1.165  11.070  22.639  0.00  0.00    +0.000 A 
ATOM     22  C   UNL     1      -2.177  11.649  23.415  0.00  0.00    +0.000 A 
ATOM     23  C   UNL     1      -2.326  13.033  23.450  0.00  0.00    +0.000 A 
ATOM     24  C   UNL     1      -1.452  13.826  22.722  0.00  0.00    +0.000 A 
ATOM     25  C   UNL     1      -0.447  13.237  21.957  0.00  0.00    +0.000 A 
ENDBRANCH   6  20
TORSDOF 2
ENDMDL
MODEL 7
REMARK VINA RESULT:      -6.8      6.563     12.207
REMARK  Name = 
REMARK  2 active torsions:
REMARK  status: ('A' for Active; 'I' for Inactive)
REMARK    1  A    between atoms: C_2  and  C_3
REMARK    2  A    between atoms: N_17  and  C_18
REMARK                            x       y       z     vdW  Elec       q    Type
REMARK                         _______ _______ _______ _____ _____    ______ ____
ROOT
ATOM      1  O   UNL     1      -0.937  15.066  20.839  0.00  0.00    +0.000 OA
ATOM      2  C   UNL     1      -1.301  13.948  21.203  0.00  0.00    +0.000 C 
ATOM      3  N   UNL     1      -0.531  12.812  20.964  0.00  0.00    +0.000 N 
ATOM      4  C   UNL     1      -0.873  11.403  21.220  0.00  0.00    +0.000 C 
ATOM      5  C   UNL     1      -1.017  10.689  19.866  0.00  0.00    +0.000 C 
ATOM      6  N   UNL     1       0.281  10.712  19.179  0.00  0.00    +0.000 N 
ATOM      7  C   UNL     1       0.850  12.068  18.973  0.00  0.00    +0.000 C 
ATOM      8  C   UNL     1       0.758  12.941  20.258  0.00  0.00    +0.000 C 
ENDROOT
BRANCH   2   9
ATOM      9  C   UNL     1      -2.593  13.806  21.946  0.00  0.00    +0.000 A 
ATOM     10  C   UNL     1      -3.735  13.678  21.255  0.00  0.00    +0.000 A 
ATOM     11  C   UNL     1      -4.950  13.253  21.918  0.00  0.00    +0.000 A 
ATOM     12  C   UNL     1      -6.033  12.736  21.204  0.00  0.00    +0.000 A 
ATOM     13  C   UNL     1      -7.165  12.285  21.887  0.00  0.00    +0.000 A 
ATOM     14  C   UNL     1      -7.220  12.358  23.280  0.00  0.00    +0.000 A 
ATOM     15  C   UNL     1      -6.129  12.848  23.998  0.00  0.00    +0.000 A 
ATOM     16  C   UNL     1      -4.998  13.272  23.305  0.00  0.00    +0.000 A 
ATOM     17  O   UNL     1      -3.875  13.682  24.042  0.00  0.00    +0.000 OA
ATOM     18  C   UNL     1      -2.635  13.914  23.431  0.00  0.00    +0.000 A 
ATOM     19  O   UNL     1      -1.660  14.194  24.116  0.00  0.00    +0.000 OA
ENDBRANCH   2   9
BRANCH   6  20
ATOM     20  C   UNL     1       1.042   9.564  19.046  0.00  0.00    +0.000 A 
ATOM     21  C   UNL     1       1.201   8.662  20.107  0.00  0.00    +0.000 A 
ATOM     22  C   UNL     1       2.026   7.534  20.007  0.00  0.00    +0.000 A 
ATOM     23  C   UNL     1       2.722   7.278  18.828  0.00  0.00    +0.000 A 
ATOM     24  C   UNL     1       2.572   8.142  17.754  0.00  0.00    +0.000 A 
ATOM     25  C   UNL     1       1.745   9.258  17.865  0.00  0.00    +0.000 A 
ENDBRANCH   6  20
TORSDOF 2
ENDMDL
MODEL 8
REMARK VINA RESULT:      -6.8      6.255     11.644
REMARK  Name = 
REMARK  2 active torsions:
REMARK  status: ('A' for Active; 'I' for Inactive)
REMARK    1  A    between atoms: C_2  and  C_3
REMARK    2  A    between atoms: N_17  and  C_18
REMARK                            x       y       z     vdW  Elec       q    Type
REMARK                         _______ _______ _______ _____ _____    ______ ____
ROOT
ATOM      1  O   UNL     1      -0.819  14.545  20.412  0.00  0.00    +0.000 OA
ATOM      2  C   UNL     1      -1.277  13.421  20.616  0.00  0.00    +0.000 C 
ATOM      3  N   UNL     1      -0.483  12.280  20.530  0.00  0.00    +0.000 N 
ATOM      4  C   UNL     1      -0.895  10.869  20.620  0.00  0.00    +0.000 C 
ATOM      5  C   UNL     1      -0.689  10.218  19.243  0.00  0.00    +0.000 C 
ATOM      6  N   UNL     1       0.742  10.242  18.918  0.00  0.00    +0.000 N 
ATOM      7  C   UNL     1       1.359  11.592  18.931  0.00  0.00    +0.000 C 
ATOM      8  C   UNL     1       0.946  12.411  20.189  0.00  0.00    +0.000 C 
ENDROOT
BRANCH   2   9
ATOM      9  C   UNL     1      -2.719  13.276  20.991  0.00  0.00    +0.000 A 
ATOM     10  C   UNL     1      -3.625  13.044  20.030  0.00  0.00    +0.000 A 
ATOM     11  C   UNL     1      -4.965  12.615  20.374  0.00  0.00    +0.000 A 
ATOM     12  C   UNL     1      -5.799  11.997  19.440  0.00  0.00    +0.000 A 
ATOM     13  C   UNL     1      -7.063  11.547  19.827  0.00  0.00    +0.000 A 
ATOM     14  C   UNL     1      -7.498  11.721  21.142  0.00  0.00    +0.000 A 
ATOM     15  C   UNL     1      -6.657  12.313  22.084  0.00  0.00    +0.000 A 
ATOM     16  C   UNL     1      -5.390  12.736  21.689  0.00  0.00    +0.000 A 
ATOM     17  O   UNL     1      -4.522  13.250  22.666  0.00  0.00    +0.000 OA
ATOM     18  C   UNL     1      -3.168  13.492  22.395  0.00  0.00    +0.000 A 
ATOM     19  O   UNL     1      -2.423  13.868  23.292  0.00  0.00    +0.000 OA
ENDBRANCH   2   9
BRANCH   6  20
ATOM     20  C   UNL     1       1.500   9.084  18.931  0.00  0.00    +0.000 A 
ATOM     21  C   UNL     1       2.243   8.680  17.813  0.00  0.00    +0.000 A 
ATOM     22  C   UNL     1       2.956   7.475  17.790  0.00  0.00    +0.000 A 
ATOM     23  C   UNL     1       2.944   6.633  18.899  0.00  0.00    +0.000 A 
ATOM     24  C   UNL     1       2.233   7.012  20.027  0.00  0.00    +0.000 A 
ATOM     25  C   UNL     1       1.531   8.216  20.039  0.00  0.00    +0.000 A 
ENDBRANCH   6  20
TORSDOF 2
ENDMDL
MODEL 9
REMARK VINA RESULT:      -6.8      5.934     11.029
REMARK  Name = 
REMARK  2 active torsions:
REMARK  status: ('A' for Active; 'I' for Inactive)
REMARK    1  A    between atoms: C_2  and  C_3
REMARK    2  A    between atoms: N_17  and  C_18
REMARK                            x       y       z     vdW  Elec       q    Type
REMARK                         _______ _______ _______ _____ _____    ______ ____
ROOT
ATOM      1  O   UNL     1      -0.630  14.052  19.538  0.00  0.00    +0.000 OA
ATOM      2  C   UNL     1      -1.094  12.933  19.755  0.00  0.00    +0.000 C 
ATOM      3  N   UNL     1      -0.280  11.803  19.821  0.00  0.00    +0.000 N 
ATOM      4  C   UNL     1      -0.682  10.392  19.948  0.00  0.00    +0.000 C 
ATOM      5  C   UNL     1      -0.320   9.669  18.640  0.00  0.00    +0.000 C 
ATOM      6  N   UNL     1       1.139   9.701  18.471  0.00  0.00    +0.000 N 
ATOM      7  C   UNL     1       1.733  11.061  18.473  0.00  0.00    +0.000 C 
ATOM      8  C   UNL     1       1.176  11.941  19.630  0.00  0.00    +0.000 C 
ENDROOT
BRANCH   2   9
ATOM      9  C   UNL     1      -2.566  12.782  19.980  0.00  0.00    +0.000 A 
ATOM     10  C   UNL     1      -3.353  12.436  18.951  0.00  0.00    +0.000 A 
ATOM     11  C   UNL     1      -4.715  12.002  19.184  0.00  0.00    +0.000 A 
ATOM     12  C   UNL     1      -5.427  11.276  18.227  0.00  0.00    +0.000 A 
ATOM     13  C   UNL     1      -6.718  10.828  18.513  0.00  0.00    +0.000 A 
ATOM     14  C   UNL     1      -7.303  11.111  19.749  0.00  0.00    +0.000 A 
ATOM     15  C   UNL     1      -6.584  11.812  20.717  0.00  0.00    +0.000 A 
ATOM     16  C   UNL     1      -5.289  12.232  20.426  0.00  0.00    +0.000 A 
ATOM     17  O   UNL     1      -4.545  12.860  21.439  0.00  0.00    +0.000 OA
ATOM     18  C   UNL     1      -3.174  13.115  21.299  0.00  0.00    +0.000 A 
ATOM     19  O   UNL     1      -2.543  13.593  22.232  0.00  0.00    +0.000 OA
ENDBRANCH   2   9
BRANCH   6  20
ATOM     20  C   UNL     1       1.905   8.560  18.633  0.00  0.00    +0.000 A 
ATOM     21  C   UNL     1       2.791   8.124  17.638  0.00  0.00    +0.000 A 
ATOM     22  C   UNL     1       3.518   6.934  17.760  0.00  0.00    +0.000 A 
ATOM     23  C   UNL     1       3.375   6.139  18.895  0.00  0.00    +0.000 A 
ATOM     24  C   UNL     1       2.519   6.551  19.905  0.00  0.00    +0.000 A 
ATOM     25  C   UNL     1       1.805   7.740  19.773  0.00  0.00    +0.000 A 
ENDBRANCH   6  20
TORSDOF 2
ENDMDL
