MODEL 1
REMARK VINA RESULT:      -8.1      0.000      0.000
REMARK  Name = 
REMARK  14 active torsions:
REMARK  status: ('A' for Active; 'I' for Inactive)
REMARK    1  A    between atoms: C_1  and  C_2
REMARK    2  A    between atoms: C_4  and  C_5
REMARK    3  A    between atoms: C_6  and  C_7
REMARK    4  A    between atoms: C_7  and  O_9
REMARK    5  A    between atoms: O_9  and  C_10
REMARK    6  A    between atoms: C_10  and  C_11
REMARK    7  A    between atoms: C_10  and  C_12
REMARK    8  A    between atoms: C_13  and  C_14
REMARK    9  A    between atoms: C_17  and  C_18
REMARK   10  A    between atoms: C_21  and  O_22
REMARK   11  A    between atoms: C_21  and  O_23
REMARK   12  A    between atoms: O_23  and  C_24
REMARK   13  A    between atoms: C_24  and  C_25
REMARK   14  A    between atoms: C_24  and  C_26
REMARK                            x       y       z     vdW  Elec       q    Type
REMARK                         _______ _______ _______ _____ _____    ______ ____
ROOT
ATOM      1  C   UNL     1       1.497   9.355  17.725  0.00  0.00    +0.000 C 
ATOM      2  C   UNL     1       2.435   8.204  18.038  0.00  0.00    +0.000 C 
ATOM      3  N   UNL     1       3.238   7.892  17.069  0.00  0.00    +0.000 NA
ATOM      4  C   UNL     1       4.150   6.878  17.199  0.00  0.00    +0.000 C 
ATOM      5  C   UNL     1       5.018   6.697  15.976  0.00  0.00    +0.000 C 
ATOM      6  C   UNL     1       4.229   6.101  18.295  0.00  0.00    +0.000 C 
ATOM      7  C   UNL     1       3.258   6.256  19.438  0.00  0.00    +0.000 C 
ATOM      8  C   UNL     1       2.393   7.510  19.375  0.00  0.00    +0.000 C 
ATOM      9  C   UNL     1       1.650   7.936  20.425  0.00  0.00    +0.000 C 
ENDROOT
BRANCH   7  10
ATOM     10  C   UNL     1       2.395   5.026  19.568  0.00  0.00    +0.000 A 
ATOM     11  C   UNL     1       1.604   4.329  18.677  0.00  0.00    +0.000 A 
ATOM     12  C   UNL     1       1.071   3.239  19.398  0.00  0.00    +0.000 A 
ATOM     13  C   UNL     1       1.564   3.339  20.682  0.00  0.00    +0.000 A 
ATOM     14  C   UNL     1       1.421   2.505  21.891  0.00  0.00    +0.000 C 
ATOM     15  O   UNL     1       2.349   4.444  20.799  0.00  0.00    +0.000 OA
ENDBRANCH   7  10
BRANCH   6  16
ATOM     16  C   UNL     1       5.190   4.964  18.371  0.00  0.00    +0.000 C 
ATOM     17  O   UNL     1       5.065   3.908  17.771  0.00  0.00    +0.000 OA
BRANCH  16  18
ATOM     18  O   UNL     1       6.212   5.251  19.223  0.00  0.00    +0.000 OA
BRANCH  18  19
ATOM     19  C   UNL     1       7.514   5.371  18.614  0.00  0.00    +0.000 C 
ATOM     20  C   UNL     1       7.543   4.564  17.322  0.00  0.00    +0.000 C 
ATOM     21  C   UNL     1       7.770   6.847  18.329  0.00  0.00    +0.000 C 
ENDBRANCH  18  19
ENDBRANCH  16  18
ENDBRANCH   6  16
BRANCH   9  22
ATOM     22  O   UNL     1       1.640   7.274  21.641  0.00  0.00    +0.000 OA
ATOM     23  H   UNL     1       0.918   6.623  21.679  0.00  0.00    +0.000 HD
ENDBRANCH   9  22
BRANCH   9  24
ATOM     24  O   UNL     1       0.830   9.036  20.307  0.00  0.00    +0.000 OA
BRANCH  24  25
ATOM     25  C   UNL     1       0.889  10.015  21.351  0.00  0.00    +0.000 C 
ATOM     26  C   UNL     1       1.009  11.398  20.722  0.00  0.00    +0.000 C 
ATOM     27  C   UNL     1      -0.408   9.899  22.147  0.00  0.00    +0.000 C 
ENDBRANCH  24  25
ENDBRANCH   9  24
TORSDOF 7
ENDMDL
MODEL 2
REMARK VINA RESULT:      -7.8      2.273      4.941
REMARK  Name = 
REMARK  14 active torsions:
REMARK  status: ('A' for Active; 'I' for Inactive)
REMARK    1  A    between atoms: C_1  and  C_2
REMARK    2  A    between atoms: C_4  and  C_5
REMARK    3  A    between atoms: C_6  and  C_7
REMARK    4  A    between atoms: C_7  and  O_9
REMARK    5  A    between atoms: O_9  and  C_10
REMARK    6  A    between atoms: C_10  and  C_11
REMARK    7  A    between atoms: C_10  and  C_12
REMARK    8  A    between atoms: C_13  and  C_14
REMARK    9  A    between atoms: C_17  and  C_18
REMARK   10  A    between atoms: C_21  and  O_22
REMARK   11  A    between atoms: C_21  and  O_23
REMARK   12  A    between atoms: O_23  and  C_24
REMARK   13  A    between atoms: C_24  and  C_25
REMARK   14  A    between atoms: C_24  and  C_26
REMARK                            x       y       z     vdW  Elec       q    Type
REMARK                         _______ _______ _______ _____ _____    ______ ____
ROOT
ATOM      1  C   UNL     1       4.315   2.537  20.354  0.00  0.00    +0.000 C 
ATOM      2  C   UNL     1       4.595   3.541  19.251  0.00  0.00    +0.000 C 
ATOM      3  N   UNL     1       5.841   3.886  19.149  0.00  0.00    +0.000 NA
ATOM      4  C   UNL     1       6.255   4.780  18.197  0.00  0.00    +0.000 C 
ATOM      5  C   UNL     1       7.745   5.021  18.214  0.00  0.00    +0.000 C 
ATOM      6  C   UNL     1       5.405   5.405  17.361  0.00  0.00    +0.000 C 
ATOM      7  C   UNL     1       3.914   5.210  17.468  0.00  0.00    +0.000 C 
ATOM      8  C   UNL     1       3.484   4.067  18.380  0.00  0.00    +0.000 C 
ATOM      9  C   UNL     1       2.215   3.592  18.405  0.00  0.00    +0.000 C 
ENDROOT
BRANCH   7  10
ATOM     10  C   UNL     1       3.242   6.496  17.880  0.00  0.00    +0.000 A 
ATOM     11  C   UNL     1       2.944   7.664  17.207  0.00  0.00    +0.000 A 
ATOM     12  C   UNL     1       2.277   8.491  18.137  0.00  0.00    +0.000 A 
ATOM     13  C   UNL     1       2.211   7.781  19.317  0.00  0.00    +0.000 A 
ATOM     14  C   UNL     1       1.616   8.062  20.637  0.00  0.00    +0.000 C 
ATOM     15  O   UNL     1       2.825   6.574  19.175  0.00  0.00    +0.000 OA
ENDBRANCH   7  10
BRANCH   6  16
ATOM     16  C   UNL     1       5.887   6.422  16.382  0.00  0.00    +0.000 C 
ATOM     17  O   UNL     1       6.401   7.487  16.686  0.00  0.00    +0.000 OA
BRANCH  16  18
ATOM     18  O   UNL     1       5.651   6.014  15.106  0.00  0.00    +0.000 OA
BRANCH  18  19
ATOM     19  C   UNL     1       6.377   4.841  14.684  0.00  0.00    +0.000 C 
ATOM     20  C   UNL     1       5.450   3.937  13.879  0.00  0.00    +0.000 C 
ATOM     21  C   UNL     1       7.556   5.295  13.830  0.00  0.00    +0.000 C 
ENDBRANCH  18  19
ENDBRANCH  16  18
ENDBRANCH   6  16
BRANCH   9  22
ATOM     22  O   UNL     1       1.220   4.098  17.586  0.00  0.00    +0.000 OA
ATOM     23  H   UNL     1       0.452   4.390  18.107  0.00  0.00    +0.000 HD
ENDBRANCH   9  22
BRANCH   9  24
ATOM     24  O   UNL     1       1.849   2.603  19.291  0.00  0.00    +0.000 OA
BRANCH  24  25
ATOM     25  C   UNL     1       0.903   2.949  20.309  0.00  0.00    +0.000 C 
ATOM     26  C   UNL     1       1.367   2.355  21.634  0.00  0.00    +0.000 C 
ATOM     27  C   UNL     1       0.870   4.473  20.388  0.00  0.00    +0.000 C 
ENDBRANCH  24  25
ENDBRANCH   9  24
TORSDOF 7
ENDMDL
MODEL 3
REMARK VINA RESULT:      -7.7      0.670      1.019
REMARK  Name = 
REMARK  14 active torsions:
REMARK  status: ('A' for Active; 'I' for Inactive)
REMARK    1  A    between atoms: C_1  and  C_2
REMARK    2  A    between atoms: C_4  and  C_5
REMARK    3  A    between atoms: C_6  and  C_7
REMARK    4  A    between atoms: C_7  and  O_9
REMARK    5  A    between atoms: O_9  and  C_10
REMARK    6  A    between atoms: C_10  and  C_11
REMARK    7  A    between atoms: C_10  and  C_12
REMARK    8  A    between atoms: C_13  and  C_14
REMARK    9  A    between atoms: C_17  and  C_18
REMARK   10  A    between atoms: C_21  and  O_22
REMARK   11  A    between atoms: C_21  and  O_23
REMARK   12  A    between atoms: O_23  and  C_24
REMARK   13  A    between atoms: C_24  and  C_25
REMARK   14  A    between atoms: C_24  and  C_26
REMARK                            x       y       z     vdW  Elec       q    Type
REMARK                         _______ _______ _______ _____ _____    ______ ____
ROOT
ATOM      1  C   UNL     1       1.786   9.316  17.644  0.00  0.00    +0.000 C 
ATOM      2  C   UNL     1       2.615   8.088  17.968  0.00  0.00    +0.000 C 
ATOM      3  N   UNL     1       3.383   7.692  17.000  0.00  0.00    +0.000 NA
ATOM      4  C   UNL     1       4.198   6.600  17.140  0.00  0.00    +0.000 C 
ATOM      5  C   UNL     1       5.040   6.325  15.918  0.00  0.00    +0.000 C 
ATOM      6  C   UNL     1       4.209   5.832  18.246  0.00  0.00    +0.000 C 
ATOM      7  C   UNL     1       3.262   6.089  19.389  0.00  0.00    +0.000 C 
ATOM      8  C   UNL     1       2.515   7.417  19.313  0.00  0.00    +0.000 C 
ATOM      9  C   UNL     1       1.819   7.922  20.360  0.00  0.00    +0.000 C 
ENDROOT
BRANCH   7  10
ATOM     10  C   UNL     1       2.290   4.945  19.537  0.00  0.00    +0.000 A 
ATOM     11  C   UNL     1       1.391   4.352  18.673  0.00  0.00    +0.000 A 
ATOM     12  C   UNL     1       0.790   3.300  19.397  0.00  0.00    +0.000 A 
ATOM     13  C   UNL     1       1.353   3.317  20.655  0.00  0.00    +0.000 A 
ATOM     14  C   UNL     1       1.189   2.468  21.850  0.00  0.00    +0.000 C 
ATOM     15  O   UNL     1       2.248   4.338  20.755  0.00  0.00    +0.000 OA
ENDBRANCH   7  10
BRANCH   6  16
ATOM     16  C   UNL     1       5.063   4.612  18.333  0.00  0.00    +0.000 C 
ATOM     17  O   UNL     1       4.847   3.571  17.734  0.00  0.00    +0.000 OA
BRANCH  16  18
ATOM     18  O   UNL     1       6.099   4.808  19.194  0.00  0.00    +0.000 OA
BRANCH  18  19
ATOM     19  C   UNL     1       7.250   5.478  18.639  0.00  0.00    +0.000 C 
ATOM     20  C   UNL     1       8.247   5.774  19.753  0.00  0.00    +0.000 C 
ATOM     21  C   UNL     1       7.872   4.560  17.592  0.00  0.00    +0.000 C 
ENDBRANCH  18  19
ENDBRANCH  16  18
ENDBRANCH   6  16
BRANCH   9  22
ATOM     22  O   UNL     1       1.752   7.278  21.584  0.00  0.00    +0.000 OA
ATOM     23  H   UNL     1       2.227   6.429  21.559  0.00  0.00    +0.000 HD
ENDBRANCH   9  22
BRANCH   9  24
ATOM     24  O   UNL     1       1.102   9.091  20.231  0.00  0.00    +0.000 OA
BRANCH  24  25
ATOM     25  C   UNL     1      -0.094   9.217  21.008  0.00  0.00    +0.000 C 
ATOM     26  C   UNL     1       0.272   9.730  22.396  0.00  0.00    +0.000 C 
ATOM     27  C   UNL     1      -0.991  10.220  20.287  0.00  0.00    +0.000 C 
ENDBRANCH  24  25
ENDBRANCH   9  24
TORSDOF 7
ENDMDL
MODEL 4
REMARK VINA RESULT:      -7.6      0.634      1.061
REMARK  Name = 
REMARK  14 active torsions:
REMARK  status: ('A' for Active; 'I' for Inactive)
REMARK    1  A    between atoms: C_1  and  C_2
REMARK    2  A    between atoms: C_4  and  C_5
REMARK    3  A    between atoms: C_6  and  C_7
REMARK    4  A    between atoms: C_7  and  O_9
REMARK    5  A    between atoms: O_9  and  C_10
REMARK    6  A    between atoms: C_10  and  C_11
REMARK    7  A    between atoms: C_10  and  C_12
REMARK    8  A    between atoms: C_13  and  C_14
REMARK    9  A    between atoms: C_17  and  C_18
REMARK   10  A    between atoms: C_21  and  O_22
REMARK   11  A    between atoms: C_21  and  O_23
REMARK   12  A    between atoms: O_23  and  C_24
REMARK   13  A    between atoms: C_24  and  C_25
REMARK   14  A    between atoms: C_24  and  C_26
REMARK                            x       y       z     vdW  Elec       q    Type
REMARK                         _______ _______ _______ _____ _____    ______ ____
ROOT
ATOM      1  C   UNL     1       1.433   8.952  17.557  0.00  0.00    +0.000 C 
ATOM      2  C   UNL     1       2.428   7.916  18.048  0.00  0.00    +0.000 C 
ATOM      3  N   UNL     1       3.240   7.482  17.134  0.00  0.00    +0.000 NA
ATOM      4  C   UNL     1       4.201   6.549  17.422  0.00  0.00    +0.000 C 
ATOM      5  C   UNL     1       5.069   6.203  16.236  0.00  0.00    +0.000 C 
ATOM      6  C   UNL     1       4.324   5.975  18.634  0.00  0.00    +0.000 C 
ATOM      7  C   UNL     1       3.354   6.277  19.747  0.00  0.00    +0.000 C 
ATOM      8  C   UNL     1       2.428   7.459  19.484  0.00  0.00    +0.000 C 
ATOM      9  C   UNL     1       1.671   8.023  20.456  0.00  0.00    +0.000 C 
ENDROOT
BRANCH   7  10
ATOM     10  C   UNL     1       2.552   5.047  20.096  0.00  0.00    +0.000 A 
ATOM     11  C   UNL     1       2.259   4.420  21.290  0.00  0.00    +0.000 A 
ATOM     12  C   UNL     1       1.433   3.323  20.962  0.00  0.00    +0.000 A 
ATOM     13  C   UNL     1       1.276   3.346  19.593  0.00  0.00    +0.000 A 
ATOM     14  C   UNL     1       0.513   2.511  18.646  0.00  0.00    +0.000 C 
ATOM     15  O   UNL     1       1.982   4.378  19.056  0.00  0.00    +0.000 OA
ENDBRANCH   7  10
BRANCH   6  16
ATOM     16  C   UNL     1       5.340   4.914  18.889  0.00  0.00    +0.000 C 
ATOM     17  O   UNL     1       5.235   3.752  18.529  0.00  0.00    +0.000 OA
BRANCH  16  18
ATOM     18  O   UNL     1       6.388   5.410  19.601  0.00  0.00    +0.000 OA
BRANCH  18  19
ATOM     19  C   UNL     1       7.640   5.495  18.889  0.00  0.00    +0.000 C 
ATOM     20  C   UNL     1       7.615   4.530  17.709  0.00  0.00    +0.000 C 
ATOM     21  C   UNL     1       7.812   6.930  18.403  0.00  0.00    +0.000 C 
ENDBRANCH  18  19
ENDBRANCH  16  18
ENDBRANCH   6  16
BRANCH   9  22
ATOM     22  O   UNL     1       1.700   7.578  21.767  0.00  0.00    +0.000 OA
ATOM     23  H   UNL     1       1.256   8.208  22.361  0.00  0.00    +0.000 HD
ENDBRANCH   9  22
BRANCH   9  24
ATOM     24  O   UNL     1       0.798   9.047  20.165  0.00  0.00    +0.000 OA
BRANCH  24  25
ATOM     25  C   UNL     1       0.799  10.181  21.040  0.00  0.00    +0.000 C 
ATOM     26  C   UNL     1       0.880  11.450  20.199  0.00  0.00    +0.000 C 
ATOM     27  C   UNL     1      -0.509  10.142  21.825  0.00  0.00    +0.000 C 
ENDBRANCH  24  25
ENDBRANCH   9  24
TORSDOF 7
ENDMDL
MODEL 5
REMARK VINA RESULT:      -7.1      1.161      1.916
REMARK  Name = 
REMARK  14 active torsions:
REMARK  status: ('A' for Active; 'I' for Inactive)
REMARK    1  A    between atoms: C_1  and  C_2
REMARK    2  A    between atoms: C_4  and  C_5
REMARK    3  A    between atoms: C_6  and  C_7
REMARK    4  A    between atoms: C_7  and  O_9
REMARK    5  A    between atoms: O_9  and  C_10
REMARK    6  A    between atoms: C_10  and  C_11
REMARK    7  A    between atoms: C_10  and  C_12
REMARK    8  A    between atoms: C_13  and  C_14
REMARK    9  A    between atoms: C_17  and  C_18
REMARK   10  A    between atoms: C_21  and  O_22
REMARK   11  A    between atoms: C_21  and  O_23
REMARK   12  A    between atoms: O_23  and  C_24
REMARK   13  A    between atoms: C_24  and  C_25
REMARK   14  A    between atoms: C_24  and  C_26
REMARK                            x       y       z     vdW  Elec       q    Type
REMARK                         _______ _______ _______ _____ _____    ______ ____
ROOT
ATOM      1  C   UNL     1       1.720   9.192  17.687  0.00  0.00    +0.000 C 
ATOM      2  C   UNL     1       2.563   8.024  18.165  0.00  0.00    +0.000 C 
ATOM      3  N   UNL     1       3.409   7.583  17.287  0.00  0.00    +0.000 NA
ATOM      4  C   UNL     1       4.246   6.536  17.570  0.00  0.00    +0.000 C 
ATOM      5  C   UNL     1       5.181   6.198  16.434  0.00  0.00    +0.000 C 
ATOM      6  C   UNL     1       4.204   5.858  18.732  0.00  0.00    +0.000 C 
ATOM      7  C   UNL     1       3.170   6.169  19.784  0.00  0.00    +0.000 C 
ATOM      8  C   UNL     1       2.389   7.457  19.550  0.00  0.00    +0.000 C 
ATOM      9  C   UNL     1       1.604   8.017  20.503  0.00  0.00    +0.000 C 
ENDROOT
BRANCH   7  10
ATOM     10  C   UNL     1       2.227   5.004  19.957  0.00  0.00    +0.000 A 
ATOM     11  C   UNL     1       1.275   4.431  19.139  0.00  0.00    +0.000 A 
ATOM     12  C   UNL     1       0.743   3.341  19.863  0.00  0.00    +0.000 A 
ATOM     13  C   UNL     1       1.398   3.319  21.076  0.00  0.00    +0.000 A 
ATOM     14  C   UNL     1       1.334   2.423  22.246  0.00  0.00    +0.000 C 
ATOM     15  O   UNL     1       2.284   4.350  21.151  0.00  0.00    +0.000 OA
ENDBRANCH   7  10
BRANCH   6  16
ATOM     16  C   UNL     1       5.087   4.682  18.976  0.00  0.00    +0.000 C 
ATOM     17  O   UNL     1       6.007   4.660  19.779  0.00  0.00    +0.000 OA
BRANCH  16  18
ATOM     18  O   UNL     1       4.748   3.645  18.162  0.00  0.00    +0.000 OA
BRANCH  18  19
ATOM     19  C   UNL     1       3.935   2.619  18.769  0.00  0.00    +0.000 C 
ATOM     20  C   UNL     1       3.569   1.578  17.718  0.00  0.00    +0.000 C 
ATOM     21  C   UNL     1       4.741   1.982  19.896  0.00  0.00    +0.000 C 
ENDBRANCH  18  19
ENDBRANCH  16  18
ENDBRANCH   6  16
BRANCH   9  22
ATOM     22  O   UNL     1       1.472   7.469  21.768  0.00  0.00    +0.000 OA
ATOM     23  H   UNL     1       0.811   7.954  22.292  0.00  0.00    +0.000 HD
ENDBRANCH   9  22
BRANCH   9  24
ATOM     24  O   UNL     1       0.862   9.144  20.232  0.00  0.00    +0.000 OA
BRANCH  24  25
ATOM     25  C   UNL     1       0.898  10.202  21.197  0.00  0.00    +0.000 C 
ATOM     26  C   UNL     1       0.928  11.538  20.461  0.00  0.00    +0.000 C 
ATOM     27  C   UNL     1      -0.370  10.084  22.038  0.00  0.00    +0.000 C 
ENDBRANCH  24  25
ENDBRANCH   9  24
TORSDOF 7
ENDMDL
MODEL 6
REMARK VINA RESULT:      -7.1      0.697      1.147
REMARK  Name = 
REMARK  14 active torsions:
REMARK  status: ('A' for Active; 'I' for Inactive)
REMARK    1  A    between atoms: C_1  and  C_2
REMARK    2  A    between atoms: C_4  and  C_5
REMARK    3  A    between atoms: C_6  and  C_7
REMARK    4  A    between atoms: C_7  and  O_9
REMARK    5  A    between atoms: O_9  and  C_10
REMARK    6  A    between atoms: C_10  and  C_11
REMARK    7  A    between atoms: C_10  and  C_12
REMARK    8  A    between atoms: C_13  and  C_14
REMARK    9  A    between atoms: C_17  and  C_18
REMARK   10  A    between atoms: C_21  and  O_22
REMARK   11  A    between atoms: C_21  and  O_23
REMARK   12  A    between atoms: O_23  and  C_24
REMARK   13  A    between atoms: C_24  and  C_25
REMARK   14  A    between atoms: C_24  and  C_26
REMARK                            x       y       z     vdW  Elec       q    Type
REMARK                         _______ _______ _______ _____ _____    ______ ____
ROOT
ATOM      1  C   UNL     1       1.405   9.417  17.851  0.00  0.00    +0.000 C 
ATOM      2  C   UNL     1       2.361   8.265  18.093  0.00  0.00    +0.000 C 
ATOM      3  N   UNL     1       3.151   8.009  17.097  0.00  0.00    +0.000 NA
ATOM      4  C   UNL     1       4.077   7.002  17.163  0.00  0.00    +0.000 C 
ATOM      5  C   UNL     1       4.925   6.890  15.919  0.00  0.00    +0.000 C 
ATOM      6  C   UNL     1       4.185   6.175  18.220  0.00  0.00    +0.000 C 
ATOM      7  C   UNL     1       3.232   6.264  19.385  0.00  0.00    +0.000 C 
ATOM      8  C   UNL     1       2.351   7.508  19.396  0.00  0.00    +0.000 C 
ATOM      9  C   UNL     1       1.621   7.875  20.478  0.00  0.00    +0.000 C 
ENDROOT
BRANCH   7  10
ATOM     10  C   UNL     1       2.387   5.017  19.471  0.00  0.00    +0.000 A 
ATOM     11  C   UNL     1       1.633   4.322  18.547  0.00  0.00    +0.000 A 
ATOM     12  C   UNL     1       1.097   3.212  19.237  0.00  0.00    +0.000 A 
ATOM     13  C   UNL     1       1.552   3.300  20.535  0.00  0.00    +0.000 A 
ATOM     14  C   UNL     1       1.389   2.444  21.726  0.00  0.00    +0.000 C 
ATOM     15  O   UNL     1       2.316   4.416  20.692  0.00  0.00    +0.000 OA
ENDBRANCH   7  10
BRANCH   6  16
ATOM     16  C   UNL     1       5.161   5.048  18.227  0.00  0.00    +0.000 C 
ATOM     17  O   UNL     1       6.002   4.865  19.092  0.00  0.00    +0.000 OA
BRANCH  16  18
ATOM     18  O   UNL     1       5.006   4.268  17.122  0.00  0.00    +0.000 OA
BRANCH  18  19
ATOM     19  C   UNL     1       6.227   3.783  16.527  0.00  0.00    +0.000 C 
ATOM     20  C   UNL     1       6.075   3.760  15.011  0.00  0.00    +0.000 C 
ATOM     21  C   UNL     1       7.358   4.719  16.938  0.00  0.00    +0.000 C 
ENDBRANCH  18  19
ENDBRANCH  16  18
ENDBRANCH   6  16
BRANCH   9  22
ATOM     22  O   UNL     1       1.640   7.156  21.661  0.00  0.00    +0.000 OA
ATOM     23  H   UNL     1       1.373   6.232  21.513  0.00  0.00    +0.000 HD
ENDBRANCH   9  22
BRANCH   9  24
ATOM     24  O   UNL     1       0.786   8.968  20.426  0.00  0.00    +0.000 OA
BRANCH  24  25
ATOM     25  C   UNL     1       0.893   9.928  21.484  0.00  0.00    +0.000 C 
ATOM     26  C   UNL     1       0.844  11.329  20.884  0.00  0.00    +0.000 C 
ATOM     27  C   UNL     1      -0.295   9.702  22.414  0.00  0.00    +0.000 C 
ENDBRANCH  24  25
ENDBRANCH   9  24
TORSDOF 7
ENDMDL
MODEL 7
REMARK VINA RESULT:      -7.0      2.106      4.205
REMARK  Name = 
REMARK  14 active torsions:
REMARK  status: ('A' for Active; 'I' for Inactive)
REMARK    1  A    between atoms: C_1  and  C_2
REMARK    2  A    between atoms: C_4  and  C_5
REMARK    3  A    between atoms: C_6  and  C_7
REMARK    4  A    between atoms: C_7  and  O_9
REMARK    5  A    between atoms: O_9  and  C_10
REMARK    6  A    between atoms: C_10  and  C_11
REMARK    7  A    between atoms: C_10  and  C_12
REMARK    8  A    between atoms: C_13  and  C_14
REMARK    9  A    between atoms: C_17  and  C_18
REMARK   10  A    between atoms: C_21  and  O_22
REMARK   11  A    between atoms: C_21  and  O_23
REMARK   12  A    between atoms: O_23  and  C_24
REMARK   13  A    between atoms: C_24  and  C_25
REMARK   14  A    between atoms: C_24  and  C_26
REMARK                            x       y       z     vdW  Elec       q    Type
REMARK                         _______ _______ _______ _____ _____    ______ ____
ROOT
ATOM      1  C   UNL     1       1.469   8.406  21.380  0.00  0.00    +0.000 C 
ATOM      2  C   UNL     1       1.668   7.265  20.399  0.00  0.00    +0.000 C 
ATOM      3  N   UNL     1       1.475   6.087  20.907  0.00  0.00    +0.000 NA
ATOM      4  C   UNL     1       1.610   4.955  20.146  0.00  0.00    +0.000 C 
ATOM      5  C   UNL     1       1.306   3.687  20.908  0.00  0.00    +0.000 C 
ATOM      6  C   UNL     1       2.013   4.980  18.862  0.00  0.00    +0.000 C 
ATOM      7  C   UNL     1       2.413   6.268  18.190  0.00  0.00    +0.000 C 
ATOM      8  C   UNL     1       2.063   7.530  18.970  0.00  0.00    +0.000 C 
ATOM      9  C   UNL     1       2.121   8.767  18.419  0.00  0.00    +0.000 C 
ENDROOT
BRANCH   7  10
ATOM     10  C   UNL     1       3.882   6.250  17.848  0.00  0.00    +0.000 A 
ATOM     11  C   UNL     1       4.587   6.544  16.698  0.00  0.00    +0.000 A 
ATOM     12  C   UNL     1       5.950   6.365  17.020  0.00  0.00    +0.000 A 
ATOM     13  C   UNL     1       5.994   5.971  18.340  0.00  0.00    +0.000 A 
ATOM     14  C   UNL     1       7.097   5.668  19.272  0.00  0.00    +0.000 C 
ATOM     15  O   UNL     1       4.732   5.870  18.842  0.00  0.00    +0.000 OA
ENDBRANCH   7  10
BRANCH   6  16
ATOM     16  C   UNL     1       2.211   3.721  18.088  0.00  0.00    +0.000 C 
ATOM     17  O   UNL     1       1.350   3.177  17.415  0.00  0.00    +0.000 OA
BRANCH  16  18
ATOM     18  O   UNL     1       3.475   3.244  18.257  0.00  0.00    +0.000 OA
BRANCH  18  19
ATOM     19  C   UNL     1       3.588   2.057  19.069  0.00  0.00    +0.000 C 
ATOM     20  C   UNL     1       4.064   0.897  18.203  0.00  0.00    +0.000 C 
ATOM     21  C   UNL     1       4.590   2.340  20.183  0.00  0.00    +0.000 C 
ENDBRANCH  18  19
ENDBRANCH  16  18
ENDBRANCH   6  16
BRANCH   9  22
ATOM     22  O   UNL     1       2.484   8.972  17.099  0.00  0.00    +0.000 OA
ATOM     23  H   UNL     1       3.351   8.573  16.908  0.00  0.00    +0.000 HD
ENDBRANCH   9  22
BRANCH   9  24
ATOM     24  O   UNL     1       1.861   9.888  19.175  0.00  0.00    +0.000 OA
BRANCH  24  25
ATOM     25  C   UNL     1       0.949  10.850  18.632  0.00  0.00    +0.000 C 
ATOM     26  C   UNL     1      -0.463  10.278  18.696  0.00  0.00    +0.000 C 
ATOM     27  C   UNL     1       1.058  12.105  19.493  0.00  0.00    +0.000 C 
ENDBRANCH  24  25
ENDBRANCH   9  24
TORSDOF 7
ENDMDL
MODEL 8
REMARK VINA RESULT:      -6.9      2.214      4.485
REMARK  Name = 
REMARK  14 active torsions:
REMARK  status: ('A' for Active; 'I' for Inactive)
REMARK    1  A    between atoms: C_1  and  C_2
REMARK    2  A    between atoms: C_4  and  C_5
REMARK    3  A    between atoms: C_6  and  C_7
REMARK    4  A    between atoms: C_7  and  O_9
REMARK    5  A    between atoms: O_9  and  C_10
REMARK    6  A    between atoms: C_10  and  C_11
REMARK    7  A    between atoms: C_10  and  C_12
REMARK    8  A    between atoms: C_13  and  C_14
REMARK    9  A    between atoms: C_17  and  C_18
REMARK   10  A    between atoms: C_21  and  O_22
REMARK   11  A    between atoms: C_21  and  O_23
REMARK   12  A    between atoms: O_23  and  C_24
REMARK   13  A    between atoms: C_24  and  C_25
REMARK   14  A    between atoms: C_24  and  C_26
REMARK                            x       y       z     vdW  Elec       q    Type
REMARK                         _______ _______ _______ _____ _____    ______ ____
ROOT
ATOM      1  C   UNL     1       1.460   8.173  21.211  0.00  0.00    +0.000 C 
ATOM      2  C   UNL     1       1.650   6.976  20.299  0.00  0.00    +0.000 C 
ATOM      3  N   UNL     1       1.341   5.839  20.840  0.00  0.00    +0.000 NA
ATOM      4  C   UNL     1       1.453   4.666  20.142  0.00  0.00    +0.000 C 
ATOM      5  C   UNL     1       1.009   3.458  20.933  0.00  0.00    +0.000 C 
ATOM      6  C   UNL     1       1.947   4.602  18.892  0.00  0.00    +0.000 C 
ATOM      7  C   UNL     1       2.481   5.828  18.196  0.00  0.00    +0.000 C 
ATOM      8  C   UNL     1       2.163   7.146  18.892  0.00  0.00    +0.000 C 
ATOM      9  C   UNL     1       2.345   8.349  18.294  0.00  0.00    +0.000 C 
ENDROOT
BRANCH   7  10
ATOM     10  C   UNL     1       3.966   5.698  17.965  0.00  0.00    +0.000 A 
ATOM     11  C   UNL     1       5.051   5.624  18.816  0.00  0.00    +0.000 A 
ATOM     12  C   UNL     1       6.186   5.480  17.989  0.00  0.00    +0.000 A 
ATOM     13  C   UNL     1       5.727   5.479  16.689  0.00  0.00    +0.000 A 
ATOM     14  C   UNL     1       6.390   5.326  15.380  0.00  0.00    +0.000 C 
ATOM     15  O   UNL     1       4.376   5.642  16.667  0.00  0.00    +0.000 OA
ENDBRANCH   7  10
BRANCH   6  16
ATOM     16  C   UNL     1       2.114   3.297  18.190  0.00  0.00    +0.000 C 
ATOM     17  O   UNL     1       1.850   3.104  17.013  0.00  0.00    +0.000 OA
BRANCH  16  18
ATOM     18  O   UNL     1       2.574   2.344  19.045  0.00  0.00    +0.000 OA
BRANCH  18  19
ATOM     19  C   UNL     1       4.003   2.149  19.049  0.00  0.00    +0.000 C 
ATOM     20  C   UNL     1       4.512   2.168  20.486  0.00  0.00    +0.000 C 
ATOM     21  C   UNL     1       4.300   0.805  18.394  0.00  0.00    +0.000 C 
ENDBRANCH  18  19
ENDBRANCH  16  18
ENDBRANCH   6  16
BRANCH   9  22
ATOM     22  O   UNL     1       2.814   8.466  16.997  0.00  0.00    +0.000 OA
ATOM     23  H   UNL     1       3.725   8.809  16.984  0.00  0.00    +0.000 HD
ENDBRANCH   9  22
BRANCH   9  24
ATOM     24  O   UNL     1       2.109   9.519  18.979  0.00  0.00    +0.000 OA
BRANCH  24  25
ATOM     25  C   UNL     1       1.305  10.510  18.329  0.00  0.00    +0.000 C 
ATOM     26  C   UNL     1      -0.155  10.071  18.381  0.00  0.00    +0.000 C 
ATOM     27  C   UNL     1       1.498  11.816  19.096  0.00  0.00    +0.000 C 
ENDBRANCH  24  25
ENDBRANCH   9  24
TORSDOF 7
ENDMDL
MODEL 9
REMARK VINA RESULT:      -6.8      1.253      2.127
REMARK  Name = 
REMARK  14 active torsions:
REMARK  status: ('A' for Active; 'I' for Inactive)
REMARK    1  A    between atoms: C_1  and  C_2
REMARK    2  A    between atoms: C_4  and  C_5
REMARK    3  A    between atoms: C_6  and  C_7
REMARK    4  A    between atoms: C_7  and  O_9
REMARK    5  A    between atoms: O_9  and  C_10
REMARK    6  A    between atoms: C_10  and  C_11
REMARK    7  A    between atoms: C_10  and  C_12
REMARK    8  A    between atoms: C_13  and  C_14
REMARK    9  A    between atoms: C_17  and  C_18
REMARK   10  A    between atoms: C_21  and  O_22
REMARK   11  A    between atoms: C_21  and  O_23
REMARK   12  A    between atoms: O_23  and  C_24
REMARK   13  A    between atoms: C_24  and  C_25
REMARK   14  A    between atoms: C_24  and  C_26
REMARK                            x       y       z     vdW  Elec       q    Type
REMARK                         _______ _______ _______ _____ _____    ______ ____
ROOT
ATOM      1  C   UNL     1       1.507   8.943  17.550  0.00  0.00    +0.000 C 
ATOM      2  C   UNL     1       2.457   7.887  18.082  0.00  0.00    +0.000 C 
ATOM      3  N   UNL     1       3.268   7.403  17.193  0.00  0.00    +0.000 NA
ATOM      4  C   UNL     1       4.191   6.445  17.519  0.00  0.00    +0.000 C 
ATOM      5  C   UNL     1       5.066   6.041  16.357  0.00  0.00    +0.000 C 
ATOM      6  C   UNL     1       4.275   5.897  18.746  0.00  0.00    +0.000 C 
ATOM      7  C   UNL     1       3.298   6.259  19.835  0.00  0.00    +0.000 C 
ATOM      8  C   UNL     1       2.418   7.465  19.528  0.00  0.00    +0.000 C 
ATOM      9  C   UNL     1       1.666   8.078  20.474  0.00  0.00    +0.000 C 
ENDROOT
BRANCH   7  10
ATOM     10  C   UNL     1       2.450   5.066  20.200  0.00  0.00    +0.000 A 
ATOM     11  C   UNL     1       2.210   4.407  21.389  0.00  0.00    +0.000 A 
ATOM     12  C   UNL     1       1.292   3.377  21.086  0.00  0.00    +0.000 A 
ATOM     13  C   UNL     1       1.032   3.469  19.736  0.00  0.00    +0.000 A 
ATOM     14  C   UNL     1       0.145   2.724  18.822  0.00  0.00    +0.000 C 
ATOM     15  O   UNL     1       1.758   4.479  19.184  0.00  0.00    +0.000 OA
ENDBRANCH   7  10
BRANCH   6  16
ATOM     16  C   UNL     1       5.250   4.808  19.043  0.00  0.00    +0.000 C 
ATOM     17  O   UNL     1       6.169   4.900  19.842  0.00  0.00    +0.000 OA
BRANCH  16  18
ATOM     18  O   UNL     1       4.993   3.708  18.284  0.00  0.00    +0.000 OA
BRANCH  18  19
ATOM     19  C   UNL     1       4.064   2.763  18.853  0.00  0.00    +0.000 C 
ATOM     20  C   UNL     1       3.681   1.733  17.797  0.00  0.00    +0.000 C 
ATOM     21  C   UNL     1       4.744   2.087  20.039  0.00  0.00    +0.000 C 
ENDBRANCH  18  19
ENDBRANCH  16  18
ENDBRANCH   6  16
BRANCH   9  22
ATOM     22  O   UNL     1       1.659   7.665  21.795  0.00  0.00    +0.000 OA
ATOM     23  H   UNL     1       2.386   7.043  21.971  0.00  0.00    +0.000 HD
ENDBRANCH   9  22
BRANCH   9  24
ATOM     24  O   UNL     1       0.833   9.124  20.143  0.00  0.00    +0.000 OA
BRANCH  24  25
ATOM     25  C   UNL     1       0.844  10.269  21.003  0.00  0.00    +0.000 C 
ATOM     26  C   UNL     1       1.058  11.518  20.154  0.00  0.00    +0.000 C 
ATOM     27  C   UNL     1      -0.515  10.321  21.696  0.00  0.00    +0.000 C 
ENDBRANCH  24  25
ENDBRANCH   9  24
TORSDOF 7
ENDMDL
