MODEL 1
REMARK VINA RESULT:      -8.1      0.000      0.000
REMARK  Name = 
REMARK  8 active torsions:
REMARK  status: ('A' for Active; 'I' for Inactive)
REMARK    1  A    between atoms: C_1  and  C_2
REMARK    2  A    between atoms: N_4  and  C_5
REMARK    3  A    between atoms: C_5  and  C_6
REMARK    4  A    between atoms: C_6  and  N_7
REMARK    5  A    between atoms: C_8  and  S_9
REMARK    6  A    between atoms: S_9  and  C_10
REMARK    7  A    between atoms: C_10  and  C_11
REMARK    8  A    between atoms: C_14  and  C_15
REMARK                            x       y       z     vdW  Elec       q    Type
REMARK                         _______ _______ _______ _____ _____    ______ ____
ROOT
ATOM      1  N   UNL     1       4.033   5.573  17.050  0.00  0.00    +0.000 N 
ATOM      2  C   UNL     1       3.231   6.307  17.930  0.00  0.00    +0.000 A 
ATOM      3  N   UNL     1       2.354   5.774  18.720  0.00  0.00    +0.000 NA
ATOM      4  C   UNL     1       2.161   4.391  18.675  0.00  0.00    +0.000 A 
ATOM      5  C   UNL     1       1.103   3.818  19.383  0.00  0.00    +0.000 A 
ATOM      6  C   UNL     1       0.873   2.439  19.327  0.00  0.00    +0.000 A 
ATOM      7  C   UNL     1       1.708   1.618  18.571  0.00  0.00    +0.000 A 
ATOM      8  C   UNL     1       2.783   2.173  17.883  0.00  0.00    +0.000 A 
ATOM      9  C   UNL     1       2.993   3.557  17.941  0.00  0.00    +0.000 A 
ATOM     10  C   UNL     1       4.102   4.189  17.217  0.00  0.00    +0.000 A 
ATOM     11  O   UNL     1       5.025   3.477  16.829  0.00  0.00    +0.000 OA
ENDROOT
BRANCH   1  12
ATOM     12  C   UNL     1       5.027   6.185  16.143  0.00  0.00    +0.000 C 
BRANCH  12  13
ATOM     13  C   UNL     1       6.499   6.168  16.625  0.00  0.00    +0.000 C 
BRANCH  13  17
ATOM     14  C   UNL     1       8.297   9.202  18.011  0.00  0.00    +0.000 C 
ATOM     15  C   UNL     1       7.851   7.768  17.943  0.00  0.00    +0.000 C 
ATOM     16  O   UNL     1       8.219   6.917  18.744  0.00  0.00    +0.000 OA
ATOM     17  N   UNL     1       7.016   7.504  16.885  0.00  0.00    +0.000 N 
ATOM     18  H   UNL     1       6.717   8.262  16.284  0.00  0.00    +0.000 HD
ENDBRANCH  13  17
ENDBRANCH  12  13
ENDBRANCH   1  12
BRANCH   2  19
ATOM     19  S   UNL     1       3.435   8.055  18.001  0.00  0.00    +0.000 S 
BRANCH  19  20
ATOM     20  C   UNL     1       1.713   8.649  17.891  0.00  0.00    +0.000 C 
BRANCH  20  21
ATOM     21  C   UNL     1       1.186   9.109  19.237  0.00  0.00    +0.000 A 
ATOM     22  C   UNL     1       1.497   8.410  20.413  0.00  0.00    +0.000 A 
ATOM     23  C   UNL     1       0.948   8.794  21.644  0.00  0.00    +0.000 A 
ATOM     24  C   UNL     1       0.070   9.880  21.724  0.00  0.00    +0.000 A 
ATOM     25  C   UNL     1      -0.599  10.247  23.017  0.00  0.00    +0.000 C 
ATOM     26  C   UNL     1      -0.200  10.614  20.565  0.00  0.00    +0.000 A 
ATOM     27  C   UNL     1       0.348  10.231  19.334  0.00  0.00    +0.000 A 
ENDBRANCH  20  21
ENDBRANCH  19  20
ENDBRANCH   2  19
TORSDOF 6
ENDMDL
MODEL 2
REMARK VINA RESULT:      -7.9      1.422      2.051
REMARK  Name = 
REMARK  8 active torsions:
REMARK  status: ('A' for Active; 'I' for Inactive)
REMARK    1  A    between atoms: C_1  and  C_2
REMARK    2  A    between atoms: N_4  and  C_5
REMARK    3  A    between atoms: C_5  and  C_6
REMARK    4  A    between atoms: C_6  and  N_7
REMARK    5  A    between atoms: C_8  and  S_9
REMARK    6  A    between atoms: S_9  and  C_10
REMARK    7  A    between atoms: C_10  and  C_11
REMARK    8  A    between atoms: C_14  and  C_15
REMARK                            x       y       z     vdW  Elec       q    Type
REMARK                         _______ _______ _______ _____ _____    ______ ____
ROOT
ATOM      1  N   UNL     1       4.832   5.839  18.046  0.00  0.00    +0.000 N 
ATOM      2  C   UNL     1       3.571   6.440  17.982  0.00  0.00    +0.000 A 
ATOM      3  N   UNL     1       2.458   5.800  18.152  0.00  0.00    +0.000 NA
ATOM      4  C   UNL     1       2.503   4.421  18.378  0.00  0.00    +0.000 A 
ATOM      5  C   UNL     1       1.318   3.684  18.386  0.00  0.00    +0.000 A 
ATOM      6  C   UNL     1       1.343   2.298  18.580  0.00  0.00    +0.000 A 
ATOM      7  C   UNL     1       2.556   1.639  18.779  0.00  0.00    +0.000 A 
ATOM      8  C   UNL     1       3.742   2.367  18.801  0.00  0.00    +0.000 A 
ATOM      9  C   UNL     1       3.699   3.752  18.596  0.00  0.00    +0.000 A 
ATOM     10  C   UNL     1       4.926   4.557  18.591  0.00  0.00    +0.000 A 
ATOM     11  O   UNL     1       5.942   4.074  19.084  0.00  0.00    +0.000 OA
ENDROOT
BRANCH   1  12
ATOM     12  C   UNL     1       6.100   6.572  17.842  0.00  0.00    +0.000 C 
BRANCH  12  13
ATOM     13  C   UNL     1       7.297   5.741  17.319  0.00  0.00    +0.000 C 
BRANCH  13  17
ATOM     14  C   UNL     1       6.982   4.833  13.654  0.00  0.00    +0.000 C 
ATOM     15  C   UNL     1       6.850   4.655  15.141  0.00  0.00    +0.000 C 
ATOM     16  O   UNL     1       6.316   3.677  15.650  0.00  0.00    +0.000 OA
ATOM     17  N   UNL     1       7.358   5.706  15.866  0.00  0.00    +0.000 N 
ATOM     18  H   UNL     1       7.823   6.465  15.384  0.00  0.00    +0.000 HD
ENDBRANCH  13  17
ENDBRANCH  12  13
ENDBRANCH   1  12
BRANCH   2  19
ATOM     19  S   UNL     1       3.474   8.173  17.682  0.00  0.00    +0.000 S 
BRANCH  19  20
ATOM     20  C   UNL     1       1.675   8.476  17.748  0.00  0.00    +0.000 C 
BRANCH  20  21
ATOM     21  C   UNL     1       1.224   8.907  19.131  0.00  0.00    +0.000 A 
ATOM     22  C   UNL     1       1.584   8.171  20.270  0.00  0.00    +0.000 A 
ATOM     23  C   UNL     1       1.104   8.529  21.538  0.00  0.00    +0.000 A 
ATOM     24  C   UNL     1       0.249   9.625  21.692  0.00  0.00    +0.000 A 
ATOM     25  C   UNL     1      -0.348   9.966  23.026  0.00  0.00    +0.000 C 
ATOM     26  C   UNL     1      -0.069  10.395  20.567  0.00  0.00    +0.000 A 
ATOM     27  C   UNL     1       0.411  10.037  19.301  0.00  0.00    +0.000 A 
ENDBRANCH  20  21
ENDBRANCH  19  20
ENDBRANCH   2  19
TORSDOF 6
ENDMDL
MODEL 3
REMARK VINA RESULT:      -7.9      3.595      6.968
REMARK  Name = 
REMARK  8 active torsions:
REMARK  status: ('A' for Active; 'I' for Inactive)
REMARK    1  A    between atoms: C_1  and  C_2
REMARK    2  A    between atoms: N_4  and  C_5
REMARK    3  A    between atoms: C_5  and  C_6
REMARK    4  A    between atoms: C_6  and  N_7
REMARK    5  A    between atoms: C_8  and  S_9
REMARK    6  A    between atoms: S_9  and  C_10
REMARK    7  A    between atoms: C_10  and  C_11
REMARK    8  A    between atoms: C_14  and  C_15
REMARK                            x       y       z     vdW  Elec       q    Type
REMARK                         _______ _______ _______ _____ _____    ______ ____
ROOT
ATOM      1  N   UNL     1       6.083   5.011  17.359  0.00  0.00    +0.000 N 
ATOM      2  C   UNL     1       7.089   5.905  16.979  0.00  0.00    +0.000 A 
ATOM      3  N   UNL     1       7.541   6.009  15.770  0.00  0.00    +0.000 NA
ATOM      4  C   UNL     1       7.029   5.160  14.785  0.00  0.00    +0.000 A 
ATOM      5  C   UNL     1       7.622   5.130  13.522  0.00  0.00    +0.000 A 
ATOM      6  C   UNL     1       7.145   4.266  12.531  0.00  0.00    +0.000 A 
ATOM      7  C   UNL     1       6.059   3.430  12.791  0.00  0.00    +0.000 A 
ATOM      8  C   UNL     1       5.441   3.470  14.038  0.00  0.00    +0.000 A 
ATOM      9  C   UNL     1       5.938   4.335  15.022  0.00  0.00    +0.000 A 
ATOM     10  C   UNL     1       5.331   4.397  16.356  0.00  0.00    +0.000 A 
ATOM     11  O   UNL     1       4.201   3.937  16.503  0.00  0.00    +0.000 OA
ENDROOT
BRANCH   1  12
ATOM     12  C   UNL     1       5.576   4.888  18.742  0.00  0.00    +0.000 C 
BRANCH  12  13
ATOM     13  C   UNL     1       4.422   5.842  19.138  0.00  0.00    +0.000 C 
BRANCH  13  17
ATOM     14  C   UNL     1       1.412   4.131  20.678  0.00  0.00    +0.000 C 
ATOM     15  C   UNL     1       2.233   4.784  19.601  0.00  0.00    +0.000 C 
ATOM     16  O   UNL     1       1.846   4.896  18.444  0.00  0.00    +0.000 OA
ATOM     17  N   UNL     1       3.464   5.213  20.035  0.00  0.00    +0.000 N 
ATOM     18  H   UNL     1       3.705   5.127  21.015  0.00  0.00    +0.000 HD
ENDBRANCH  13  17
ENDBRANCH  12  13
ENDBRANCH   1  12
BRANCH   2  19
ATOM     19  S   UNL     1       7.771   6.979  18.197  0.00  0.00    +0.000 S 
BRANCH  19  20
ATOM     20  C   UNL     1       7.631   8.612  17.393  0.00  0.00    +0.000 C 
BRANCH  20  21
ATOM     21  C   UNL     1       8.375   9.687  18.164  0.00  0.00    +0.000 A 
ATOM     22  C   UNL     1       8.441  11.004  17.686  0.00  0.00    +0.000 A 
ATOM     23  C   UNL     1       9.191  11.977  18.361  0.00  0.00    +0.000 A 
ATOM     24  C   UNL     1       9.895  11.652  19.525  0.00  0.00    +0.000 A 
ATOM     25  C   UNL     1      10.777  12.656  20.208  0.00  0.00    +0.000 C 
ATOM     26  C   UNL     1       9.788  10.354  20.036  0.00  0.00    +0.000 A 
ATOM     27  C   UNL     1       9.040   9.381  19.361  0.00  0.00    +0.000 A 
ENDBRANCH  20  21
ENDBRANCH  19  20
ENDBRANCH   2  19
TORSDOF 6
ENDMDL
MODEL 4
REMARK VINA RESULT:      -7.7      4.311      6.965
REMARK  Name = 
REMARK  8 active torsions:
REMARK  status: ('A' for Active; 'I' for Inactive)
REMARK    1  A    between atoms: C_1  and  C_2
REMARK    2  A    between atoms: N_4  and  C_5
REMARK    3  A    between atoms: C_5  and  C_6
REMARK    4  A    between atoms: C_6  and  N_7
REMARK    5  A    between atoms: C_8  and  S_9
REMARK    6  A    between atoms: S_9  and  C_10
REMARK    7  A    between atoms: C_10  and  C_11
REMARK    8  A    between atoms: C_14  and  C_15
REMARK                            x       y       z     vdW  Elec       q    Type
REMARK                         _______ _______ _______ _____ _____    ______ ____
ROOT
ATOM      1  N   UNL     1       5.933   5.184  17.194  0.00  0.00    +0.000 N 
ATOM      2  C   UNL     1       7.053   5.954  16.867  0.00  0.00    +0.000 A 
ATOM      3  N   UNL     1       7.590   5.980  15.689  0.00  0.00    +0.000 NA
ATOM      4  C   UNL     1       7.053   5.169  14.686  0.00  0.00    +0.000 A 
ATOM      5  C   UNL     1       7.719   5.046  13.466  0.00  0.00    +0.000 A 
ATOM      6  C   UNL     1       7.214   4.215  12.459  0.00  0.00    +0.000 A 
ATOM      7  C   UNL     1       6.029   3.509  12.661  0.00  0.00    +0.000 A 
ATOM      8  C   UNL     1       5.340   3.645  13.863  0.00  0.00    +0.000 A 
ATOM      9  C   UNL     1       5.865   4.473  14.863  0.00  0.00    +0.000 A 
ATOM     10  C   UNL     1       5.184   4.632  16.153  0.00  0.00    +0.000 A 
ATOM     11  O   UNL     1       4.003   4.301  16.233  0.00  0.00    +0.000 OA
ENDROOT
BRANCH   1  12
ATOM     12  C   UNL     1       5.328   5.149  18.542  0.00  0.00    +0.000 C 
BRANCH  12  13
ATOM     13  C   UNL     1       5.391   3.794  19.290  0.00  0.00    +0.000 C 
BRANCH  13  17
ATOM     14  C   UNL     1       2.041   2.053  18.974  0.00  0.00    +0.000 C 
ATOM     15  C   UNL     1       3.044   3.040  19.503  0.00  0.00    +0.000 C 
ATOM     16  O   UNL     1       2.764   3.891  20.339  0.00  0.00    +0.000 OA
ATOM     17  N   UNL     1       4.289   2.912  18.937  0.00  0.00    +0.000 N 
ATOM     18  H   UNL     1       4.464   2.161  18.281  0.00  0.00    +0.000 HD
ENDBRANCH  13  17
ENDBRANCH  12  13
ENDBRANCH   1  12
BRANCH   2  19
ATOM     19  S   UNL     1       7.769   6.976  18.110  0.00  0.00    +0.000 S 
BRANCH  19  20
ATOM     20  C   UNL     1       7.393   8.653  17.495  0.00  0.00    +0.000 C 
BRANCH  20  21
ATOM     21  C   UNL     1       8.290   9.702  18.126  0.00  0.00    +0.000 A 
ATOM     22  C   UNL     1       9.070   9.403  19.252  0.00  0.00    +0.000 A 
ATOM     23  C   UNL     1       9.840  10.393  19.877  0.00  0.00    +0.000 A 
ATOM     24  C   UNL     1       9.840  11.705  19.393  0.00  0.00    +0.000 A 
ATOM     25  C   UNL     1      10.585  12.798  20.103  0.00  0.00    +0.000 C 
ATOM     26  C   UNL     1       9.108  11.996  18.237  0.00  0.00    +0.000 A 
ATOM     27  C   UNL     1       8.338  11.007  17.613  0.00  0.00    +0.000 A 
ENDBRANCH  20  21
ENDBRANCH  19  20
ENDBRANCH   2  19
TORSDOF 6
ENDMDL
MODEL 5
REMARK VINA RESULT:      -7.7      2.082      3.143
REMARK  Name = 
REMARK  8 active torsions:
REMARK  status: ('A' for Active; 'I' for Inactive)
REMARK    1  A    between atoms: C_1  and  C_2
REMARK    2  A    between atoms: N_4  and  C_5
REMARK    3  A    between atoms: C_5  and  C_6
REMARK    4  A    between atoms: C_6  and  N_7
REMARK    5  A    between atoms: C_8  and  S_9
REMARK    6  A    between atoms: S_9  and  C_10
REMARK    7  A    between atoms: C_10  and  C_11
REMARK    8  A    between atoms: C_14  and  C_15
REMARK                            x       y       z     vdW  Elec       q    Type
REMARK                         _______ _______ _______ _____ _____    ______ ____
ROOT
ATOM      1  N   UNL     1       3.998   6.258  18.368  0.00  0.00    +0.000 N 
ATOM      2  C   UNL     1       2.766   6.846  18.671  0.00  0.00    +0.000 A 
ATOM      3  N   UNL     1       1.869   6.292  19.421  0.00  0.00    +0.000 NA
ATOM      4  C   UNL     1       2.116   5.016  19.936  0.00  0.00    +0.000 A 
ATOM      5  C   UNL     1       1.098   4.328  20.596  0.00  0.00    +0.000 A 
ATOM      6  C   UNL     1       1.315   3.037  21.092  0.00  0.00    +0.000 A 
ATOM      7  C   UNL     1       2.561   2.428  20.942  0.00  0.00    +0.000 A 
ATOM      8  C   UNL     1       3.593   3.115  20.310  0.00  0.00    +0.000 A 
ATOM      9  C   UNL     1       3.355   4.402  19.811  0.00  0.00    +0.000 A 
ATOM     10  C   UNL     1       4.408   5.157  19.121  0.00  0.00    +0.000 A 
ATOM     11  O   UNL     1       5.573   4.796  19.267  0.00  0.00    +0.000 OA
ENDROOT
BRANCH   1  12
ATOM     12  C   UNL     1       5.017   6.891  17.503  0.00  0.00    +0.000 C 
BRANCH  12  13
ATOM     13  C   UNL     1       4.731   6.876  15.981  0.00  0.00    +0.000 C 
BRANCH  13  17
ATOM     14  C   UNL     1       6.671   4.043  14.377  0.00  0.00    +0.000 C 
ATOM     15  C   UNL     1       5.613   4.689  15.228  0.00  0.00    +0.000 C 
ATOM     16  O   UNL     1       4.757   4.049  15.827  0.00  0.00    +0.000 OA
ATOM     17  N   UNL     1       5.685   6.061  15.243  0.00  0.00    +0.000 N 
ATOM     18  H   UNL     1       6.443   6.526  14.759  0.00  0.00    +0.000 HD
ENDBRANCH  13  17
ENDBRANCH  12  13
ENDBRANCH   1  12
BRANCH   2  19
ATOM     19  S   UNL     1       2.411   8.446  18.026  0.00  0.00    +0.000 S 
BRANCH  19  20
ATOM     20  C   UNL     1       1.520   9.232  19.411  0.00  0.00    +0.000 C 
BRANCH  20  21
ATOM     21  C   UNL     1       0.230   9.888  18.955  0.00  0.00    +0.000 A 
ATOM     22  C   UNL     1      -0.410  10.853  19.746  0.00  0.00    +0.000 A 
ATOM     23  C   UNL     1      -1.640  11.402  19.357  0.00  0.00    +0.000 A 
ATOM     24  C   UNL     1      -2.258  10.992  18.171  0.00  0.00    +0.000 A 
ATOM     25  C   UNL     1      -3.617  11.501  17.786  0.00  0.00    +0.000 C 
ATOM     26  C   UNL     1      -1.598  10.071  17.351  0.00  0.00    +0.000 A 
ATOM     27  C   UNL     1      -0.370   9.522  17.740  0.00  0.00    +0.000 A 
ENDBRANCH  20  21
ENDBRANCH  19  20
ENDBRANCH   2  19
TORSDOF 6
ENDMDL
MODEL 6
REMARK VINA RESULT:      -7.7      1.864      2.683
REMARK  Name = 
REMARK  8 active torsions:
REMARK  status: ('A' for Active; 'I' for Inactive)
REMARK    1  A    between atoms: C_1  and  C_2
REMARK    2  A    between atoms: N_4  and  C_5
REMARK    3  A    between atoms: C_5  and  C_6
REMARK    4  A    between atoms: C_6  and  N_7
REMARK    5  A    between atoms: C_8  and  S_9
REMARK    6  A    between atoms: S_9  and  C_10
REMARK    7  A    between atoms: C_10  and  C_11
REMARK    8  A    between atoms: C_14  and  C_15
REMARK                            x       y       z     vdW  Elec       q    Type
REMARK                         _______ _______ _______ _____ _____    ______ ____
ROOT
ATOM      1  N   UNL     1       4.765   5.710  18.152  0.00  0.00    +0.000 N 
ATOM      2  C   UNL     1       3.523   6.328  17.969  0.00  0.00    +0.000 A 
ATOM      3  N   UNL     1       2.389   5.714  18.088  0.00  0.00    +0.000 NA
ATOM      4  C   UNL     1       2.391   4.347  18.379  0.00  0.00    +0.000 A 
ATOM      5  C   UNL     1       1.195   3.630  18.337  0.00  0.00    +0.000 A 
ATOM      6  C   UNL     1       1.179   2.255  18.596  0.00  0.00    +0.000 A 
ATOM      7  C   UNL     1       2.360   1.586  18.912  0.00  0.00    +0.000 A 
ATOM      8  C   UNL     1       3.556   2.295  18.985  0.00  0.00    +0.000 A 
ATOM      9  C   UNL     1       3.555   3.670  18.713  0.00  0.00    +0.000 A 
ATOM     10  C   UNL     1       4.795   4.454  18.760  0.00  0.00    +0.000 A 
ATOM     11  O   UNL     1       5.764   3.978  19.347  0.00  0.00    +0.000 OA
ENDROOT
BRANCH   1  12
ATOM     12  C   UNL     1       6.058   6.412  18.006  0.00  0.00    +0.000 C 
BRANCH  12  13
ATOM     13  C   UNL     1       6.711   6.365  16.602  0.00  0.00    +0.000 C 
BRANCH  13  17
ATOM     14  C   UNL     1       5.998   3.829  13.879  0.00  0.00    +0.000 C 
ATOM     15  C   UNL     1       6.734   4.934  14.583  0.00  0.00    +0.000 C 
ATOM     16  O   UNL     1       7.779   5.413  14.160  0.00  0.00    +0.000 OA
ATOM     17  N   UNL     1       6.136   5.330  15.755  0.00  0.00    +0.000 N 
ATOM     18  H   UNL     1       5.251   4.921  16.026  0.00  0.00    +0.000 HD
ENDBRANCH  13  17
ENDBRANCH  12  13
ENDBRANCH   1  12
BRANCH   2  19
ATOM     19  S   UNL     1       3.482   8.046  17.583  0.00  0.00    +0.000 S 
BRANCH  19  20
ATOM     20  C   UNL     1       1.710   8.441  17.771  0.00  0.00    +0.000 C 
BRANCH  20  21
ATOM     21  C   UNL     1       1.497   9.749  18.510  0.00  0.00    +0.000 A 
ATOM     22  C   UNL     1       2.059  10.945  18.040  0.00  0.00    +0.000 A 
ATOM     23  C   UNL     1       1.923  12.137  18.764  0.00  0.00    +0.000 A 
ATOM     24  C   UNL     1       1.229  12.156  19.978  0.00  0.00    +0.000 A 
ATOM     25  C   UNL     1       1.153  13.403  20.812  0.00  0.00    +0.000 C 
ATOM     26  C   UNL     1       0.620  10.979  20.425  0.00  0.00    +0.000 A 
ATOM     27  C   UNL     1       0.755   9.788  19.701  0.00  0.00    +0.000 A 
ENDBRANCH  20  21
ENDBRANCH  19  20
ENDBRANCH   2  19
TORSDOF 6
ENDMDL
MODEL 7
REMARK VINA RESULT:      -7.7      3.400      5.932
REMARK  Name = 
REMARK  8 active torsions:
REMARK  status: ('A' for Active; 'I' for Inactive)
REMARK    1  A    between atoms: C_1  and  C_2
REMARK    2  A    between atoms: N_4  and  C_5
REMARK    3  A    between atoms: C_5  and  C_6
REMARK    4  A    between atoms: C_6  and  N_7
REMARK    5  A    between atoms: C_8  and  S_9
REMARK    6  A    between atoms: S_9  and  C_10
REMARK    7  A    between atoms: C_10  and  C_11
REMARK    8  A    between atoms: C_14  and  C_15
REMARK                            x       y       z     vdW  Elec       q    Type
REMARK                         _______ _______ _______ _____ _____    ______ ____
ROOT
ATOM      1  N   UNL     1       5.894   4.780  17.208  0.00  0.00    +0.000 N 
ATOM      2  C   UNL     1       6.120   5.604  18.316  0.00  0.00    +0.000 A 
ATOM      3  N   UNL     1       5.252   5.799  19.256  0.00  0.00    +0.000 NA
ATOM      4  C   UNL     1       3.999   5.189  19.153  0.00  0.00    +0.000 A 
ATOM      5  C   UNL     1       2.990   5.525  20.057  0.00  0.00    +0.000 A 
ATOM      6  C   UNL     1       1.719   4.948  19.954  0.00  0.00    +0.000 A 
ATOM      7  C   UNL     1       1.450   4.019  18.950  0.00  0.00    +0.000 A 
ATOM      8  C   UNL     1       2.456   3.654  18.059  0.00  0.00    +0.000 A 
ATOM      9  C   UNL     1       3.719   4.248  18.172  0.00  0.00    +0.000 A 
ATOM     10  C   UNL     1       4.804   3.909  17.244  0.00  0.00    +0.000 A 
ATOM     11  O   UNL     1       4.704   2.878  16.582  0.00  0.00    +0.000 OA
ENDROOT
BRANCH   1  12
ATOM     12  C   UNL     1       6.885   4.566  16.132  0.00  0.00    +0.000 C 
BRANCH  12  13
ATOM     13  C   UNL     1       6.495   5.086  14.726  0.00  0.00    +0.000 C 
BRANCH  13  17
ATOM     14  C   UNL     1       5.680   2.658  11.934  0.00  0.00    +0.000 C 
ATOM     15  C   UNL     1       6.384   3.798  12.616  0.00  0.00    +0.000 C 
ATOM     16  O   UNL     1       7.298   4.424  12.094  0.00  0.00    +0.000 OA
ATOM     17  N   UNL     1       5.922   4.045  13.886  0.00  0.00    +0.000 N 
ATOM     18  H   UNL     1       5.136   3.517  14.243  0.00  0.00    +0.000 HD
ENDBRANCH  13  17
ENDBRANCH  12  13
ENDBRANCH   1  12
BRANCH   2  19
ATOM     19  S   UNL     1       7.681   6.404  18.470  0.00  0.00    +0.000 S 
BRANCH  19  20
ATOM     20  C   UNL     1       7.469   7.873  17.408  0.00  0.00    +0.000 C 
BRANCH  20  21
ATOM     21  C   UNL     1       8.131   9.102  18.003  0.00  0.00    +0.000 A 
ATOM     22  C   UNL     1       8.017  10.355  17.384  0.00  0.00    +0.000 A 
ATOM     23  C   UNL     1       8.691  11.473  17.895  0.00  0.00    +0.000 A 
ATOM     24  C   UNL     1       9.498  11.359  19.031  0.00  0.00    +0.000 A 
ATOM     25  C   UNL     1      10.299  12.524  19.537  0.00  0.00    +0.000 C 
ATOM     26  C   UNL     1       9.571  10.124  19.684  0.00  0.00    +0.000 A 
ATOM     27  C   UNL     1       8.898   9.007  19.174  0.00  0.00    +0.000 A 
ENDBRANCH  20  21
ENDBRANCH  19  20
ENDBRANCH   2  19
TORSDOF 6
ENDMDL
MODEL 8
REMARK VINA RESULT:      -7.7      2.221      2.986
REMARK  Name = 
REMARK  8 active torsions:
REMARK  status: ('A' for Active; 'I' for Inactive)
REMARK    1  A    between atoms: C_1  and  C_2
REMARK    2  A    between atoms: N_4  and  C_5
REMARK    3  A    between atoms: C_5  and  C_6
REMARK    4  A    between atoms: C_6  and  N_7
REMARK    5  A    between atoms: C_8  and  S_9
REMARK    6  A    between atoms: S_9  and  C_10
REMARK    7  A    between atoms: C_10  and  C_11
REMARK    8  A    between atoms: C_14  and  C_15
REMARK                            x       y       z     vdW  Elec       q    Type
REMARK                         _______ _______ _______ _____ _____    ______ ____
ROOT
ATOM      1  N   UNL     1       4.388   5.639  18.061  0.00  0.00    +0.000 N 
ATOM      2  C   UNL     1       3.322   6.490  18.370  0.00  0.00    +0.000 A 
ATOM      3  N   UNL     1       2.385   6.192  19.212  0.00  0.00    +0.000 NA
ATOM      4  C   UNL     1       2.406   4.937  19.828  0.00  0.00    +0.000 A 
ATOM      5  C   UNL     1       1.317   4.527  20.598  0.00  0.00    +0.000 A 
ATOM      6  C   UNL     1       1.305   3.263  21.198  0.00  0.00    +0.000 A 
ATOM      7  C   UNL     1       2.389   2.401  21.041  0.00  0.00    +0.000 A 
ATOM      8  C   UNL     1       3.494   2.809  20.299  0.00  0.00    +0.000 A 
ATOM      9  C   UNL     1       3.485   4.074  19.697  0.00  0.00    +0.000 A 
ATOM     10  C   UNL     1       4.618   4.540  18.890  0.00  0.00    +0.000 A 
ATOM     11  O   UNL     1       5.695   3.960  19.009  0.00  0.00    +0.000 OA
ENDROOT
BRANCH   1  12
ATOM     12  C   UNL     1       5.452   5.978  17.092  0.00  0.00    +0.000 C 
BRANCH  12  13
ATOM     13  C   UNL     1       5.379   5.271  15.716  0.00  0.00    +0.000 C 
BRANCH  13  17
ATOM     14  C   UNL     1       8.057   5.336  13.036  0.00  0.00    +0.000 C 
ATOM     15  C   UNL     1       6.891   4.795  13.815  0.00  0.00    +0.000 C 
ATOM     16  O   UNL     1       6.324   3.748  13.525  0.00  0.00    +0.000 OA
ATOM     17  N   UNL     1       6.509   5.602  14.860  0.00  0.00    +0.000 N 
ATOM     18  H   UNL     1       7.046   6.433  15.070  0.00  0.00    +0.000 HD
ENDBRANCH  13  17
ENDBRANCH  12  13
ENDBRANCH   1  12
BRANCH   2  19
ATOM     19  S   UNL     1       3.253   8.072  17.601  0.00  0.00    +0.000 S 
BRANCH  19  20
ATOM     20  C   UNL     1       1.489   8.508  17.774  0.00  0.00    +0.000 C 
BRANCH  20  21
ATOM     21  C   UNL     1       1.303   9.897  18.357  0.00  0.00    +0.000 A 
ATOM     22  C   UNL     1       0.222  10.188  19.202  0.00  0.00    +0.000 A 
ATOM     23  C   UNL     1       0.012  11.489  19.678  0.00  0.00    +0.000 A 
ATOM     24  C   UNL     1       0.874  12.528  19.314  0.00  0.00    +0.000 A 
ATOM     25  C   UNL     1       0.612  13.943  19.739  0.00  0.00    +0.000 C 
ATOM     26  C   UNL     1       1.986  12.232  18.517  0.00  0.00    +0.000 A 
ATOM     27  C   UNL     1       2.196  10.932  18.041  0.00  0.00    +0.000 A 
ENDBRANCH  20  21
ENDBRANCH  19  20
ENDBRANCH   2  19
TORSDOF 6
ENDMDL
MODEL 9
REMARK VINA RESULT:      -7.7      1.687      2.483
REMARK  Name = 
REMARK  8 active torsions:
REMARK  status: ('A' for Active; 'I' for Inactive)
REMARK    1  A    between atoms: C_1  and  C_2
REMARK    2  A    between atoms: N_4  and  C_5
REMARK    3  A    between atoms: C_5  and  C_6
REMARK    4  A    between atoms: C_6  and  N_7
REMARK    5  A    between atoms: C_8  and  S_9
REMARK    6  A    between atoms: S_9  and  C_10
REMARK    7  A    between atoms: C_10  and  C_11
REMARK    8  A    between atoms: C_14  and  C_15
REMARK                            x       y       z     vdW  Elec       q    Type
REMARK                         _______ _______ _______ _____ _____    ______ ____
ROOT
ATOM      1  N   UNL     1       4.169   5.947  17.726  0.00  0.00    +0.000 N 
ATOM      2  C   UNL     1       2.898   6.397  18.098  0.00  0.00    +0.000 A 
ATOM      3  N   UNL     1       1.952   5.618  18.514  0.00  0.00    +0.000 NA
ATOM      4  C   UNL     1       2.186   4.241  18.562  0.00  0.00    +0.000 A 
ATOM      5  C   UNL     1       1.131   3.370  18.834  0.00  0.00    +0.000 A 
ATOM      6  C   UNL     1       1.337   1.986  18.858  0.00  0.00    +0.000 A 
ATOM      7  C   UNL     1       2.607   1.461  18.621  0.00  0.00    +0.000 A 
ATOM      8  C   UNL     1       3.674   2.321  18.376  0.00  0.00    +0.000 A 
ATOM      9  C   UNL     1       3.448   3.704  18.347  0.00  0.00    +0.000 A 
ATOM     10  C   UNL     1       4.538   4.647  18.074  0.00  0.00    +0.000 A 
ATOM     11  O   UNL     1       5.695   4.250  18.193  0.00  0.00    +0.000 OA
ENDROOT
BRANCH   1  12
ATOM     12  C   UNL     1       5.245   6.839  17.243  0.00  0.00    +0.000 C 
BRANCH  12  13
ATOM     13  C   UNL     1       5.355   7.016  15.709  0.00  0.00    +0.000 C 
BRANCH  13  17
ATOM     14  C   UNL     1       6.294   3.758  14.016  0.00  0.00    +0.000 C 
ATOM     15  C   UNL     1       6.518   5.067  14.722  0.00  0.00    +0.000 C 
ATOM     16  O   UNL     1       7.631   5.472  15.037  0.00  0.00    +0.000 OA
ATOM     17  N   UNL     1       5.356   5.745  15.001  0.00  0.00    +0.000 N 
ATOM     18  H   UNL     1       4.472   5.373  14.676  0.00  0.00    +0.000 HD
ENDBRANCH  13  17
ENDBRANCH  12  13
ENDBRANCH   1  12
BRANCH   2  19
ATOM     19  S   UNL     1       2.561   8.125  18.033  0.00  0.00    +0.000 S 
BRANCH  19  20
ATOM     20  C   UNL     1       1.859   8.443  19.688  0.00  0.00    +0.000 C 
BRANCH  20  21
ATOM     21  C   UNL     1       0.782   9.512  19.650  0.00  0.00    +0.000 A 
ATOM     22  C   UNL     1       0.295  10.090  20.831  0.00  0.00    +0.000 A 
ATOM     23  C   UNL     1      -0.752  11.021  20.798  0.00  0.00    +0.000 A 
ATOM     24  C   UNL     1      -1.338  11.389  19.582  0.00  0.00    +0.000 A 
ATOM     25  C   UNL     1      -2.519  12.314  19.536  0.00  0.00    +0.000 C 
ATOM     26  C   UNL     1      -0.819  10.857  18.396  0.00  0.00    +0.000 A 
ATOM     27  C   UNL     1       0.226   9.926  18.430  0.00  0.00    +0.000 A 
ENDBRANCH  20  21
ENDBRANCH  19  20
ENDBRANCH   2  19
TORSDOF 6
ENDMDL
