MODEL 1
REMARK VINA RESULT:      -7.9      0.000      0.000
REMARK  Name = 
REMARK  10 active torsions:
REMARK  status: ('A' for Active; 'I' for Inactive)
REMARK    1  A    between atoms: C_1  and  O_2
REMARK    2  A    between atoms: O_2  and  C_3
REMARK    3  A    between atoms: C_5  and  S_6
REMARK    4  A    between atoms: S_6  and  O_9
REMARK    5  A    between atoms: C_10  and  C_11
REMARK    6  A    between atoms: C_13  and  N_14
REMARK    7  A    between atoms: N_15  and  C_16
REMARK    8  A    between atoms: C_17  and  O_18
REMARK    9  A    between atoms: C_23  and  S_24
REMARK   10  A    between atoms: S_24  and  O_27
REMARK                            x       y       z     vdW  Elec       q    Type
REMARK                         _______ _______ _______ _____ _____    ______ ____
ROOT
ATOM      1  C   UNL     1       2.092   4.863  19.287  0.00  0.00    +0.000 A 
ATOM      2  C   UNL     1       1.705   3.632  19.863  0.00  0.00    +0.000 A 
ATOM      3  C   UNL     1       2.372   2.443  19.584  0.00  0.00    +0.000 A 
ATOM      4  C   UNL     1       3.443   2.445  18.701  0.00  0.00    +0.000 A 
ATOM      5  C   UNL     1       3.854   3.631  18.086  0.00  0.00    +0.000 A 
ATOM      6  C   UNL     1       4.927   3.603  17.182  0.00  0.00    +0.000 A 
ATOM      7  C   UNL     1       5.346   4.777  16.555  0.00  0.00    +0.000 A 
ATOM      8  C   UNL     1       4.705   5.987  16.806  0.00  0.00    +0.000 A 
ATOM      9  C   UNL     1       3.638   6.022  17.708  0.00  0.00    +0.000 A 
ATOM     10  C   UNL     1       3.184   4.855  18.369  0.00  0.00    +0.000 A 
ENDROOT
BRANCH   7  11
ATOM     11  S   UNL     1       6.669   4.703  15.384  0.00  0.00    +0.000 S 
ATOM     12  O   UNL     1       6.500   5.799  14.453  0.00  0.00    +0.000 OA
ATOM     13  O   UNL     1       7.892   4.483  16.115  0.00  0.00    +0.000 OA
BRANCH  11  14
ATOM     14  O   UNL     1       6.350   3.374  14.516  0.00  0.00    +0.000 OA
ATOM     15  H   UNL     1       6.761   3.493  13.633  0.00  0.00    +0.000 HD
ENDBRANCH  11  14
ENDBRANCH   7  11
BRANCH   1  17
ATOM     16  N   UNL     1       2.128   6.972  20.069  0.00  0.00    +0.000 NA
ATOM     17  N   UNL     1       1.421   6.100  19.527  0.00  0.00    +0.000 NA
BRANCH  16  24
ATOM     18  C   UNL     1       1.091   9.157  19.375  0.00  0.00    +0.000 A 
ATOM     19  C   UNL     1       0.343  10.272  19.771  0.00  0.00    +0.000 A 
ATOM     20  C   UNL     1      -0.035  10.464  21.107  0.00  0.00    +0.000 A 
ATOM     21  C   UNL     1       0.293   9.512  22.079  0.00  0.00    +0.000 A 
ATOM     22  C   UNL     1      -0.086   9.593  23.530  0.00  0.00    +0.000 C 
ATOM     23  C   UNL     1       1.040   8.389  21.666  0.00  0.00    +0.000 A 
ATOM     24  C   UNL     1       1.451   8.188  20.332  0.00  0.00    +0.000 A 
BRANCH  20  25
ATOM     25  S   UNL     1      -0.903  11.979  21.455  0.00  0.00    +0.000 S 
ATOM     26  O   UNL     1      -1.169  12.628  20.186  0.00  0.00    +0.000 OA
ATOM     27  O   UNL     1      -1.960  11.673  22.391  0.00  0.00    +0.000 OA
BRANCH  25  28
ATOM     28  O   UNL     1       0.172  12.940  22.170  0.00  0.00    +0.000 OA
ATOM     29  H   UNL     1       0.656  12.397  22.829  0.00  0.00    +0.000 HD
ENDBRANCH  25  28
ENDBRANCH  20  25
BRANCH  18  31
ATOM     30  C   UNL     1       2.553   9.710  17.595  0.00  0.00    +0.000 C 
ATOM     31  O   UNL     1       1.438   8.952  18.063  0.00  0.00    +0.000 OA
ENDBRANCH  18  31
ENDBRANCH  16  24
ENDBRANCH   1  17
BRANCH   2  32
ATOM     32  O   UNL     1       0.639   3.518  20.718  0.00  0.00    +0.000 OA
ATOM     33  H   UNL     1       0.444   4.426  21.020  0.00  0.00    +0.000 HD
ENDBRANCH   2  32
TORSDOF 8
ENDMDL
MODEL 2
REMARK VINA RESULT:      -7.9      0.521      1.130
REMARK  Name = 
REMARK  10 active torsions:
REMARK  status: ('A' for Active; 'I' for Inactive)
REMARK    1  A    between atoms: C_1  and  O_2
REMARK    2  A    between atoms: O_2  and  C_3
REMARK    3  A    between atoms: C_5  and  S_6
REMARK    4  A    between atoms: S_6  and  O_9
REMARK    5  A    between atoms: C_10  and  C_11
REMARK    6  A    between atoms: C_13  and  N_14
REMARK    7  A    between atoms: N_15  and  C_16
REMARK    8  A    between atoms: C_17  and  O_18
REMARK    9  A    between atoms: C_23  and  S_24
REMARK   10  A    between atoms: S_24  and  O_27
REMARK                            x       y       z     vdW  Elec       q    Type
REMARK                         _______ _______ _______ _____ _____    ______ ____
ROOT
ATOM      1  C   UNL     1       2.006   4.883  19.400  0.00  0.00    +0.000 A 
ATOM      2  C   UNL     1       1.519   3.613  19.784  0.00  0.00    +0.000 A 
ATOM      3  C   UNL     1       2.184   2.436  19.456  0.00  0.00    +0.000 A 
ATOM      4  C   UNL     1       3.356   2.490  18.714  0.00  0.00    +0.000 A 
ATOM      5  C   UNL     1       3.871   3.719  18.290  0.00  0.00    +0.000 A 
ATOM      6  C   UNL     1       5.047   3.747  17.524  0.00  0.00    +0.000 A 
ATOM      7  C   UNL     1       5.571   4.964  17.088  0.00  0.00    +0.000 A 
ATOM      8  C   UNL     1       4.935   6.164  17.394  0.00  0.00    +0.000 A 
ATOM      9  C   UNL     1       3.766   6.143  18.160  0.00  0.00    +0.000 A 
ATOM     10  C   UNL     1       3.203   4.930  18.626  0.00  0.00    +0.000 A 
ENDROOT
BRANCH   7  11
ATOM     11  S   UNL     1       7.026   4.965  16.084  0.00  0.00    +0.000 S 
ATOM     12  O   UNL     1       6.760   4.151  14.916  0.00  0.00    +0.000 OA
ATOM     13  O   UNL     1       7.500   6.323  15.997  0.00  0.00    +0.000 OA
BRANCH  11  14
ATOM     14  O   UNL     1       8.096   4.107  16.945  0.00  0.00    +0.000 OA
ATOM     15  H   UNL     1       7.836   3.163  16.883  0.00  0.00    +0.000 HD
ENDBRANCH  11  14
ENDBRANCH   7  11
BRANCH   1  17
ATOM     16  N   UNL     1       2.097   7.021  20.091  0.00  0.00    +0.000 NA
ATOM     17  N   UNL     1       1.343   6.111  19.696  0.00  0.00    +0.000 NA
BRANCH  16  24
ATOM     18  C   UNL     1       1.036   9.223  19.493  0.00  0.00    +0.000 A 
ATOM     19  C   UNL     1       0.305  10.328  19.944  0.00  0.00    +0.000 A 
ATOM     20  C   UNL     1      -0.021  10.487  21.299  0.00  0.00    +0.000 A 
ATOM     21  C   UNL     1       0.345   9.511  22.233  0.00  0.00    +0.000 A 
ATOM     22  C   UNL     1       0.022   9.556  23.699  0.00  0.00    +0.000 C 
ATOM     23  C   UNL     1       1.074   8.398  21.763  0.00  0.00    +0.000 A 
ATOM     24  C   UNL     1       1.433   8.230  20.410  0.00  0.00    +0.000 A 
BRANCH  20  25
ATOM     25  S   UNL     1      -0.873  11.993  21.718  0.00  0.00    +0.000 S 
ATOM     26  O   UNL     1      -2.010  11.632  22.542  0.00  0.00    +0.000 OA
ATOM     27  O   UNL     1       0.117  12.948  22.158  0.00  0.00    +0.000 OA
BRANCH  25  28
ATOM     28  O   UNL     1      -1.533  12.512  20.345  0.00  0.00    +0.000 OA
ATOM     29  H   UNL     1      -2.246  13.143  20.583  0.00  0.00    +0.000 HD
ENDBRANCH  25  28
ENDBRANCH  20  25
BRANCH  18  31
ATOM     30  C   UNL     1       2.488   9.743  17.694  0.00  0.00    +0.000 C 
ATOM     31  O   UNL     1       1.332   9.050  18.163  0.00  0.00    +0.000 OA
ENDBRANCH  18  31
ENDBRANCH  16  24
ENDBRANCH   1  17
BRANCH   2  32
ATOM     32  O   UNL     1       0.353   3.449  20.487  0.00  0.00    +0.000 OA
ATOM     33  H   UNL     1       0.510   3.857  21.360  0.00  0.00    +0.000 HD
ENDBRANCH   2  32
TORSDOF 8
ENDMDL
MODEL 3
REMARK VINA RESULT:      -7.7      1.652      2.800
REMARK  Name = 
REMARK  10 active torsions:
REMARK  status: ('A' for Active; 'I' for Inactive)
REMARK    1  A    between atoms: C_1  and  O_2
REMARK    2  A    between atoms: O_2  and  C_3
REMARK    3  A    between atoms: C_5  and  S_6
REMARK    4  A    between atoms: S_6  and  O_9
REMARK    5  A    between atoms: C_10  and  C_11
REMARK    6  A    between atoms: C_13  and  N_14
REMARK    7  A    between atoms: N_15  and  C_16
REMARK    8  A    between atoms: C_17  and  O_18
REMARK    9  A    between atoms: C_23  and  S_24
REMARK   10  A    between atoms: S_24  and  O_27
REMARK                            x       y       z     vdW  Elec       q    Type
REMARK                         _______ _______ _______ _____ _____    ______ ____
ROOT
ATOM      1  C   UNL     1       2.568   6.600  19.277  0.00  0.00    +0.000 A 
ATOM      2  C   UNL     1       2.025   5.628  20.147  0.00  0.00    +0.000 A 
ATOM      3  C   UNL     1       2.470   4.310  20.154  0.00  0.00    +0.000 A 
ATOM      4  C   UNL     1       3.468   3.915  19.274  0.00  0.00    +0.000 A 
ATOM      5  C   UNL     1       4.026   4.831  18.376  0.00  0.00    +0.000 A 
ATOM      6  C   UNL     1       5.020   4.404  17.483  0.00  0.00    +0.000 A 
ATOM      7  C   UNL     1       5.583   5.303  16.577  0.00  0.00    +0.000 A 
ATOM      8  C   UNL     1       5.164   6.630  16.537  0.00  0.00    +0.000 A 
ATOM      9  C   UNL     1       4.177   7.063  17.427  0.00  0.00    +0.000 A 
ATOM     10  C   UNL     1       3.583   6.184  18.365  0.00  0.00    +0.000 A 
ENDROOT
BRANCH   7  11
ATOM     11  S   UNL     1       6.798   4.724  15.431  0.00  0.00    +0.000 S 
ATOM     12  O   UNL     1       6.841   5.654  14.321  0.00  0.00    +0.000 OA
ATOM     13  O   UNL     1       7.971   4.353  16.183  0.00  0.00    +0.000 OA
BRANCH  11  14
ATOM     14  O   UNL     1       6.144   3.379  14.812  0.00  0.00    +0.000 OA
ATOM     15  H   UNL     1       6.747   3.053  14.110  0.00  0.00    +0.000 HD
ENDBRANCH  11  14
ENDBRANCH   7  11
BRANCH   1  17
ATOM     16  N   UNL     1       1.485   8.329  20.224  0.00  0.00    +0.000 NA
ATOM     17  N   UNL     1       2.124   7.955  19.221  0.00  0.00    +0.000 NA
BRANCH  16  24
ATOM     18  C   UNL     1       0.047  10.247  20.988  0.00  0.00    +0.000 A 
ATOM     19  C   UNL     1      -0.248  11.609  20.859  0.00  0.00    +0.000 A 
ATOM     20  C   UNL     1       0.385  12.408  19.896  0.00  0.00    +0.000 A 
ATOM     21  C   UNL     1       1.369  11.864  19.063  0.00  0.00    +0.000 A 
ATOM     22  C   UNL     1       2.137  12.628  18.022  0.00  0.00    +0.000 C 
ATOM     23  C   UNL     1       1.663  10.492  19.208  0.00  0.00    +0.000 A 
ATOM     24  C   UNL     1       1.021   9.665  20.153  0.00  0.00    +0.000 A 
BRANCH  20  25
ATOM     25  S   UNL     1      -0.172  14.096  19.805  0.00  0.00    +0.000 S 
ATOM     26  O   UNL     1      -1.381  14.198  20.600  0.00  0.00    +0.000 OA
ATOM     27  O   UNL     1       0.970  14.947  20.041  0.00  0.00    +0.000 OA
BRANCH  25  28
ATOM     28  O   UNL     1      -0.679  14.302  18.291  0.00  0.00    +0.000 OA
ATOM     29  H   UNL     1      -1.577  13.911  18.227  0.00  0.00    +0.000 HD
ENDBRANCH  25  28
ENDBRANCH  20  25
BRANCH  18  31
ATOM     30  C   UNL     1      -0.809  10.115  23.194  0.00  0.00    +0.000 C 
ATOM     31  O   UNL     1      -0.551   9.468  21.948  0.00  0.00    +0.000 OA
ENDBRANCH  18  31
ENDBRANCH  16  24
ENDBRANCH   1  17
BRANCH   2  32
ATOM     32  O   UNL     1       1.011   5.908  21.028  0.00  0.00    +0.000 OA
ATOM     33  H   UNL     1       1.232   5.424  21.847  0.00  0.00    +0.000 HD
ENDBRANCH   2  32
TORSDOF 8
ENDMDL
MODEL 4
REMARK VINA RESULT:      -7.7      0.531      1.254
REMARK  Name = 
REMARK  10 active torsions:
REMARK  status: ('A' for Active; 'I' for Inactive)
REMARK    1  A    between atoms: C_1  and  O_2
REMARK    2  A    between atoms: O_2  and  C_3
REMARK    3  A    between atoms: C_5  and  S_6
REMARK    4  A    between atoms: S_6  and  O_9
REMARK    5  A    between atoms: C_10  and  C_11
REMARK    6  A    between atoms: C_13  and  N_14
REMARK    7  A    between atoms: N_15  and  C_16
REMARK    8  A    between atoms: C_17  and  O_18
REMARK    9  A    between atoms: C_23  and  S_24
REMARK   10  A    between atoms: S_24  and  O_27
REMARK                            x       y       z     vdW  Elec       q    Type
REMARK                         _______ _______ _______ _____ _____    ______ ____
ROOT
ATOM      1  C   UNL     1       2.022   4.794  19.404  0.00  0.00    +0.000 A 
ATOM      2  C   UNL     1       1.533   3.533  19.814  0.00  0.00    +0.000 A 
ATOM      3  C   UNL     1       2.200   2.349  19.518  0.00  0.00    +0.000 A 
ATOM      4  C   UNL     1       3.377   2.386  18.783  0.00  0.00    +0.000 A 
ATOM      5  C   UNL     1       3.895   3.606  18.334  0.00  0.00    +0.000 A 
ATOM      6  C   UNL     1       5.076   3.617  17.576  0.00  0.00    +0.000 A 
ATOM      7  C   UNL     1       5.603   4.823  17.116  0.00  0.00    +0.000 A 
ATOM      8  C   UNL     1       4.964   6.030  17.390  0.00  0.00    +0.000 A 
ATOM      9  C   UNL     1       3.790   6.026  18.147  0.00  0.00    +0.000 A 
ATOM     10  C   UNL     1       3.224   4.824  18.638  0.00  0.00    +0.000 A 
ENDROOT
BRANCH   7  11
ATOM     11  S   UNL     1       7.065   4.802  16.123  0.00  0.00    +0.000 S 
ATOM     12  O   UNL     1       8.116   4.167  16.893  0.00  0.00    +0.000 OA
ATOM     13  O   UNL     1       6.693   4.363  14.801  0.00  0.00    +0.000 OA
BRANCH  11  14
ATOM     14  O   UNL     1       7.504   6.358  16.037  0.00  0.00    +0.000 OA
ATOM     15  H   UNL     1       7.635   6.576  15.089  0.00  0.00    +0.000 HD
ENDBRANCH  11  14
ENDBRANCH   7  11
BRANCH   1  17
ATOM     16  N   UNL     1       2.099   6.932  20.096  0.00  0.00    +0.000 NA
ATOM     17  N   UNL     1       1.356   6.029  19.667  0.00  0.00    +0.000 NA
BRANCH  16  24
ATOM     18  C   UNL     1       1.039   9.117  19.439  0.00  0.00    +0.000 A 
ATOM     19  C   UNL     1       0.304  10.232  19.860  0.00  0.00    +0.000 A 
ATOM     20  C   UNL     1      -0.031  10.422  21.208  0.00  0.00    +0.000 A 
ATOM     21  C   UNL     1       0.329   9.470  22.168  0.00  0.00    +0.000 A 
ATOM     22  C   UNL     1      -0.003   9.549  23.630  0.00  0.00    +0.000 C 
ATOM     23  C   UNL     1       1.063   8.347  21.729  0.00  0.00    +0.000 A 
ATOM     24  C   UNL     1       1.431   8.148  20.383  0.00  0.00    +0.000 A 
BRANCH  20  25
ATOM     25  S   UNL     1      -0.888  11.937  21.585  0.00  0.00    +0.000 S 
ATOM     26  O   UNL     1       0.029  12.781  22.326  0.00  0.00    +0.000 OA
ATOM     27  O   UNL     1      -1.533  12.388  20.374  0.00  0.00    +0.000 OA
BRANCH  25  28
ATOM     28  O   UNL     1      -2.014  11.538  22.665  0.00  0.00    +0.000 OA
ATOM     29  H   UNL     1      -1.621  11.662  23.555  0.00  0.00    +0.000 HD
ENDBRANCH  25  28
ENDBRANCH  20  25
BRANCH  18  31
ATOM     30  C   UNL     1       2.513   9.583  17.643  0.00  0.00    +0.000 C 
ATOM     31  O   UNL     1       1.345   8.914  18.116  0.00  0.00    +0.000 OA
ENDBRANCH  18  31
ENDBRANCH  16  24
ENDBRANCH   1  17
BRANCH   2  32
ATOM     32  O   UNL     1       0.361   3.385  20.512  0.00  0.00    +0.000 OA
ATOM     33  H   UNL     1       0.400   2.494  20.909  0.00  0.00    +0.000 HD
ENDBRANCH   2  32
TORSDOF 8
ENDMDL
MODEL 5
REMARK VINA RESULT:      -7.5      1.504      2.564
REMARK  Name = 
REMARK  10 active torsions:
REMARK  status: ('A' for Active; 'I' for Inactive)
REMARK    1  A    between atoms: C_1  and  O_2
REMARK    2  A    between atoms: O_2  and  C_3
REMARK    3  A    between atoms: C_5  and  S_6
REMARK    4  A    between atoms: S_6  and  O_9
REMARK    5  A    between atoms: C_10  and  C_11
REMARK    6  A    between atoms: C_13  and  N_14
REMARK    7  A    between atoms: N_15  and  C_16
REMARK    8  A    between atoms: C_17  and  O_18
REMARK    9  A    between atoms: C_23  and  S_24
REMARK   10  A    between atoms: S_24  and  O_27
REMARK                            x       y       z     vdW  Elec       q    Type
REMARK                         _______ _______ _______ _____ _____    ______ ____
ROOT
ATOM      1  C   UNL     1       2.514   6.033  19.239  0.00  0.00    +0.000 A 
ATOM      2  C   UNL     1       1.695   4.966  19.671  0.00  0.00    +0.000 A 
ATOM      3  C   UNL     1       1.870   3.665  19.210  0.00  0.00    +0.000 A 
ATOM      4  C   UNL     1       2.865   3.392  18.282  0.00  0.00    +0.000 A 
ATOM      5  C   UNL     1       3.690   4.414  17.803  0.00  0.00    +0.000 A 
ATOM      6  C   UNL     1       4.676   4.116  16.851  0.00  0.00    +0.000 A 
ATOM      7  C   UNL     1       5.505   5.125  16.359  0.00  0.00    +0.000 A 
ATOM      8  C   UNL     1       5.361   6.439  16.794  0.00  0.00    +0.000 A 
ATOM      9  C   UNL     1       4.383   6.742  17.746  0.00  0.00    +0.000 A 
ATOM     10  C   UNL     1       3.525   5.747  18.274  0.00  0.00    +0.000 A 
ENDROOT
BRANCH   7  11
ATOM     11  S   UNL     1       6.706   4.728  15.124  0.00  0.00    +0.000 S 
ATOM     12  O   UNL     1       6.608   5.721  14.074  0.00  0.00    +0.000 OA
ATOM     13  O   UNL     1       7.943   4.422  15.796  0.00  0.00    +0.000 OA
BRANCH  11  14
ATOM     14  O   UNL     1       6.142   3.367  14.452  0.00  0.00    +0.000 OA
ATOM     15  H   UNL     1       5.416   3.034  15.023  0.00  0.00    +0.000 HD
ENDBRANCH  11  14
ENDBRANCH   7  11
BRANCH   1  17
ATOM     16  N   UNL     1       1.338   7.950  19.220  0.00  0.00    +0.000 NA
ATOM     17  N   UNL     1       2.353   7.385  19.669  0.00  0.00    +0.000 NA
BRANCH  16  24
ATOM     18  C   UNL     1       0.640   9.743  20.841  0.00  0.00    +0.000 A 
ATOM     19  C   UNL     1       0.648  11.110  21.146  0.00  0.00    +0.000 A 
ATOM     20  C   UNL     1       1.173  12.056  20.255  0.00  0.00    +0.000 A 
ATOM     21  C   UNL     1       1.747  11.647  19.046  0.00  0.00    +0.000 A 
ATOM     22  C   UNL     1       2.370  12.563  18.031  0.00  0.00    +0.000 C 
ATOM     23  C   UNL     1       1.740  10.266  18.754  0.00  0.00    +0.000 A 
ATOM     24  C   UNL     1       1.196   9.300  19.625  0.00  0.00    +0.000 A 
BRANCH  20  25
ATOM     25  S   UNL     1       1.021  13.758  20.755  0.00  0.00    +0.000 S 
ATOM     26  O   UNL     1       2.362  14.297  20.870  0.00  0.00    +0.000 OA
ATOM     27  O   UNL     1       0.021  14.373  19.915  0.00  0.00    +0.000 OA
BRANCH  25  28
ATOM     28  O   UNL     1       0.483  13.716  22.271  0.00  0.00    +0.000 OA
ATOM     29  H   UNL     1       1.246  13.907  22.858  0.00  0.00    +0.000 HD
ENDBRANCH  25  28
ENDBRANCH  20  25
BRANCH  18  31
ATOM     30  C   UNL     1      -0.250   9.319  22.996  0.00  0.00    +0.000 C 
ATOM     31  O   UNL     1       0.152   8.812  21.724  0.00  0.00    +0.000 OA
ENDBRANCH  18  31
ENDBRANCH  16  24
ENDBRANCH   1  17
BRANCH   2  32
ATOM     32  O   UNL     1       0.662   5.139  20.558  0.00  0.00    +0.000 OA
ATOM     33  H   UNL     1      -0.141   4.841  20.089  0.00  0.00    +0.000 HD
ENDBRANCH   2  32
TORSDOF 8
ENDMDL
MODEL 6
REMARK VINA RESULT:      -7.5      2.695      8.573
REMARK  Name = 
REMARK  10 active torsions:
REMARK  status: ('A' for Active; 'I' for Inactive)
REMARK    1  A    between atoms: C_1  and  O_2
REMARK    2  A    between atoms: O_2  and  C_3
REMARK    3  A    between atoms: C_5  and  S_6
REMARK    4  A    between atoms: S_6  and  O_9
REMARK    5  A    between atoms: C_10  and  C_11
REMARK    6  A    between atoms: C_13  and  N_14
REMARK    7  A    between atoms: N_15  and  C_16
REMARK    8  A    between atoms: C_17  and  O_18
REMARK    9  A    between atoms: C_23  and  S_24
REMARK   10  A    between atoms: S_24  and  O_27
REMARK                            x       y       z     vdW  Elec       q    Type
REMARK                         _______ _______ _______ _____ _____    ______ ____
ROOT
ATOM      1  C   UNL     1       0.032   9.759  21.178  0.00  0.00    +0.000 A 
ATOM      2  C   UNL     1      -0.621   9.700  22.429  0.00  0.00    +0.000 A 
ATOM      3  C   UNL     1      -1.008  10.846  23.116  0.00  0.00    +0.000 A 
ATOM      4  C   UNL     1      -0.735  12.096  22.579  0.00  0.00    +0.000 A 
ATOM      5  C   UNL     1      -0.072  12.213  21.353  0.00  0.00    +0.000 A 
ATOM      6  C   UNL     1       0.210  13.488  20.840  0.00  0.00    +0.000 A 
ATOM      7  C   UNL     1       0.876  13.623  19.622  0.00  0.00    +0.000 A 
ATOM      8  C   UNL     1       1.280  12.500  18.903  0.00  0.00    +0.000 A 
ATOM      9  C   UNL     1       1.000  11.228  19.408  0.00  0.00    +0.000 A 
ATOM     10  C   UNL     1       0.322  11.047  20.638  0.00  0.00    +0.000 A 
ENDROOT
BRANCH   7  11
ATOM     11  S   UNL     1       1.260  15.241  19.023  0.00  0.00    +0.000 S 
ATOM     12  O   UNL     1       2.408  15.130  18.147  0.00  0.00    +0.000 OA
ATOM     13  O   UNL     1       0.025  15.864  18.616  0.00  0.00    +0.000 OA
BRANCH  11  14
ATOM     14  O   UNL     1       1.815  16.020  20.329  0.00  0.00    +0.000 OA
ATOM     15  H   UNL     1       1.155  15.902  21.046  0.00  0.00    +0.000 HD
ENDBRANCH  11  14
ENDBRANCH   7  11
BRANCH   1  17
ATOM     16  N   UNL     1       1.302   7.906  21.052  0.00  0.00    +0.000 NA
ATOM     17  N   UNL     1       0.466   8.609  20.452  0.00  0.00    +0.000 NA
BRANCH  16  24
ATOM     18  C   UNL     1       2.560   6.818  19.165  0.00  0.00    +0.000 A 
ATOM     19  C   UNL     1       3.002   5.618  18.595  0.00  0.00    +0.000 A 
ATOM     20  C   UNL     1       2.636   4.375  19.128  0.00  0.00    +0.000 A 
ATOM     21  C   UNL     1       1.847   4.305  20.282  0.00  0.00    +0.000 A 
ATOM     22  C   UNL     1       1.422   3.035  20.962  0.00  0.00    +0.000 C 
ATOM     23  C   UNL     1       1.415   5.522  20.852  0.00  0.00    +0.000 A 
ATOM     24  C   UNL     1       1.751   6.782  20.318  0.00  0.00    +0.000 A 
BRANCH  20  25
ATOM     25  S   UNL     1       3.207   2.948  18.229  0.00  0.00    +0.000 S 
ATOM     26  O   UNL     1       4.065   2.190  19.119  0.00  0.00    +0.000 OA
ATOM     27  O   UNL     1       2.063   2.352  17.581  0.00  0.00    +0.000 OA
BRANCH  25  28
ATOM     28  O   UNL     1       4.211   3.518  17.107  0.00  0.00    +0.000 OA
ATOM     29  H   UNL     1       4.548   4.381  17.428  0.00  0.00    +0.000 HD
ENDBRANCH  25  28
ENDBRANCH  20  25
BRANCH  18  31
ATOM     30  C   UNL     1       2.257   8.456  17.480  0.00  0.00    +0.000 C 
ATOM     31  O   UNL     1       2.940   8.037  18.661  0.00  0.00    +0.000 OA
ENDBRANCH  18  31
ENDBRANCH  16  24
ENDBRANCH   1  17
BRANCH   2  32
ATOM     32  O   UNL     1      -0.903   8.516  23.062  0.00  0.00    +0.000 OA
ATOM     33  H   UNL     1      -0.480   8.577  23.939  0.00  0.00    +0.000 HD
ENDBRANCH   2  32
TORSDOF 8
ENDMDL
MODEL 7
REMARK VINA RESULT:      -7.5      2.812      8.349
REMARK  Name = 
REMARK  10 active torsions:
REMARK  status: ('A' for Active; 'I' for Inactive)
REMARK    1  A    between atoms: C_1  and  O_2
REMARK    2  A    between atoms: O_2  and  C_3
REMARK    3  A    between atoms: C_5  and  S_6
REMARK    4  A    between atoms: S_6  and  O_9
REMARK    5  A    between atoms: C_10  and  C_11
REMARK    6  A    between atoms: C_13  and  N_14
REMARK    7  A    between atoms: N_15  and  C_16
REMARK    8  A    between atoms: C_17  and  O_18
REMARK    9  A    between atoms: C_23  and  S_24
REMARK   10  A    between atoms: S_24  and  O_27
REMARK                            x       y       z     vdW  Elec       q    Type
REMARK                         _______ _______ _______ _____ _____    ______ ____
ROOT
ATOM      1  C   UNL     1       0.309   9.634  20.918  0.00  0.00    +0.000 A 
ATOM      2  C   UNL     1      -0.453   9.646  22.108  0.00  0.00    +0.000 A 
ATOM      3  C   UNL     1      -0.800  10.829  22.752  0.00  0.00    +0.000 A 
ATOM      4  C   UNL     1      -0.379  12.045  22.233  0.00  0.00    +0.000 A 
ATOM      5  C   UNL     1       0.396  12.091  21.070  0.00  0.00    +0.000 A 
ATOM      6  C   UNL     1       0.827  13.332  20.576  0.00  0.00    +0.000 A 
ATOM      7  C   UNL     1       1.605  13.394  19.420  0.00  0.00    +0.000 A 
ATOM      8  C   UNL     1       1.975  12.233  18.746  0.00  0.00    +0.000 A 
ATOM      9  C   UNL     1       1.546  10.995  19.231  0.00  0.00    +0.000 A 
ATOM     10  C   UNL     1       0.751  10.887  20.398  0.00  0.00    +0.000 A 
ENDROOT
BRANCH   7  11
ATOM     11  S   UNL     1       2.174  14.968  18.849  0.00  0.00    +0.000 S 
ATOM     12  O   UNL     1       1.020  15.721  18.401  0.00  0.00    +0.000 OA
ATOM     13  O   UNL     1       3.108  15.478  19.820  0.00  0.00    +0.000 OA
BRANCH  11  14
ATOM     14  O   UNL     1       2.988  14.622  17.493  0.00  0.00    +0.000 OA
ATOM     15  H   UNL     1       3.849  15.091  17.538  0.00  0.00    +0.000 HD
ENDBRANCH  11  14
ENDBRANCH   7  11
BRANCH   1  17
ATOM     16  N   UNL     1       1.485   7.717  20.886  0.00  0.00    +0.000 NA
ATOM     17  N   UNL     1       0.706   8.443  20.239  0.00  0.00    +0.000 NA
BRANCH  16  24
ATOM     18  C   UNL     1       2.667   6.517  19.018  0.00  0.00    +0.000 A 
ATOM     19  C   UNL     1       3.079   5.283  18.498  0.00  0.00    +0.000 A 
ATOM     20  C   UNL     1       2.724   4.074  19.112  0.00  0.00    +0.000 A 
ATOM     21  C   UNL     1       1.976   4.074  20.295  0.00  0.00    +0.000 A 
ATOM     22  C   UNL     1       1.567   2.847  21.058  0.00  0.00    +0.000 C 
ATOM     23  C   UNL     1       1.574   5.324  20.813  0.00  0.00    +0.000 A 
ATOM     24  C   UNL     1       1.900   6.551  20.199  0.00  0.00    +0.000 A 
BRANCH  20  25
ATOM     25  S   UNL     1       3.252   2.596  18.272  0.00  0.00    +0.000 S 
ATOM     26  O   UNL     1       3.929   1.762  19.246  0.00  0.00    +0.000 OA
ATOM     27  O   UNL     1       2.134   2.110  17.497  0.00  0.00    +0.000 OA
BRANCH  25  28
ATOM     28  O   UNL     1       4.424   3.062  17.272  0.00  0.00    +0.000 OA
ATOM     29  H   UNL     1       4.111   2.895  16.357  0.00  0.00    +0.000 HD
ENDBRANCH  25  28
ENDBRANCH  20  25
BRANCH  18  31
ATOM     30  C   UNL     1       3.932   7.594  17.329  0.00  0.00    +0.000 C 
ATOM     31  O   UNL     1       3.037   7.703  18.434  0.00  0.00    +0.000 OA
ENDBRANCH  18  31
ENDBRANCH  16  24
ENDBRANCH   1  17
BRANCH   2  32
ATOM     32  O   UNL     1      -0.887   8.498  22.720  0.00  0.00    +0.000 OA
ATOM     33  H   UNL     1      -1.790   8.691  23.035  0.00  0.00    +0.000 HD
ENDBRANCH   2  32
TORSDOF 8
ENDMDL
MODEL 8
REMARK VINA RESULT:      -7.5      2.648      8.671
REMARK  Name = 
REMARK  10 active torsions:
REMARK  status: ('A' for Active; 'I' for Inactive)
REMARK    1  A    between atoms: C_1  and  O_2
REMARK    2  A    between atoms: O_2  and  C_3
REMARK    3  A    between atoms: C_5  and  S_6
REMARK    4  A    between atoms: S_6  and  O_9
REMARK    5  A    between atoms: C_10  and  C_11
REMARK    6  A    between atoms: C_13  and  N_14
REMARK    7  A    between atoms: N_15  and  C_16
REMARK    8  A    between atoms: C_17  and  O_18
REMARK    9  A    between atoms: C_23  and  S_24
REMARK   10  A    between atoms: S_24  and  O_27
REMARK                            x       y       z     vdW  Elec       q    Type
REMARK                         _______ _______ _______ _____ _____    ______ ____
ROOT
ATOM      1  C   UNL     1      -0.029   9.807  21.219  0.00  0.00    +0.000 A 
ATOM      2  C   UNL     1      -0.651   9.664  22.480  0.00  0.00    +0.000 A 
ATOM      3  C   UNL     1      -1.091  10.760  23.216  0.00  0.00    +0.000 A 
ATOM      4  C   UNL     1      -0.905  12.042  22.720  0.00  0.00    +0.000 A 
ATOM      5  C   UNL     1      -0.276  12.243  21.487  0.00  0.00    +0.000 A 
ATOM      6  C   UNL     1      -0.083  13.550  21.015  0.00  0.00    +0.000 A 
ATOM      7  C   UNL     1       0.548  13.768  19.790  0.00  0.00    +0.000 A 
ATOM      8  C   UNL     1       1.004  12.698  19.024  0.00  0.00    +0.000 A 
ATOM      9  C   UNL     1       0.811  11.394  19.487  0.00  0.00    +0.000 A 
ATOM     10  C   UNL     1       0.171  11.128  20.722  0.00  0.00    +0.000 A 
ENDROOT
BRANCH   7  11
ATOM     11  S   UNL     1       0.821  15.427  19.245  0.00  0.00    +0.000 S 
ATOM     12  O   UNL     1       0.747  16.293  20.403  0.00  0.00    +0.000 OA
ATOM     13  O   UNL     1       1.952  15.416  18.351  0.00  0.00    +0.000 OA
BRANCH  11  14
ATOM     14  O   UNL     1      -0.504  15.779  18.384  0.00  0.00    +0.000 OA
ATOM     15  H   UNL     1      -0.245  15.800  17.438  0.00  0.00    +0.000 HD
ENDBRANCH  11  14
ENDBRANCH   7  11
BRANCH   1  17
ATOM     16  N   UNL     1       1.348   8.042  21.001  0.00  0.00    +0.000 NA
ATOM     17  N   UNL     1       0.457   8.712  20.443  0.00  0.00    +0.000 NA
BRANCH  16  24
ATOM     18  C   UNL     1       2.576   7.099  19.018  0.00  0.00    +0.000 A 
ATOM     19  C   UNL     1       3.086   5.953  18.396  0.00  0.00    +0.000 A 
ATOM     20  C   UNL     1       2.866   4.674  18.926  0.00  0.00    +0.000 A 
ATOM     21  C   UNL     1       2.161   4.516  20.125  0.00  0.00    +0.000 A 
ATOM     22  C   UNL     1       1.894   3.203  20.803  0.00  0.00    +0.000 C 
ATOM     23  C   UNL     1       1.659   5.680  20.745  0.00  0.00    +0.000 A 
ATOM     24  C   UNL     1       1.848   6.974  20.217  0.00  0.00    +0.000 A 
BRANCH  20  25
ATOM     25  S   UNL     1       3.504   3.318  17.964  0.00  0.00    +0.000 S 
ATOM     26  O   UNL     1       2.413   2.388  17.749  0.00  0.00    +0.000 OA
ATOM     27  O   UNL     1       4.257   3.877  16.866  0.00  0.00    +0.000 OA
BRANCH  25  28
ATOM     28  O   UNL     1       4.507   2.527  18.943  0.00  0.00    +0.000 OA
ATOM     29  H   UNL     1       4.398   2.907  19.841  0.00  0.00    +0.000 HD
ENDBRANCH  25  28
ENDBRANCH  20  25
BRANCH  18  31
ATOM     30  C   UNL     1       1.960   8.764  17.447  0.00  0.00    +0.000 C 
ATOM     31  O   UNL     1       2.813   8.355  18.516  0.00  0.00    +0.000 OA
ENDBRANCH  18  31
ENDBRANCH  16  24
ENDBRANCH   1  17
BRANCH   2  32
ATOM     32  O   UNL     1      -0.848   8.443  23.074  0.00  0.00    +0.000 OA
ATOM     33  H   UNL     1      -1.486   7.972  22.505  0.00  0.00    +0.000 HD
ENDBRANCH   2  32
TORSDOF 8
ENDMDL
MODEL 9
REMARK VINA RESULT:      -7.4      3.057      4.714
REMARK  Name = 
REMARK  10 active torsions:
REMARK  status: ('A' for Active; 'I' for Inactive)
REMARK    1  A    between atoms: C_1  and  O_2
REMARK    2  A    between atoms: O_2  and  C_3
REMARK    3  A    between atoms: C_5  and  S_6
REMARK    4  A    between atoms: S_6  and  O_9
REMARK    5  A    between atoms: C_10  and  C_11
REMARK    6  A    between atoms: C_13  and  N_14
REMARK    7  A    between atoms: N_15  and  C_16
REMARK    8  A    between atoms: C_17  and  O_18
REMARK    9  A    between atoms: C_23  and  S_24
REMARK   10  A    between atoms: S_24  and  O_27
REMARK                            x       y       z     vdW  Elec       q    Type
REMARK                         _______ _______ _______ _____ _____    ______ ____
ROOT
ATOM      1  C   UNL     1       1.884   8.437  18.910  0.00  0.00    +0.000 A 
ATOM      2  C   UNL     1       2.654   8.876  17.808  0.00  0.00    +0.000 A 
ATOM      3  C   UNL     1       3.562   8.044  17.162  0.00  0.00    +0.000 A 
ATOM      4  C   UNL     1       3.744   6.743  17.610  0.00  0.00    +0.000 A 
ATOM      5  C   UNL     1       3.025   6.263  18.709  0.00  0.00    +0.000 A 
ATOM      6  C   UNL     1       3.241   4.951  19.155  0.00  0.00    +0.000 A 
ATOM      7  C   UNL     1       2.536   4.458  20.253  0.00  0.00    +0.000 A 
ATOM      8  C   UNL     1       1.619   5.259  20.928  0.00  0.00    +0.000 A 
ATOM      9  C   UNL     1       1.397   6.566  20.486  0.00  0.00    +0.000 A 
ATOM     10  C   UNL     1       2.087   7.104  19.373  0.00  0.00    +0.000 A 
ENDROOT
BRANCH   7  11
ATOM     11  S   UNL     1       2.865   2.817  20.822  0.00  0.00    +0.000 S 
ATOM     12  O   UNL     1       4.178   2.436  20.344  0.00  0.00    +0.000 OA
ATOM     13  O   UNL     1       2.492   2.750  22.213  0.00  0.00    +0.000 OA
BRANCH  11  14
ATOM     14  O   UNL     1       1.837   1.896  19.975  0.00  0.00    +0.000 OA
ATOM     15  H   UNL     1       1.643   1.098  20.514  0.00  0.00    +0.000 HD
ENDBRANCH  11  14
ENDBRANCH   7  11
BRANCH   1  17
ATOM     16  N   UNL     1       0.277  10.009  18.886  0.00  0.00    +0.000 NA
ATOM     17  N   UNL     1       0.960   9.265  19.615  0.00  0.00    +0.000 NA
BRANCH  16  24
ATOM     18  C   UNL     1      -1.560  11.725  19.013  0.00  0.00    +0.000 A 
ATOM     19  C   UNL     1      -2.444  12.430  19.838  0.00  0.00    +0.000 A 
ATOM     20  C   UNL     1      -2.400  12.308  21.233  0.00  0.00    +0.000 A 
ATOM     21  C   UNL     1      -1.488  11.435  21.838  0.00  0.00    +0.000 A 
ATOM     22  C   UNL     1      -1.372  11.197  23.317  0.00  0.00    +0.000 C 
ATOM     23  C   UNL     1      -0.608  10.724  20.995  0.00  0.00    +0.000 A 
ATOM     24  C   UNL     1      -0.619  10.850  19.591  0.00  0.00    +0.000 A 
BRANCH  20  25
ATOM     25  S   UNL     1      -3.532  13.344  22.137  0.00  0.00    +0.000 S 
ATOM     26  O   UNL     1      -4.503  12.473  22.771  0.00  0.00    +0.000 OA
ATOM     27  O   UNL     1      -2.748  14.292  22.894  0.00  0.00    +0.000 OA
BRANCH  25  28
ATOM     28  O   UNL     1      -4.381  14.132  21.021  0.00  0.00    +0.000 OA
ATOM     29  H   UNL     1      -4.100  15.072  21.049  0.00  0.00    +0.000 HD
ENDBRANCH  25  28
ENDBRANCH  20  25
BRANCH  18  31
ATOM     30  C   UNL     1      -2.689  11.110  17.022  0.00  0.00    +0.000 C 
ATOM     31  O   UNL     1      -1.619  11.821  17.644  0.00  0.00    +0.000 OA
ENDBRANCH  18  31
ENDBRANCH  16  24
ENDBRANCH   1  17
BRANCH   2  32
ATOM     32  O   UNL     1       2.574  10.153  17.313  0.00  0.00    +0.000 OA
ATOM     33  H   UNL     1       1.992  10.640  17.927  0.00  0.00    +0.000 HD
ENDBRANCH   2  32
TORSDOF 8
ENDMDL
