MODEL 1
REMARK VINA RESULT:      -6.8      0.000      0.000
REMARK  Name = 
REMARK  7 active torsions:
REMARK  status: ('A' for Active; 'I' for Inactive)
REMARK    1  A    between atoms: C_1  and  C_2
REMARK    2  A    between atoms: C_2  and  C_3
REMARK    3  A    between atoms: C_2  and  C_4
REMARK    4  A    between atoms: C_4  and  O_5
REMARK    5  A    between atoms: C_4  and  C_6
REMARK    6  A    between atoms: N_21  and  S_22
REMARK    7  A    between atoms: S_22  and  C_23
REMARK                            x       y       z     vdW  Elec       q    Type
REMARK                         _______ _______ _______ _____ _____    ______ ____
ROOT
ATOM      1  C   UNL     1       2.234   8.447  18.085  0.00  0.00    +0.000 C 
ATOM      2  O   UNL     1       3.066   9.375  18.071  0.00  0.00    +0.000 OA
ATOM      3  N   UNL     1       2.631   7.151  17.788  0.00  0.00    +0.000 N 
ATOM      4  C   UNL     1       4.076   7.169  17.771  0.00  0.00    +0.000 C 
ATOM      5  C   UNL     1       4.499   5.790  17.911  0.00  0.00    +0.000 C 
ATOM      6  C   UNL     1       4.352   4.350  17.505  0.00  0.00    +0.000 C 
ATOM      7  C   UNL     1       2.784   4.323  17.244  0.00  0.00    +0.000 C 
ATOM      8  C   UNL     1       1.910   5.764  17.624  0.00  0.00    +0.000 C 
ATOM      9  C   UNL     1       5.373   4.287  16.335  0.00  0.00    +0.000 A 
ATOM     10  N   UNL     1       5.091   4.538  15.010  0.00  0.00    +0.000 NA
ATOM     11  C   UNL     1       6.162   5.147  14.539  0.00  0.00    +0.000 A 
ATOM     12  N   UNL     1       7.142   5.286  15.487  0.00  0.00    +0.000 N 
ATOM     13  C   UNL     1       6.678   4.688  16.627  0.00  0.00    +0.000 A 
ATOM     14  C   UNL     1       7.266   4.822  17.998  0.00  0.00    +0.000 C 
ATOM     15  C   UNL     1       6.296   4.362  19.130  0.00  0.00    +0.000 C 
ATOM     16  N   UNL     1       5.071   3.582  18.627  0.00  0.00    +0.000 NA
ATOM     17  H   UNL     1       7.970   5.855  15.396  0.00  0.00    +0.000 HD
ENDROOT
BRANCH  16  18
ATOM     18  S   UNL     1       4.248   2.739  19.832  0.00  0.00    +0.000 S 
ATOM     19  C   UNL     1       3.360   1.526  18.894  0.00  0.00    +0.000 C 
ATOM     20  O   UNL     1       5.203   2.030  20.632  0.00  0.00    +0.000 OA
ATOM     21  O   UNL     1       3.302   3.654  20.448  0.00  0.00    +0.000 OA
ENDBRANCH  16  18
BRANCH   1  22
ATOM     22  C   UNL     1       0.852   8.843  18.526  0.00  0.00    +0.000 C 
BRANCH  22  24
ATOM     23  C   UNL     1      -0.409  10.193  20.257  0.00  0.00    +0.000 C 
ATOM     24  C   UNL     1       0.876   9.427  19.957  0.00  0.00    +0.000 C 
ATOM     25  C   UNL     1       1.114   8.350  21.007  0.00  0.00    +0.000 C 
ENDBRANCH  22  24
BRANCH  22  26
ATOM     26  O   UNL     1       0.525   9.933  17.621  0.00  0.00    +0.000 OA
ATOM     27  H   UNL     1       1.044   9.751  16.814  0.00  0.00    +0.000 HD
ENDBRANCH  22  26
ENDBRANCH   1  22
TORSDOF 4
ENDMDL
MODEL 2
REMARK VINA RESULT:      -5.8      8.528     12.349
REMARK  Name = 
REMARK  7 active torsions:
REMARK  status: ('A' for Active; 'I' for Inactive)
REMARK    1  A    between atoms: C_1  and  C_2
REMARK    2  A    between atoms: C_2  and  C_3
REMARK    3  A    between atoms: C_2  and  C_4
REMARK    4  A    between atoms: C_4  and  O_5
REMARK    5  A    between atoms: C_4  and  C_6
REMARK    6  A    between atoms: N_21  and  S_22
REMARK    7  A    between atoms: S_22  and  C_23
REMARK                            x       y       z     vdW  Elec       q    Type
REMARK                         _______ _______ _______ _____ _____    ______ ____
ROOT
ATOM      1  C   UNL     1      -1.053  12.636  19.444  0.00  0.00    +0.000 C 
ATOM      2  O   UNL     1      -0.805  13.654  18.768  0.00  0.00    +0.000 OA
ATOM      3  N   UNL     1      -1.515  12.760  20.745  0.00  0.00    +0.000 N 
ATOM      4  C   UNL     1      -1.849  14.155  20.921  0.00  0.00    +0.000 C 
ATOM      5  C   UNL     1      -2.726  14.219  22.072  0.00  0.00    +0.000 C 
ATOM      6  C   UNL     1      -3.031  13.803  23.485  0.00  0.00    +0.000 C 
ATOM      7  C   UNL     1      -2.436  12.330  23.445  0.00  0.00    +0.000 C 
ATOM      8  C   UNL     1      -1.857  11.768  21.917  0.00  0.00    +0.000 C 
ATOM      9  C   UNL     1      -2.324  14.945  24.267  0.00  0.00    +0.000 A 
ATOM     10  N   UNL     1      -1.016  14.931  24.700  0.00  0.00    +0.000 NA
ATOM     11  C   UNL     1      -0.593  16.172  24.560  0.00  0.00    +0.000 A 
ATOM     12  N   UNL     1      -1.570  17.005  24.078  0.00  0.00    +0.000 N 
ATOM     13  C   UNL     1      -2.702  16.248  23.941  0.00  0.00    +0.000 A 
ATOM     14  C   UNL     1      -3.943  16.640  23.198  0.00  0.00    +0.000 C 
ATOM     15  C   UNL     1      -4.877  15.431  22.884  0.00  0.00    +0.000 C 
ATOM     16  N   UNL     1      -4.520  14.147  23.651  0.00  0.00    +0.000 NA
ATOM     17  H   UNL     1      -1.427  17.946  23.746  0.00  0.00    +0.000 HD
ENDROOT
BRANCH  16  18
ATOM     18  S   UNL     1      -5.736  12.980  23.643  0.00  0.00    +0.000 S 
ATOM     19  C   UNL     1      -7.184  13.951  23.957  0.00  0.00    +0.000 C 
ATOM     20  O   UNL     1      -5.864  12.456  22.315  0.00  0.00    +0.000 OA
ATOM     21  O   UNL     1      -5.504  12.089  24.769  0.00  0.00    +0.000 OA
ENDBRANCH  16  18
BRANCH   1  22
ATOM     22  C   UNL     1      -0.896  11.335  18.707  0.00  0.00    +0.000 C 
BRANCH  22  24
ATOM     23  C   UNL     1      -1.854   9.843  16.900  0.00  0.00    +0.000 C 
ATOM     24  C   UNL     1      -1.984  11.183  17.619  0.00  0.00    +0.000 C 
ATOM     25  C   UNL     1      -3.386  11.349  18.189  0.00  0.00    +0.000 C 
ENDBRANCH  22  24
BRANCH  22  26
ATOM     26  O   UNL     1       0.376  11.502  18.023  0.00  0.00    +0.000 OA
ATOM     27  H   UNL     1       0.860  12.162  18.556  0.00  0.00    +0.000 HD
ENDBRANCH  22  26
ENDBRANCH   1  22
TORSDOF 4
ENDMDL
MODEL 3
REMARK VINA RESULT:      -5.8      7.620     12.337
REMARK  Name = 
REMARK  7 active torsions:
REMARK  status: ('A' for Active; 'I' for Inactive)
REMARK    1  A    between atoms: C_1  and  C_2
REMARK    2  A    between atoms: C_2  and  C_3
REMARK    3  A    between atoms: C_2  and  C_4
REMARK    4  A    between atoms: C_4  and  O_5
REMARK    5  A    between atoms: C_4  and  C_6
REMARK    6  A    between atoms: N_21  and  S_22
REMARK    7  A    between atoms: S_22  and  C_23
REMARK                            x       y       z     vdW  Elec       q    Type
REMARK                         _______ _______ _______ _____ _____    ______ ____
ROOT
ATOM      1  C   UNL     1      -1.730  11.536  18.845  0.00  0.00    +0.000 C 
ATOM      2  O   UNL     1      -2.049  10.732  17.947  0.00  0.00    +0.000 OA
ATOM      3  N   UNL     1      -2.691  12.353  19.420  0.00  0.00    +0.000 N 
ATOM      4  C   UNL     1      -3.968  11.854  18.964  0.00  0.00    +0.000 C 
ATOM      5  C   UNL     1      -4.959  12.382  19.879  0.00  0.00    +0.000 C 
ATOM      6  C   UNL     1      -5.511  13.552  20.646  0.00  0.00    +0.000 C 
ATOM      7  C   UNL     1      -4.148  14.308  20.962  0.00  0.00    +0.000 C 
ATOM      8  C   UNL     1      -2.691  13.513  20.483  0.00  0.00    +0.000 C 
ATOM      9  C   UNL     1      -6.527  14.108  19.610  0.00  0.00    +0.000 A 
ATOM     10  N   UNL     1      -6.255  15.054  18.647  0.00  0.00    +0.000 NA
ATOM     11  C   UNL     1      -6.963  14.690  17.595  0.00  0.00    +0.000 A 
ATOM     12  N   UNL     1      -7.705  13.561  17.832  0.00  0.00    +0.000 N 
ATOM     13  C   UNL     1      -7.484  13.209  19.136  0.00  0.00    +0.000 A 
ATOM     14  C   UNL     1      -7.851  11.904  19.773  0.00  0.00    +0.000 C 
ATOM     15  C   UNL     1      -7.120  11.655  21.128  0.00  0.00    +0.000 C 
ATOM     16  N   UNL     1      -6.420  12.899  21.700  0.00  0.00    +0.000 NA
ATOM     17  H   UNL     1      -8.188  13.019  17.132  0.00  0.00    +0.000 HD
ENDROOT
BRANCH  16  18
ATOM     18  S   UNL     1      -5.988  12.762  23.323  0.00  0.00    +0.000 S 
ATOM     19  C   UNL     1      -6.107  14.439  23.881  0.00  0.00    +0.000 C 
ATOM     20  O   UNL     1      -7.005  12.020  24.010  0.00  0.00    +0.000 OA
ATOM     21  O   UNL     1      -4.599  12.336  23.379  0.00  0.00    +0.000 OA
ENDBRANCH  16  18
BRANCH   1  22
ATOM     22  C   UNL     1      -0.292  11.463  19.277  0.00  0.00    +0.000 C 
BRANCH  22  24
ATOM     23  C   UNL     1       1.408   9.892  18.251  0.00  0.00    +0.000 C 
ATOM     24  C   UNL     1       0.230  10.008  19.214  0.00  0.00    +0.000 C 
ATOM     25  C   UNL     1       0.610   9.480  20.591  0.00  0.00    +0.000 C 
ENDBRANCH  22  24
BRANCH  22  26
ATOM     26  O   UNL     1       0.397  12.212  18.239  0.00  0.00    +0.000 OA
ATOM     27  H   UNL     1       0.086  13.132  18.348  0.00  0.00    +0.000 HD
ENDBRANCH  22  26
ENDBRANCH   1  22
TORSDOF 4
ENDMDL
MODEL 4
REMARK VINA RESULT:      -5.7      7.173      9.381
REMARK  Name = 
REMARK  7 active torsions:
REMARK  status: ('A' for Active; 'I' for Inactive)
REMARK    1  A    between atoms: C_1  and  C_2
REMARK    2  A    between atoms: C_2  and  C_3
REMARK    3  A    between atoms: C_2  and  C_4
REMARK    4  A    between atoms: C_4  and  O_5
REMARK    5  A    between atoms: C_4  and  C_6
REMARK    6  A    between atoms: N_21  and  S_22
REMARK    7  A    between atoms: S_22  and  C_23
REMARK                            x       y       z     vdW  Elec       q    Type
REMARK                         _______ _______ _______ _____ _____    ______ ____
ROOT
ATOM      1  C   UNL     1       2.060  15.357  18.527  0.00  0.00    +0.000 C 
ATOM      2  O   UNL     1       2.868  14.805  17.754  0.00  0.00    +0.000 OA
ATOM      3  N   UNL     1       0.942  14.668  18.973  0.00  0.00    +0.000 N 
ATOM      4  C   UNL     1       1.140  13.289  18.589  0.00  0.00    +0.000 C 
ATOM      5  C   UNL     1       0.242  12.506  19.412  0.00  0.00    +0.000 C 
ATOM      6  C   UNL     1      -1.129  12.312  19.999  0.00  0.00    +0.000 C 
ATOM      7  C   UNL     1      -1.529  13.836  20.208  0.00  0.00    +0.000 C 
ATOM      8  C   UNL     1      -0.313  15.012  19.856  0.00  0.00    +0.000 C 
ATOM      9  C   UNL     1      -1.784  11.444  18.889  0.00  0.00    +0.000 A 
ATOM     10  N   UNL     1      -2.477  11.924  17.799  0.00  0.00    +0.000 NA
ATOM     11  C   UNL     1      -2.170  11.109  16.809  0.00  0.00    +0.000 A 
ATOM     12  N   UNL     1      -1.327  10.102  17.204  0.00  0.00    +0.000 N 
ATOM     13  C   UNL     1      -1.116  10.267  18.546  0.00  0.00    +0.000 A 
ATOM     14  C   UNL     1      -0.061   9.589  19.365  0.00  0.00    +0.000 C 
ATOM     15  C   UNL     1       0.180  10.275  20.744  0.00  0.00    +0.000 C 
ATOM     16  N   UNL     1      -0.898  11.299  21.133  0.00  0.00    +0.000 NA
ATOM     17  H   UNL     1      -0.841   9.469  16.588  0.00  0.00    +0.000 HD
ENDROOT
BRANCH  16  18
ATOM     18  S   UNL     1      -0.881  11.735  22.760  0.00  0.00    +0.000 S 
ATOM     19  C   UNL     1      -2.601  12.005  23.090  0.00  0.00    +0.000 C 
ATOM     20  O   UNL     1      -0.480  10.599  23.538  0.00  0.00    +0.000 OA
ATOM     21  O   UNL     1      -0.168  12.997  22.875  0.00  0.00    +0.000 OA
ENDBRANCH  16  18
BRANCH   1  22
ATOM     22  C   UNL     1       2.453  16.738  18.972  0.00  0.00    +0.000 C 
BRANCH  22  24
ATOM     23  C   UNL     1       4.924  17.039  19.435  0.00  0.00    +0.000 C 
ATOM     24  C   UNL     1       3.571  16.676  20.039  0.00  0.00    +0.000 C 
ATOM     25  C   UNL     1       3.263  17.565  21.237  0.00  0.00    +0.000 C 
ENDBRANCH  22  24
BRANCH  22  26
ATOM     26  O   UNL     1       3.039  17.311  17.770  0.00  0.00    +0.000 OA
ATOM     27  H   UNL     1       3.627  16.612  17.423  0.00  0.00    +0.000 HD
ENDBRANCH  22  26
ENDBRANCH   1  22
TORSDOF 4
ENDMDL
MODEL 5
REMARK VINA RESULT:      -5.7      8.682     12.743
REMARK  Name = 
REMARK  7 active torsions:
REMARK  status: ('A' for Active; 'I' for Inactive)
REMARK    1  A    between atoms: C_1  and  C_2
REMARK    2  A    between atoms: C_2  and  C_3
REMARK    3  A    between atoms: C_2  and  C_4
REMARK    4  A    between atoms: C_4  and  O_5
REMARK    5  A    between atoms: C_4  and  C_6
REMARK    6  A    between atoms: N_21  and  S_22
REMARK    7  A    between atoms: S_22  and  C_23
REMARK                            x       y       z     vdW  Elec       q    Type
REMARK                         _______ _______ _______ _____ _____    ______ ____
ROOT
ATOM      1  C   UNL     1      -1.550  12.515  20.404  0.00  0.00    +0.000 C 
ATOM      2  O   UNL     1      -1.478  11.859  19.346  0.00  0.00    +0.000 OA
ATOM      3  N   UNL     1      -2.750  13.098  20.782  0.00  0.00    +0.000 N 
ATOM      4  C   UNL     1      -3.757  12.550  19.902  0.00  0.00    +0.000 C 
ATOM      5  C   UNL     1      -5.031  12.786  20.548  0.00  0.00    +0.000 C 
ATOM      6  C   UNL     1      -5.952  13.725  21.279  0.00  0.00    +0.000 C 
ATOM      7  C   UNL     1      -4.867  14.559  22.088  0.00  0.00    +0.000 C 
ATOM      8  C   UNL     1      -3.226  14.034  21.952  0.00  0.00    +0.000 C 
ATOM      9  C   UNL     1      -6.723  14.343  20.079  0.00  0.00    +0.000 A 
ATOM     10  N   UNL     1      -6.356  15.475  19.386  0.00  0.00    +0.000 NA
ATOM     11  C   UNL     1      -6.682  15.233  18.131  0.00  0.00    +0.000 A 
ATOM     12  N   UNL     1      -7.269  14.003  17.974  0.00  0.00    +0.000 N 
ATOM     13  C   UNL     1      -7.357  13.444  19.219  0.00  0.00    +0.000 A 
ATOM     14  C   UNL     1      -7.669  12.011  19.526  0.00  0.00    +0.000 C 
ATOM     15  C   UNL     1      -7.304  11.602  20.986  0.00  0.00    +0.000 C 
ATOM     16  N   UNL     1      -6.996  12.791  21.911  0.00  0.00    +0.000 NA
ATOM     17  H   UNL     1      -7.449  13.548  17.092  0.00  0.00    +0.000 HD
ENDROOT
BRANCH  16  18
ATOM     18  S   UNL     1      -7.005  12.407  23.552  0.00  0.00    +0.000 S 
ATOM     19  C   UNL     1      -7.776  13.835  24.262  0.00  0.00    +0.000 C 
ATOM     20  O   UNL     1      -7.897  11.304  23.762  0.00  0.00    +0.000 OA
ATOM     21  O   UNL     1      -5.624  12.335  24.001  0.00  0.00    +0.000 OA
ENDBRANCH  16  18
BRANCH   1  22
ATOM     22  C   UNL     1      -0.291  12.526  21.227  0.00  0.00    +0.000 C 
BRANCH  22  24
ATOM     23  C   UNL     1      -1.420  11.148  23.027  0.00  0.00    +0.000 C 
ATOM     24  C   UNL     1      -0.202  11.263  22.115  0.00  0.00    +0.000 C 
ATOM     25  C   UNL     1      -0.034   9.997  21.286  0.00  0.00    +0.000 C 
ENDBRANCH  22  24
BRANCH  22  26
ATOM     26  O   UNL     1       0.753  12.420  20.222  0.00  0.00    +0.000 OA
ATOM     27  H   UNL     1       0.750  13.284  19.768  0.00  0.00    +0.000 HD
ENDBRANCH  22  26
ENDBRANCH   1  22
TORSDOF 4
ENDMDL
MODEL 6
REMARK VINA RESULT:      -5.6      8.636     12.521
REMARK  Name = 
REMARK  7 active torsions:
REMARK  status: ('A' for Active; 'I' for Inactive)
REMARK    1  A    between atoms: C_1  and  C_2
REMARK    2  A    between atoms: C_2  and  C_3
REMARK    3  A    between atoms: C_2  and  C_4
REMARK    4  A    between atoms: C_4  and  O_5
REMARK    5  A    between atoms: C_4  and  C_6
REMARK    6  A    between atoms: N_21  and  S_22
REMARK    7  A    between atoms: S_22  and  C_23
REMARK                            x       y       z     vdW  Elec       q    Type
REMARK                         _______ _______ _______ _____ _____    ______ ____
ROOT
ATOM      1  C   UNL     1      -0.835  13.656  19.545  0.00  0.00    +0.000 C 
ATOM      2  O   UNL     1      -0.692  14.781  19.026  0.00  0.00    +0.000 OA
ATOM      3  N   UNL     1      -1.294  13.544  20.849  0.00  0.00    +0.000 N 
ATOM      4  C   UNL     1      -1.759  14.860  21.224  0.00  0.00    +0.000 C 
ATOM      5  C   UNL     1      -2.628  14.671  22.368  0.00  0.00    +0.000 C 
ATOM      6  C   UNL     1      -2.879  14.027  23.703  0.00  0.00    +0.000 C 
ATOM      7  C   UNL     1      -2.145  12.639  23.452  0.00  0.00    +0.000 C 
ATOM      8  C   UNL     1      -1.529  12.364  21.862  0.00  0.00    +0.000 C 
ATOM      9  C   UNL     1      -2.278  15.105  24.647  0.00  0.00    +0.000 A 
ATOM     10  N   UNL     1      -0.971  15.154  25.080  0.00  0.00    +0.000 NA
ATOM     11  C   UNL     1      -0.670  16.438  25.124  0.00  0.00    +0.000 A 
ATOM     12  N   UNL     1      -1.728  17.233  24.764  0.00  0.00    +0.000 N 
ATOM     13  C   UNL     1      -2.783  16.399  24.513  0.00  0.00    +0.000 A 
ATOM     14  C   UNL     1      -4.062  16.773  23.828  0.00  0.00    +0.000 C 
ATOM     15  C   UNL     1      -4.879  15.538  23.337  0.00  0.00    +0.000 C 
ATOM     16  N   UNL     1      -4.393  14.197  23.910  0.00  0.00    +0.000 NA
ATOM     17  H   UNL     1      -1.679  18.223  24.573  0.00  0.00    +0.000 HD
ENDROOT
BRANCH  16  18
ATOM     18  S   UNL     1      -5.490  12.931  23.727  0.00  0.00    +0.000 S 
ATOM     19  C   UNL     1      -7.043  13.751  23.963  0.00  0.00    +0.000 C 
ATOM     20  O   UNL     1      -5.456  12.486  22.365  0.00  0.00    +0.000 OA
ATOM     21  O   UNL     1      -5.273  11.993  24.817  0.00  0.00    +0.000 OA
ENDBRANCH  16  18
BRANCH   1  22
ATOM     22  C   UNL     1      -0.560  12.497  18.628  0.00  0.00    +0.000 C 
BRANCH  22  24
ATOM     23  C   UNL     1      -2.552  11.240  17.700  0.00  0.00    +0.000 C 
ATOM     24  C   UNL     1      -1.574  11.354  18.865  0.00  0.00    +0.000 C 
ATOM     25  C   UNL     1      -0.881  10.021  19.114  0.00  0.00    +0.000 C 
ENDBRANCH  22  24
BRANCH  22  26
ATOM     26  O   UNL     1      -0.838  13.052  17.313  0.00  0.00    +0.000 OA
ATOM     27  H   UNL     1      -1.458  13.788  17.480  0.00  0.00    +0.000 HD
ENDBRANCH  22  26
ENDBRANCH   1  22
TORSDOF 4
ENDMDL
MODEL 7
REMARK VINA RESULT:      -5.6      9.547     11.223
REMARK  Name = 
REMARK  7 active torsions:
REMARK  status: ('A' for Active; 'I' for Inactive)
REMARK    1  A    between atoms: C_1  and  C_2
REMARK    2  A    between atoms: C_2  and  C_3
REMARK    3  A    between atoms: C_2  and  C_4
REMARK    4  A    between atoms: C_4  and  O_5
REMARK    5  A    between atoms: C_4  and  C_6
REMARK    6  A    between atoms: N_21  and  S_22
REMARK    7  A    between atoms: S_22  and  C_23
REMARK                            x       y       z     vdW  Elec       q    Type
REMARK                         _______ _______ _______ _____ _____    ______ ____
ROOT
ATOM      1  C   UNL     1       5.461  14.985  18.631  0.00  0.00    +0.000 C 
ATOM      2  O   UNL     1       5.170  14.309  17.625  0.00  0.00    +0.000 OA
ATOM      3  N   UNL     1       6.760  14.989  19.115  0.00  0.00    +0.000 N 
ATOM      4  C   UNL     1       7.567  14.346  18.103  0.00  0.00    +0.000 C 
ATOM      5  C   UNL     1       8.937  14.733  18.371  0.00  0.00    +0.000 C 
ATOM      6  C   UNL     1      10.051  14.929  19.362  0.00  0.00    +0.000 C 
ATOM      7  C   UNL     1       9.191  15.394  20.616  0.00  0.00    +0.000 C 
ATOM      8  C   UNL     1       7.498  15.618  20.354  0.00  0.00    +0.000 C 
ATOM      9  C   UNL     1      10.717  13.525  19.309  0.00  0.00    +0.000 A 
ATOM     10  N   UNL     1      10.390  12.451  20.108  0.00  0.00    +0.000 NA
ATOM     11  C   UNL     1      10.511  11.393  19.329  0.00  0.00    +0.000 A 
ATOM     12  N   UNL     1      10.925  11.722  18.064  0.00  0.00    +0.000 N 
ATOM     13  C   UNL     1      11.119  13.076  18.050  0.00  0.00    +0.000 A 
ATOM     14  C   UNL     1      11.303  13.931  16.833  0.00  0.00    +0.000 C 
ATOM     15  C   UNL     1      11.096  15.451  17.114  0.00  0.00    +0.000 C 
ATOM     16  N   UNL     1      11.057  15.813  18.608  0.00  0.00    +0.000 NA
ATOM     17  H   UNL     1      10.929  11.101  17.268  0.00  0.00    +0.000 HD
ENDROOT
BRANCH  16  18
ATOM     18  S   UNL     1      11.248  17.457  18.924  0.00  0.00    +0.000 S 
ATOM     19  C   UNL     1      12.333  17.962  17.617  0.00  0.00    +0.000 C 
ATOM     20  O   UNL     1       9.994  18.117  18.704  0.00  0.00    +0.000 OA
ATOM     21  O   UNL     1      11.938  17.589  20.197  0.00  0.00    +0.000 OA
ENDBRANCH  16  18
BRANCH   1  22
ATOM     22  C   UNL     1       4.337  15.821  19.178  0.00  0.00    +0.000 C 
BRANCH  22  24
ATOM     23  C   UNL     1       1.835  15.440  19.122  0.00  0.00    +0.000 C 
ATOM     24  C   UNL     1       3.081  15.709  18.283  0.00  0.00    +0.000 C 
ATOM     25  C   UNL     1       2.887  16.947  17.418  0.00  0.00    +0.000 C 
ENDBRANCH  22  24
BRANCH  22  26
ATOM     26  O   UNL     1       4.028  15.164  20.437  0.00  0.00    +0.000 OA
ATOM     27  H   UNL     1       4.051  15.878  21.103  0.00  0.00    +0.000 HD
ENDBRANCH  22  26
ENDBRANCH   1  22
TORSDOF 4
ENDMDL
MODEL 8
REMARK VINA RESULT:      -5.6      9.053     11.445
REMARK  Name = 
REMARK  7 active torsions:
REMARK  status: ('A' for Active; 'I' for Inactive)
REMARK    1  A    between atoms: C_1  and  C_2
REMARK    2  A    between atoms: C_2  and  C_3
REMARK    3  A    between atoms: C_2  and  C_4
REMARK    4  A    between atoms: C_4  and  O_5
REMARK    5  A    between atoms: C_4  and  C_6
REMARK    6  A    between atoms: N_21  and  S_22
REMARK    7  A    between atoms: S_22  and  C_23
REMARK                            x       y       z     vdW  Elec       q    Type
REMARK                         _______ _______ _______ _____ _____    ______ ____
ROOT
ATOM      1  C   UNL     1       9.535  14.024  18.551  0.00  0.00    +0.000 C 
ATOM      2  O   UNL     1       8.648  14.233  17.700  0.00  0.00    +0.000 OA
ATOM      3  N   UNL     1       9.281  14.264  19.894  0.00  0.00    +0.000 N 
ATOM      4  C   UNL     1       7.857  14.484  20.000  0.00  0.00    +0.000 C 
ATOM      5  C   UNL     1       7.521  14.288  21.395  0.00  0.00    +0.000 C 
ATOM      6  C   UNL     1       7.830  14.546  22.844  0.00  0.00    +0.000 C 
ATOM      7  C   UNL     1       9.417  14.583  22.757  0.00  0.00    +0.000 C 
ATOM      8  C   UNL     1      10.119  14.208  21.224  0.00  0.00    +0.000 C 
ATOM      9  C   UNL     1       6.999  15.838  23.078  0.00  0.00    +0.000 A 
ATOM     10  N   UNL     1       7.452  17.127  22.903  0.00  0.00    +0.000 NA
ATOM     11  C   UNL     1       6.420  17.793  22.423  0.00  0.00    +0.000 A 
ATOM     12  N   UNL     1       5.303  17.006  22.298  0.00  0.00    +0.000 N 
ATOM     13  C   UNL     1       5.639  15.766  22.769  0.00  0.00    +0.000 A 
ATOM     14  C   UNL     1       4.849  14.506  22.586  0.00  0.00    +0.000 C 
ATOM     15  C   UNL     1       5.674  13.216  22.878  0.00  0.00    +0.000 C 
ATOM     16  N   UNL     1       7.014  13.475  23.586  0.00  0.00    +0.000 NA
ATOM     17  H   UNL     1       4.458  17.259  21.809  0.00  0.00    +0.000 HD
ENDROOT
BRANCH  16  18
ATOM     18  S   UNL     1       7.712  12.100  24.266  0.00  0.00    +0.000 S 
ATOM     19  C   UNL     1       6.318  11.319  25.032  0.00  0.00    +0.000 C 
ATOM     20  O   UNL     1       8.147  11.234  23.209  0.00  0.00    +0.000 OA
ATOM     21  O   UNL     1       8.642  12.535  25.295  0.00  0.00    +0.000 OA
ENDBRANCH  16  18
BRANCH   1  22
ATOM     22  C   UNL     1      10.805  13.430  18.008  0.00  0.00    +0.000 C 
BRANCH  22  24
ATOM     23  C   UNL     1      11.789  11.559  19.401  0.00  0.00    +0.000 C 
ATOM     24  C   UNL     1      10.847  11.904  18.251  0.00  0.00    +0.000 C 
ATOM     25  C   UNL     1       9.460  11.330  18.507  0.00  0.00    +0.000 C 
ENDBRANCH  22  24
BRANCH  22  26
ATOM     26  O   UNL     1      10.670  13.634  16.575  0.00  0.00    +0.000 OA
ATOM     27  H   UNL     1      10.043  12.944  16.284  0.00  0.00    +0.000 HD
ENDBRANCH  22  26
ENDBRANCH   1  22
TORSDOF 4
ENDMDL
MODEL 9
REMARK VINA RESULT:      -5.6      9.215     10.960
REMARK  Name = 
REMARK  7 active torsions:
REMARK  status: ('A' for Active; 'I' for Inactive)
REMARK    1  A    between atoms: C_1  and  C_2
REMARK    2  A    between atoms: C_2  and  C_3
REMARK    3  A    between atoms: C_2  and  C_4
REMARK    4  A    between atoms: C_4  and  O_5
REMARK    5  A    between atoms: C_4  and  C_6
REMARK    6  A    between atoms: N_21  and  S_22
REMARK    7  A    between atoms: S_22  and  C_23
REMARK                            x       y       z     vdW  Elec       q    Type
REMARK                         _______ _______ _______ _____ _____    ______ ____
ROOT
ATOM      1  C   UNL     1       8.190  12.449  23.962  0.00  0.00    +0.000 C 
ATOM      2  O   UNL     1       7.917  11.241  23.823  0.00  0.00    +0.000 OA
ATOM      3  N   UNL     1       8.812  13.145  22.935  0.00  0.00    +0.000 N 
ATOM      4  C   UNL     1       8.763  12.281  21.778  0.00  0.00    +0.000 C 
ATOM      5  C   UNL     1       8.985  13.132  20.627  0.00  0.00    +0.000 C 
ATOM      6  C   UNL     1       9.773  14.233  19.971  0.00  0.00    +0.000 C 
ATOM      7  C   UNL     1      10.098  15.108  21.258  0.00  0.00    +0.000 C 
ATOM      8  C   UNL     1       9.377  14.600  22.744  0.00  0.00    +0.000 C 
ATOM      9  C   UNL     1      10.872  13.397  19.258  0.00  0.00    +0.000 A 
ATOM     10  N   UNL     1      12.090  13.045  19.798  0.00  0.00    +0.000 NA
ATOM     11  C   UNL     1      12.333  11.832  19.341  0.00  0.00    +0.000 A 
ATOM     12  N   UNL     1      11.342  11.382  18.506  0.00  0.00    +0.000 N 
ATOM     13  C   UNL     1      10.428  12.394  18.395  0.00  0.00    +0.000 A 
ATOM     14  C   UNL     1       9.049  12.281  17.821  0.00  0.00    +0.000 C 
ATOM     15  C   UNL     1       8.126  13.480  18.199  0.00  0.00    +0.000 C 
ATOM     16  N   UNL     1       8.874  14.678  18.807  0.00  0.00    +0.000 NA
ATOM     17  H   UNL     1      11.240  10.434  18.175  0.00  0.00    +0.000 HD
ENDROOT
BRANCH  16  18
ATOM     18  S   UNL     1       7.979  16.106  18.836  0.00  0.00    +0.000 S 
ATOM     19  C   UNL     1       9.158  17.294  18.254  0.00  0.00    +0.000 C 
ATOM     20  O   UNL     1       6.946  16.023  17.845  0.00  0.00    +0.000 OA
ATOM     21  O   UNL     1       7.650  16.397  20.222  0.00  0.00    +0.000 OA
ENDBRANCH  16  18
BRANCH   1  22
ATOM     22  C   UNL     1       7.717  13.061  25.251  0.00  0.00    +0.000 C 
BRANCH  22  24
ATOM     23  C   UNL     1       5.690  13.357  26.740  0.00  0.00    +0.000 C 
ATOM     24  C   UNL     1       6.172  13.076  25.319  0.00  0.00    +0.000 C 
ATOM     25  C   UNL     1       5.570  14.077  24.342  0.00  0.00    +0.000 C 
ENDBRANCH  22  24
BRANCH  22  26
ATOM     26  O   UNL     1       8.182  12.111  26.249  0.00  0.00    +0.000 OA
ATOM     27  H   UNL     1       7.372  11.815  26.707  0.00  0.00    +0.000 HD
ENDBRANCH  22  26
ENDBRANCH   1  22
TORSDOF 4
ENDMDL
