MODEL 1
REMARK VINA RESULT:      -9.0      0.000      0.000
REMARK  Name = 
REMARK  6 active torsions:
REMARK  status: ('A' for Active; 'I' for Inactive)
REMARK    1  A    between atoms: C_1  and  C_2
REMARK    2  A    between atoms: C_10  and  N_11
REMARK    3  A    between atoms: C_12  and  C_14
REMARK    4  A    between atoms: N_17  and  C_18
REMARK    5  A    between atoms: C_18  and  C_19
REMARK    6  A    between atoms: C_24  and  N_25
REMARK                            x       y       z     vdW  Elec       q    Type
REMARK                         _______ _______ _______ _____ _____    ______ ____
ROOT
ATOM      1  N   UNL     1       0.582   9.880  20.034  0.00  0.00    +0.000 N 
ATOM      2  C   UNL     1      -0.556  10.352  19.397  0.00  0.00    +0.000 C 
ATOM      3  O   UNL     1      -1.084   9.784  18.435  0.00  0.00    +0.000 OA
ATOM      4  H   UNL     1       0.758  10.180  20.983  0.00  0.00    +0.000 HD
ENDROOT
BRANCH   1  14
ATOM      5  C   UNL     1       5.096   6.514  16.005  0.00  0.00    +0.000 C 
ATOM      6  C   UNL     1       4.593   5.456  16.908  0.00  0.00    +0.000 A 
ATOM      7  N   UNL     1       4.995   4.199  16.857  0.00  0.00    +0.000 NA
ATOM      8  N   UNL     1       4.378   3.499  17.858  0.00  0.00    +0.000 NA
ATOM      9  C   UNL     1       3.611   4.338  18.507  0.00  0.00    +0.000 A 
ATOM     10  N   UNL     1       3.705   5.600  17.957  0.00  0.00    +0.000 N 
ATOM     11  C   UNL     1       2.963   6.703  18.469  0.00  0.00    +0.000 A 
ATOM     12  C   UNL     1       2.843   7.900  17.776  0.00  0.00    +0.000 A 
ATOM     13  C   UNL     1       2.069   8.937  18.306  0.00  0.00    +0.000 A 
ATOM     14  C   UNL     1       1.389   8.817  19.522  0.00  0.00    +0.000 A 
ATOM     15  C   UNL     1       1.551   7.627  20.246  0.00  0.00    +0.000 A 
ATOM     16  C   UNL     1       2.312   6.554  19.717  0.00  0.00    +0.000 A 
ATOM     17  C   UNL     1       2.513   5.279  20.518  0.00  0.00    +0.000 C 
ATOM     18  C   UNL     1       2.669   4.052  19.615  0.00  0.00    +0.000 C 
ENDBRANCH   1  14
BRANCH   2  19
ATOM     19  C   UNL     1      -1.144  11.704  19.814  0.00  0.00    +0.000 C 
ATOM     20  C   UNL     1      -1.149  12.654  18.622  0.00  0.00    +0.000 C 
ATOM     21  C   UNL     1       0.130  13.469  18.540  0.00  0.00    +0.000 C 
ATOM     22  N   UNL     1       0.269  14.293  19.746  0.00  0.00    +0.000 NA
ATOM     23  C   UNL     1       0.414  13.454  20.943  0.00  0.00    +0.000 C 
ATOM     24  C   UNL     1      -0.677  12.384  21.099  0.00  0.00    +0.000 C 
BRANCH  22  25
ATOM     25  C   UNL     1       1.391  15.256  19.625  0.00  0.00    +0.000 C 
BRANCH  25  26
ATOM     26  C   UNL     1       1.035  16.432  18.726  0.00  0.00    +0.000 A 
ATOM     27  C   UNL     1      -0.291  16.910  18.764  0.00  0.00    +0.000 A 
ATOM     28  C   UNL     1      -0.746  17.860  17.846  0.00  0.00    +0.000 A 
ATOM     29  C   UNL     1       0.119  18.379  16.881  0.00  0.00    +0.000 A 
ATOM     30  C   UNL     1       1.450  17.980  16.862  0.00  0.00    +0.000 A 
ATOM     31  C   UNL     1       1.901  17.023  17.786  0.00  0.00    +0.000 A 
BRANCH  31  32
ATOM     32  N   UNL     1       3.308  16.667  17.708  0.00  0.00    +0.000 N 
ATOM     33  O   UNL     1       4.095  17.277  18.445  0.00  0.00    +0.000 OA
ATOM     34  O   UNL     1       3.615  15.762  16.925  0.00  0.00    +0.000 OA
ENDBRANCH  31  32
ENDBRANCH  25  26
ENDBRANCH  22  25
ENDBRANCH   2  19
TORSDOF 5
ENDMDL
MODEL 2
REMARK VINA RESULT:      -9.0      5.976     11.419
REMARK  Name = 
REMARK  6 active torsions:
REMARK  status: ('A' for Active; 'I' for Inactive)
REMARK    1  A    between atoms: C_1  and  C_2
REMARK    2  A    between atoms: C_10  and  N_11
REMARK    3  A    between atoms: C_12  and  C_14
REMARK    4  A    between atoms: N_17  and  C_18
REMARK    5  A    between atoms: C_18  and  C_19
REMARK    6  A    between atoms: C_24  and  N_25
REMARK                            x       y       z     vdW  Elec       q    Type
REMARK                         _______ _______ _______ _____ _____    ______ ____
ROOT
ATOM      1  N   UNL     1       8.792   8.236  18.663  0.00  0.00    +0.000 N 
ATOM      2  C   UNL     1       7.809   7.542  17.972  0.00  0.00    +0.000 C 
ATOM      3  O   UNL     1       7.008   8.081  17.202  0.00  0.00    +0.000 OA
ATOM      4  H   UNL     1       9.599   7.723  18.991  0.00  0.00    +0.000 HD
ENDROOT
BRANCH   1  14
ATOM      5  C   UNL     1       7.299  14.868  17.347  0.00  0.00    +0.000 C 
ATOM      6  C   UNL     1       8.455  14.956  18.265  0.00  0.00    +0.000 A 
ATOM      7  N   UNL     1       8.984  16.097  18.667  0.00  0.00    +0.000 NA
ATOM      8  N   UNL     1       9.997  15.827  19.546  0.00  0.00    +0.000 NA
ATOM      9  C   UNL     1      10.070  14.526  19.670  0.00  0.00    +0.000 A 
ATOM     10  N   UNL     1       9.116  13.913  18.887  0.00  0.00    +0.000 N 
ATOM     11  C   UNL     1       8.983  12.496  18.829  0.00  0.00    +0.000 A 
ATOM     12  C   UNL     1       8.216  11.863  17.859  0.00  0.00    +0.000 A 
ATOM     13  C   UNL     1       8.154  10.467  17.824  0.00  0.00    +0.000 A 
ATOM     14  C   UNL     1       8.849   9.663  18.732  0.00  0.00    +0.000 A 
ATOM     15  C   UNL     1       9.582  10.302  19.743  0.00  0.00    +0.000 A 
ATOM     16  C   UNL     1       9.679  11.716  19.783  0.00  0.00    +0.000 A 
ATOM     17  C   UNL     1      10.446  12.407  20.897  0.00  0.00    +0.000 C 
ATOM     18  C   UNL     1      11.061  13.731  20.435  0.00  0.00    +0.000 C 
ENDBRANCH   1  14
BRANCH   2  19
ATOM     19  C   UNL     1       7.613   6.047  18.245  0.00  0.00    +0.000 C 
ATOM     20  C   UNL     1       7.239   5.331  16.953  0.00  0.00    +0.000 C 
ATOM     21  C   UNL     1       5.735   5.279  16.748  0.00  0.00    +0.000 C 
ATOM     22  N   UNL     1       5.113   4.534  17.849  0.00  0.00    +0.000 NA
ATOM     23  C   UNL     1       5.310   5.224  19.130  0.00  0.00    +0.000 C 
ATOM     24  C   UNL     1       6.773   5.584  19.433  0.00  0.00    +0.000 C 
BRANCH  22  25
ATOM     25  C   UNL     1       3.674   4.279  17.591  0.00  0.00    +0.000 C 
BRANCH  25  26
ATOM     26  C   UNL     1       2.913   3.974  18.874  0.00  0.00    +0.000 A 
ATOM     27  C   UNL     1       1.946   4.907  19.301  0.00  0.00    +0.000 A 
ATOM     28  C   UNL     1       1.334   4.796  20.553  0.00  0.00    +0.000 A 
ATOM     29  C   UNL     1       1.654   3.736  21.403  0.00  0.00    +0.000 A 
ATOM     30  C   UNL     1       2.551   2.762  20.982  0.00  0.00    +0.000 A 
ATOM     31  C   UNL     1       3.164   2.880  19.723  0.00  0.00    +0.000 A 
BRANCH  31  32
ATOM     32  N   UNL     1       4.082   1.815  19.353  0.00  0.00    +0.000 N 
ATOM     33  O   UNL     1       5.115   1.690  20.026  0.00  0.00    +0.000 OA
ATOM     34  O   UNL     1       3.752   1.094  18.406  0.00  0.00    +0.000 OA
ENDBRANCH  31  32
ENDBRANCH  25  26
ENDBRANCH  22  25
ENDBRANCH   2  19
TORSDOF 5
ENDMDL
MODEL 3
REMARK VINA RESULT:      -8.8      3.814      5.824
REMARK  Name = 
REMARK  6 active torsions:
REMARK  status: ('A' for Active; 'I' for Inactive)
REMARK    1  A    between atoms: C_1  and  C_2
REMARK    2  A    between atoms: C_10  and  N_11
REMARK    3  A    between atoms: C_12  and  C_14
REMARK    4  A    between atoms: N_17  and  C_18
REMARK    5  A    between atoms: C_18  and  C_19
REMARK    6  A    between atoms: C_24  and  N_25
REMARK                            x       y       z     vdW  Elec       q    Type
REMARK                         _______ _______ _______ _____ _____    ______ ____
ROOT
ATOM      1  N   UNL     1       0.797   9.998  20.527  0.00  0.00    +0.000 N 
ATOM      2  C   UNL     1      -0.351  10.572  20.000  0.00  0.00    +0.000 C 
ATOM      3  O   UNL     1      -1.041  10.036  19.127  0.00  0.00    +0.000 OA
ATOM      4  H   UNL     1       1.111  10.305  21.438  0.00  0.00    +0.000 HD
ENDROOT
BRANCH   1  14
ATOM      5  C   UNL     1       4.747   6.110  16.377  0.00  0.00    +0.000 C 
ATOM      6  C   UNL     1       4.068   5.112  17.231  0.00  0.00    +0.000 A 
ATOM      7  N   UNL     1       4.259   3.809  17.127  0.00  0.00    +0.000 NA
ATOM      8  N   UNL     1       3.524   3.179  18.094  0.00  0.00    +0.000 NA
ATOM      9  C   UNL     1       2.897   4.104  18.775  0.00  0.00    +0.000 A 
ATOM     10  N   UNL     1       3.202   5.355  18.281  0.00  0.00    +0.000 N 
ATOM     11  C   UNL     1       2.645   6.543  18.837  0.00  0.00    +0.000 A 
ATOM     12  C   UNL     1       2.731   7.772  18.196  0.00  0.00    +0.000 A 
ATOM     13  C   UNL     1       2.131   8.897  18.767  0.00  0.00    +0.000 A 
ATOM     14  C   UNL     1       1.426   8.840  19.973  0.00  0.00    +0.000 A 
ATOM     15  C   UNL     1       1.382   7.610  20.646  0.00  0.00    +0.000 A 
ATOM     16  C   UNL     1       1.964   6.450  20.074  0.00  0.00    +0.000 A 
ATOM     17  C   UNL     1       1.943   5.127  20.820  0.00  0.00    +0.000 C 
ATOM     18  C   UNL     1       1.907   3.930  19.865  0.00  0.00    +0.000 C 
ENDBRANCH   1  14
BRANCH   2  19
ATOM     19  C   UNL     1      -0.743  11.991  20.424  0.00  0.00    +0.000 C 
ATOM     20  C   UNL     1      -0.359  12.220  21.881  0.00  0.00    +0.000 C 
ATOM     21  C   UNL     1      -1.487  11.849  22.829  0.00  0.00    +0.000 C 
ATOM     22  N   UNL     1      -2.658  12.689  22.556  0.00  0.00    +0.000 NA
ATOM     23  C   UNL     1      -3.182  12.440  21.206  0.00  0.00    +0.000 C 
ATOM     24  C   UNL     1      -2.129  12.540  20.093  0.00  0.00    +0.000 C 
BRANCH  22  25
ATOM     25  C   UNL     1      -3.712  12.509  23.584  0.00  0.00    +0.000 C 
BRANCH  25  26
ATOM     26  C   UNL     1      -4.685  13.680  23.611  0.00  0.00    +0.000 A 
ATOM     27  C   UNL     1      -4.164  14.958  23.898  0.00  0.00    +0.000 A 
ATOM     28  C   UNL     1      -5.006  16.051  24.121  0.00  0.00    +0.000 A 
ATOM     29  C   UNL     1      -6.392  15.902  24.038  0.00  0.00    +0.000 A 
ATOM     30  C   UNL     1      -6.933  14.671  23.689  0.00  0.00    +0.000 A 
ATOM     31  C   UNL     1      -6.081  13.576  23.467  0.00  0.00    +0.000 A 
BRANCH  31  32
ATOM     32  N   UNL     1      -6.724  12.326  23.096  0.00  0.00    +0.000 N 
ATOM     33  O   UNL     1      -7.243  11.658  24.000  0.00  0.00    +0.000 OA
ATOM     34  O   UNL     1      -6.728  12.033  21.896  0.00  0.00    +0.000 OA
ENDBRANCH  31  32
ENDBRANCH  25  26
ENDBRANCH  22  25
ENDBRANCH   2  19
TORSDOF 5
ENDMDL
MODEL 4
REMARK VINA RESULT:      -8.8      3.620      5.303
REMARK  Name = 
REMARK  6 active torsions:
REMARK  status: ('A' for Active; 'I' for Inactive)
REMARK    1  A    between atoms: C_1  and  C_2
REMARK    2  A    between atoms: C_10  and  N_11
REMARK    3  A    between atoms: C_12  and  C_14
REMARK    4  A    between atoms: N_17  and  C_18
REMARK    5  A    between atoms: C_18  and  C_19
REMARK    6  A    between atoms: C_24  and  N_25
REMARK                            x       y       z     vdW  Elec       q    Type
REMARK                         _______ _______ _______ _____ _____    ______ ____
ROOT
ATOM      1  N   UNL     1       1.403   8.975  20.088  0.00  0.00    +0.000 N 
ATOM      2  C   UNL     1       0.817   9.865  19.200  0.00  0.00    +0.000 C 
ATOM      3  O   UNL     1       0.448   9.551  18.064  0.00  0.00    +0.000 OA
ATOM      4  H   UNL     1       1.368   9.190  21.075  0.00  0.00    +0.000 HD
ENDROOT
BRANCH   1  14
ATOM      5  C   UNL     1       4.673   3.960  16.609  0.00  0.00    +0.000 C 
ATOM      6  C   UNL     1       3.853   3.214  17.588  0.00  0.00    +0.000 A 
ATOM      7  N   UNL     1       3.839   1.896  17.678  0.00  0.00    +0.000 NA
ATOM      8  N   UNL     1       3.023   1.534  18.714  0.00  0.00    +0.000 NA
ATOM      9  C   UNL     1       2.552   2.635  19.244  0.00  0.00    +0.000 A 
ATOM     10  N   UNL     1       3.044   3.738  18.579  0.00  0.00    +0.000 N 
ATOM     11  C   UNL     1       2.681   5.066  18.947  0.00  0.00    +0.000 A 
ATOM     12  C   UNL     1       2.952   6.160  18.135  0.00  0.00    +0.000 A 
ATOM     13  C   UNL     1       2.537   7.436  18.527  0.00  0.00    +0.000 A 
ATOM     14  C   UNL     1       1.841   7.664  19.718  0.00  0.00    +0.000 A 
ATOM     15  C   UNL     1       1.612   6.568  20.562  0.00  0.00    +0.000 A 
ATOM     16  C   UNL     1       2.002   5.261  20.174  0.00  0.00    +0.000 A 
ATOM     17  C   UNL     1       1.783   4.080  21.103  0.00  0.00    +0.000 C 
ATOM     18  C   UNL     1       1.555   2.777  20.333  0.00  0.00    +0.000 C 
ENDBRANCH   1  14
BRANCH   2  19
ATOM     19  C   UNL     1       0.714  11.346  19.580  0.00  0.00    +0.000 C 
ATOM     20  C   UNL     1       0.819  11.498  21.093  0.00  0.00    +0.000 C 
ATOM     21  C   UNL     1      -0.542  11.446  21.764  0.00  0.00    +0.000 C 
ATOM     22  N   UNL     1      -1.376  12.550  21.277  0.00  0.00    +0.000 NA
ATOM     23  C   UNL     1      -1.642  12.414  19.839  0.00  0.00    +0.000 C 
ATOM     24  C   UNL     1      -0.383  12.222  18.980  0.00  0.00    +0.000 C 
BRANCH  22  25
ATOM     25  C   UNL     1      -2.638  12.665  22.049  0.00  0.00    +0.000 C 
BRANCH  25  26
ATOM     26  C   UNL     1      -2.524  13.684  23.175  0.00  0.00    +0.000 A 
ATOM     27  C   UNL     1      -1.364  14.483  23.221  0.00  0.00    +0.000 A 
ATOM     28  C   UNL     1      -1.098  15.311  24.315  0.00  0.00    +0.000 A 
ATOM     29  C   UNL     1      -1.996  15.382  25.382  0.00  0.00    +0.000 A 
ATOM     30  C   UNL     1      -3.182  14.660  25.333  0.00  0.00    +0.000 A 
ATOM     31  C   UNL     1      -3.443  13.828  24.231  0.00  0.00    +0.000 A 
BRANCH  31  32
ATOM     32  N   UNL     1      -4.710  13.114  24.251  0.00  0.00    +0.000 N 
ATOM     33  O   UNL     1      -4.712  11.964  24.712  0.00  0.00    +0.000 OA
ATOM     34  O   UNL     1      -5.701  13.718  23.828  0.00  0.00    +0.000 OA
ENDBRANCH  31  32
ENDBRANCH  25  26
ENDBRANCH  22  25
ENDBRANCH   2  19
TORSDOF 5
ENDMDL
MODEL 5
REMARK VINA RESULT:      -8.7      1.317      2.295
REMARK  Name = 
REMARK  6 active torsions:
REMARK  status: ('A' for Active; 'I' for Inactive)
REMARK    1  A    between atoms: C_1  and  C_2
REMARK    2  A    between atoms: C_10  and  N_11
REMARK    3  A    between atoms: C_12  and  C_14
REMARK    4  A    between atoms: N_17  and  C_18
REMARK    5  A    between atoms: C_18  and  C_19
REMARK    6  A    between atoms: C_24  and  N_25
REMARK                            x       y       z     vdW  Elec       q    Type
REMARK                         _______ _______ _______ _____ _____    ______ ____
ROOT
ATOM      1  N   UNL     1       0.916   9.745  19.572  0.00  0.00    +0.000 N 
ATOM      2  C   UNL     1       0.753  10.561  20.682  0.00  0.00    +0.000 C 
ATOM      3  O   UNL     1       1.248  10.317  21.787  0.00  0.00    +0.000 OA
ATOM      4  H   UNL     1       0.786  10.151  18.656  0.00  0.00    +0.000 HD
ENDROOT
BRANCH   1  14
ATOM      5  C   UNL     1       1.925   3.189  21.559  0.00  0.00    +0.000 C 
ATOM      6  C   UNL     1       3.033   3.429  20.608  0.00  0.00    +0.000 A 
ATOM      7  N   UNL     1       3.937   2.520  20.294  0.00  0.00    +0.000 NA
ATOM      8  N   UNL     1       4.781   3.045  19.354  0.00  0.00    +0.000 NA
ATOM      9  C   UNL     1       4.379   4.266  19.106  0.00  0.00    +0.000 A 
ATOM     10  N   UNL     1       3.269   4.571  19.866  0.00  0.00    +0.000 N 
ATOM     11  C   UNL     1       2.634   5.844  19.797  0.00  0.00    +0.000 A 
ATOM     12  C   UNL     1       1.693   6.254  20.733  0.00  0.00    +0.000 A 
ATOM     13  C   UNL     1       1.130   7.531  20.640  0.00  0.00    +0.000 A 
ATOM     14  C   UNL     1       1.485   8.434  19.634  0.00  0.00    +0.000 A 
ATOM     15  C   UNL     1       2.396   8.002  18.660  0.00  0.00    +0.000 A 
ATOM     16  C   UNL     1       2.997   6.721  18.747  0.00  0.00    +0.000 A 
ATOM     17  C   UNL     1       3.959   6.243  17.673  0.00  0.00    +0.000 C 
ATOM     18  C   UNL     1       5.013   5.282  18.232  0.00  0.00    +0.000 C 
ENDBRANCH   1  14
BRANCH   2  19
ATOM     19  C   UNL     1      -0.178  11.775  20.590  0.00  0.00    +0.000 C 
ATOM     20  C   UNL     1      -0.005  12.456  19.238  0.00  0.00    +0.000 C 
ATOM     21  C   UNL     1       1.060  13.538  19.280  0.00  0.00    +0.000 C 
ATOM     22  N   UNL     1       0.671  14.578  20.239  0.00  0.00    +0.000 NA
ATOM     23  C   UNL     1       0.606  14.038  21.603  0.00  0.00    +0.000 C 
ATOM     24  C   UNL     1      -0.257  12.775  21.741  0.00  0.00    +0.000 C 
BRANCH  22  25
ATOM     25  C   UNL     1       1.574  15.753  20.168  0.00  0.00    +0.000 C 
BRANCH  25  26
ATOM     26  C   UNL     1       1.152  16.728  19.077  0.00  0.00    +0.000 A 
ATOM     27  C   UNL     1      -0.154  17.256  19.139  0.00  0.00    +0.000 A 
ATOM     28  C   UNL     1      -0.681  18.011  18.088  0.00  0.00    +0.000 A 
ATOM     29  C   UNL     1       0.091  18.280  16.956  0.00  0.00    +0.000 A 
ATOM     30  C   UNL     1       1.405  17.832  16.895  0.00  0.00    +0.000 A 
ATOM     31  C   UNL     1       1.929  17.072  17.955  0.00  0.00    +0.000 A 
BRANCH  31  32
ATOM     32  N   UNL     1       3.313  16.650  17.820  0.00  0.00    +0.000 N 
ATOM     33  O   UNL     1       4.164  17.255  18.487  0.00  0.00    +0.000 OA
ATOM     34  O   UNL     1       3.539  15.699  17.065  0.00  0.00    +0.000 OA
ENDBRANCH  31  32
ENDBRANCH  25  26
ENDBRANCH  22  25
ENDBRANCH   2  19
TORSDOF 5
ENDMDL
MODEL 6
REMARK VINA RESULT:      -8.6      3.933      6.207
REMARK  Name = 
REMARK  6 active torsions:
REMARK  status: ('A' for Active; 'I' for Inactive)
REMARK    1  A    between atoms: C_1  and  C_2
REMARK    2  A    between atoms: C_10  and  N_11
REMARK    3  A    between atoms: C_12  and  C_14
REMARK    4  A    between atoms: N_17  and  C_18
REMARK    5  A    between atoms: C_18  and  C_19
REMARK    6  A    between atoms: C_24  and  N_25
REMARK                            x       y       z     vdW  Elec       q    Type
REMARK                         _______ _______ _______ _____ _____    ______ ____
ROOT
ATOM      1  N   UNL     1       0.510   9.945  20.928  0.00  0.00    +0.000 N 
ATOM      2  C   UNL     1      -0.529  10.591  20.274  0.00  0.00    +0.000 C 
ATOM      3  O   UNL     1      -1.130  10.111  19.308  0.00  0.00    +0.000 OA
ATOM      4  H   UNL     1       0.721  10.219  21.877  0.00  0.00    +0.000 HD
ENDROOT
BRANCH   1  14
ATOM      5  C   UNL     1       2.269   3.273  20.347  0.00  0.00    +0.000 C 
ATOM      6  C   UNL     1       3.114   3.936  19.330  0.00  0.00    +0.000 A 
ATOM      7  N   UNL     1       3.965   3.292  18.553  0.00  0.00    +0.000 NA
ATOM      8  N   UNL     1       4.542   4.187  17.695  0.00  0.00    +0.000 NA
ATOM      9  C   UNL     1       4.035   5.364  17.959  0.00  0.00    +0.000 A 
ATOM     10  N   UNL     1       3.117   5.275  18.984  0.00  0.00    +0.000 N 
ATOM     11  C   UNL     1       2.421   6.416  19.477  0.00  0.00    +0.000 A 
ATOM     12  C   UNL     1       1.703   6.390  20.665  0.00  0.00    +0.000 A 
ATOM     13  C   UNL     1       1.072   7.551  21.123  0.00  0.00    +0.000 A 
ATOM     14  C   UNL     1       1.141   8.763  20.429  0.00  0.00    +0.000 A 
ATOM     15  C   UNL     1       1.823   8.777  19.204  0.00  0.00    +0.000 A 
ATOM     16  C   UNL     1       2.490   7.618  18.732  0.00  0.00    +0.000 A 
ATOM     17  C   UNL     1       3.200   7.627  17.390  0.00  0.00    +0.000 C 
ATOM     18  C   UNL     1       4.400   6.675  17.368  0.00  0.00    +0.000 C 
ENDBRANCH   1  14
BRANCH   2  19
ATOM     19  C   UNL     1      -0.895  12.023  20.679  0.00  0.00    +0.000 C 
ATOM     20  C   UNL     1      -0.546  12.250  22.145  0.00  0.00    +0.000 C 
ATOM     21  C   UNL     1      -1.709  11.915  23.063  0.00  0.00    +0.000 C 
ATOM     22  N   UNL     1      -2.850  12.784  22.753  0.00  0.00    +0.000 NA
ATOM     23  C   UNL     1      -3.343  12.539  21.391  0.00  0.00    +0.000 C 
ATOM     24  C   UNL     1      -2.257  12.606  20.306  0.00  0.00    +0.000 C 
BRANCH  22  25
ATOM     25  C   UNL     1      -3.936  12.637  23.753  0.00  0.00    +0.000 C 
BRANCH  25  26
ATOM     26  C   UNL     1      -4.960  13.759  23.647  0.00  0.00    +0.000 A 
ATOM     27  C   UNL     1      -4.523  15.073  23.908  0.00  0.00    +0.000 A 
ATOM     28  C   UNL     1      -5.429  16.132  24.011  0.00  0.00    +0.000 A 
ATOM     29  C   UNL     1      -6.795  15.911  23.830  0.00  0.00    +0.000 A 
ATOM     30  C   UNL     1      -7.250  14.640  23.503  0.00  0.00    +0.000 A 
ATOM     31  C   UNL     1      -6.335  13.578  23.403  0.00  0.00    +0.000 A 
BRANCH  31  32
ATOM     32  N   UNL     1      -6.889  12.283  23.046  0.00  0.00    +0.000 N 
ATOM     33  O   UNL     1      -6.794  11.925  21.865  0.00  0.00    +0.000 OA
ATOM     34  O   UNL     1      -7.395  11.620  23.957  0.00  0.00    +0.000 OA
ENDBRANCH  31  32
ENDBRANCH  25  26
ENDBRANCH  22  25
ENDBRANCH   2  19
TORSDOF 5
ENDMDL
MODEL 7
REMARK VINA RESULT:      -8.6      5.552     10.507
REMARK  Name = 
REMARK  6 active torsions:
REMARK  status: ('A' for Active; 'I' for Inactive)
REMARK    1  A    between atoms: C_1  and  C_2
REMARK    2  A    between atoms: C_10  and  N_11
REMARK    3  A    between atoms: C_12  and  C_14
REMARK    4  A    between atoms: N_17  and  C_18
REMARK    5  A    between atoms: C_18  and  C_19
REMARK    6  A    between atoms: C_24  and  N_25
REMARK                            x       y       z     vdW  Elec       q    Type
REMARK                         _______ _______ _______ _____ _____    ______ ____
ROOT
ATOM      1  N   UNL     1       8.619   7.982  18.693  0.00  0.00    +0.000 N 
ATOM      2  C   UNL     1       7.799   7.313  17.796  0.00  0.00    +0.000 C 
ATOM      3  O   UNL     1       7.271   7.855  16.820  0.00  0.00    +0.000 OA
ATOM      4  H   UNL     1       9.269   7.438  19.244  0.00  0.00    +0.000 HD
ENDROOT
BRANCH   1  14
ATOM      5  C   UNL     1       7.335  14.668  17.435  0.00  0.00    +0.000 C 
ATOM      6  C   UNL     1       8.618  14.702  18.169  0.00  0.00    +0.000 A 
ATOM      7  N   UNL     1       9.267  15.815  18.457  0.00  0.00    +0.000 NA
ATOM      8  N   UNL     1      10.383  15.499  19.184  0.00  0.00    +0.000 NA
ATOM      9  C   UNL     1      10.398  14.199  19.330  0.00  0.00    +0.000 A 
ATOM     10  N   UNL     1       9.303  13.631  18.714  0.00  0.00    +0.000 N 
ATOM     11  C   UNL     1       9.080  12.224  18.714  0.00  0.00    +0.000 A 
ATOM     12  C   UNL     1       8.142  11.622  17.886  0.00  0.00    +0.000 A 
ATOM     13  C   UNL     1       7.994  10.232  17.898  0.00  0.00    +0.000 A 
ATOM     14  C   UNL     1       8.769   9.404  18.715  0.00  0.00    +0.000 A 
ATOM     15  C   UNL     1       9.681  10.014  19.588  0.00  0.00    +0.000 A 
ATOM     16  C   UNL     1       9.865  11.420  19.576  0.00  0.00    +0.000 A 
ATOM     17  C   UNL     1      10.829  12.082  20.544  0.00  0.00    +0.000 C 
ATOM     18  C   UNL     1      11.444  13.358  19.961  0.00  0.00    +0.000 C 
ENDBRANCH   1  14
BRANCH   2  19
ATOM     19  C   UNL     1       7.420   5.853  18.071  0.00  0.00    +0.000 C 
ATOM     20  C   UNL     1       6.830   5.228  16.812  0.00  0.00    +0.000 C 
ATOM     21  C   UNL     1       5.321   5.390  16.752  0.00  0.00    +0.000 C 
ATOM     22  N   UNL     1       4.706   4.713  17.899  0.00  0.00    +0.000 NA
ATOM     23  C   UNL     1       5.117   5.337  19.163  0.00  0.00    +0.000 C 
ATOM     24  C   UNL     1       6.637   5.483  19.328  0.00  0.00    +0.000 C 
BRANCH  22  25
ATOM     25  C   UNL     1       3.228   4.667  17.778  0.00  0.00    +0.000 C 
BRANCH  25  26
ATOM     26  C   UNL     1       2.554   5.724  18.642  0.00  0.00    +0.000 A 
ATOM     27  C   UNL     1       2.585   7.058  18.190  0.00  0.00    +0.000 A 
ATOM     28  C   UNL     1       2.153   8.110  19.003  0.00  0.00    +0.000 A 
ATOM     29  C   UNL     1       1.654   7.854  20.281  0.00  0.00    +0.000 A 
ATOM     30  C   UNL     1       1.546   6.543  20.729  0.00  0.00    +0.000 A 
ATOM     31  C   UNL     1       1.984   5.490  19.908  0.00  0.00    +0.000 A 
BRANCH  31  32
ATOM     32  N   UNL     1       1.827   4.149  20.445  0.00  0.00    +0.000 N 
ATOM     33  O   UNL     1       0.863   3.481  20.045  0.00  0.00    +0.000 OA
ATOM     34  O   UNL     1       2.684   3.761  21.245  0.00  0.00    +0.000 OA
ENDBRANCH  31  32
ENDBRANCH  25  26
ENDBRANCH  22  25
ENDBRANCH   2  19
TORSDOF 5
ENDMDL
MODEL 8
REMARK VINA RESULT:      -8.6      3.401      4.861
REMARK  Name = 
REMARK  6 active torsions:
REMARK  status: ('A' for Active; 'I' for Inactive)
REMARK    1  A    between atoms: C_1  and  C_2
REMARK    2  A    between atoms: C_10  and  N_11
REMARK    3  A    between atoms: C_12  and  C_14
REMARK    4  A    between atoms: N_17  and  C_18
REMARK    5  A    between atoms: C_18  and  C_19
REMARK    6  A    between atoms: C_24  and  N_25
REMARK                            x       y       z     vdW  Elec       q    Type
REMARK                         _______ _______ _______ _____ _____    ______ ____
ROOT
ATOM      1  N   UNL     1       1.434   9.028  20.115  0.00  0.00    +0.000 N 
ATOM      2  C   UNL     1       0.892   9.941  19.222  0.00  0.00    +0.000 C 
ATOM      3  O   UNL     1       0.538   9.646  18.076  0.00  0.00    +0.000 OA
ATOM      4  H   UNL     1       1.384   9.237  21.103  0.00  0.00    +0.000 HD
ENDROOT
BRANCH   1  14
ATOM      5  C   UNL     1       4.597   3.947  16.633  0.00  0.00    +0.000 C 
ATOM      6  C   UNL     1       3.758   3.218  17.609  0.00  0.00    +0.000 A 
ATOM      7  N   UNL     1       3.715   1.901  17.696  0.00  0.00    +0.000 NA
ATOM      8  N   UNL     1       2.888   1.556  18.730  0.00  0.00    +0.000 NA
ATOM      9  C   UNL     1       2.441   2.665  19.261  0.00  0.00    +0.000 A 
ATOM     10  N   UNL     1       2.959   3.759  18.599  0.00  0.00    +0.000 N 
ATOM     11  C   UNL     1       2.626   5.093  18.969  0.00  0.00    +0.000 A 
ATOM     12  C   UNL     1       2.923   6.183  18.160  0.00  0.00    +0.000 A 
ATOM     13  C   UNL     1       2.536   7.467  18.554  0.00  0.00    +0.000 A 
ATOM     14  C   UNL     1       1.842   7.709  19.743  0.00  0.00    +0.000 A 
ATOM     15  C   UNL     1       1.587   6.616  20.585  0.00  0.00    +0.000 A 
ATOM     16  C   UNL     1       1.949   5.302  20.195  0.00  0.00    +0.000 A 
ATOM     17  C   UNL     1       1.701   4.124  21.122  0.00  0.00    +0.000 C 
ATOM     18  C   UNL     1       1.445   2.828  20.348  0.00  0.00    +0.000 C 
ENDBRANCH   1  14
BRANCH   2  19
ATOM     19  C   UNL     1       0.822  11.421  19.613  0.00  0.00    +0.000 C 
ATOM     20  C   UNL     1       0.318  11.554  21.045  0.00  0.00    +0.000 C 
ATOM     21  C   UNL     1      -1.195  11.681  21.104  0.00  0.00    +0.000 C 
ATOM     22  N   UNL     1      -1.617  12.889  20.385  0.00  0.00    +0.000 NA
ATOM     23  C   UNL     1      -1.287  12.794  18.958  0.00  0.00    +0.000 C 
ATOM     24  C   UNL     1       0.180  12.438  18.672  0.00  0.00    +0.000 C 
BRANCH  22  25
ATOM     25  C   UNL     1      -3.060  13.168  20.587  0.00  0.00    +0.000 C 
BRANCH  25  26
ATOM     26  C   UNL     1      -3.290  14.222  21.661  0.00  0.00    +0.000 A 
ATOM     27  C   UNL     1      -2.903  15.547  21.374  0.00  0.00    +0.000 A 
ATOM     28  C   UNL     1      -2.911  16.535  22.363  0.00  0.00    +0.000 A 
ATOM     29  C   UNL     1      -3.330  16.232  23.659  0.00  0.00    +0.000 A 
ATOM     30  C   UNL     1      -3.783  14.953  23.956  0.00  0.00    +0.000 A 
ATOM     31  C   UNL     1      -3.771  13.963  22.958  0.00  0.00    +0.000 A 
BRANCH  31  32
ATOM     32  N   UNL     1      -4.271  12.654  23.346  0.00  0.00    +0.000 N 
ATOM     33  O   UNL     1      -5.466  12.410  23.130  0.00  0.00    +0.000 OA
ATOM     34  O   UNL     1      -3.458  11.868  23.842  0.00  0.00    +0.000 OA
ENDBRANCH  31  32
ENDBRANCH  25  26
ENDBRANCH  22  25
ENDBRANCH   2  19
TORSDOF 5
ENDMDL
MODEL 9
REMARK VINA RESULT:      -8.5      1.255      1.574
REMARK  Name = 
REMARK  6 active torsions:
REMARK  status: ('A' for Active; 'I' for Inactive)
REMARK    1  A    between atoms: C_1  and  C_2
REMARK    2  A    between atoms: C_10  and  N_11
REMARK    3  A    between atoms: C_12  and  C_14
REMARK    4  A    between atoms: N_17  and  C_18
REMARK    5  A    between atoms: C_18  and  C_19
REMARK    6  A    between atoms: C_24  and  N_25
REMARK                            x       y       z     vdW  Elec       q    Type
REMARK                         _______ _______ _______ _____ _____    ______ ____
ROOT
ATOM      1  N   UNL     1       1.257   9.243  19.962  0.00  0.00    +0.000 N 
ATOM      2  C   UNL     1       0.116   9.465  20.719  0.00  0.00    +0.000 C 
ATOM      3  O   UNL     1      -0.470   8.576  21.345  0.00  0.00    +0.000 OA
ATOM      4  H   UNL     1       1.862  10.029  19.766  0.00  0.00    +0.000 HD
ENDROOT
BRANCH   1  14
ATOM      5  C   UNL     1       4.560   4.201  16.555  0.00  0.00    +0.000 C 
ATOM      6  C   UNL     1       3.882   3.480  17.654  0.00  0.00    +0.000 A 
ATOM      7  N   UNL     1       3.969   2.174  17.835  0.00  0.00    +0.000 NA
ATOM      8  N   UNL     1       3.272   1.840  18.964  0.00  0.00    +0.000 NA
ATOM      9  C   UNL     1       2.772   2.945  19.457  0.00  0.00    +0.000 A 
ATOM     10  N   UNL     1       3.126   4.024  18.675  0.00  0.00    +0.000 N 
ATOM     11  C   UNL     1       2.704   5.349  18.982  0.00  0.00    +0.000 A 
ATOM     12  C   UNL     1       2.826   6.395  18.076  0.00  0.00    +0.000 A 
ATOM     13  C   UNL     1       2.358   7.668  18.415  0.00  0.00    +0.000 A 
ATOM     14  C   UNL     1       1.752   7.940  19.645  0.00  0.00    +0.000 A 
ATOM     15  C   UNL     1       1.675   6.897  20.580  0.00  0.00    +0.000 A 
ATOM     16  C   UNL     1       2.122   5.593  20.249  0.00  0.00    +0.000 A 
ATOM     17  C   UNL     1       2.067   4.473  21.274  0.00  0.00    +0.000 C 
ATOM     18  C   UNL     1       1.866   3.104  20.620  0.00  0.00    +0.000 C 
ENDBRANCH   1  14
BRANCH   2  19
ATOM     19  C   UNL     1      -0.536  10.852  20.705  0.00  0.00    +0.000 C 
ATOM     20  C   UNL     1      -0.702  11.329  19.268  0.00  0.00    +0.000 C 
ATOM     21  C   UNL     1       0.504  12.120  18.790  0.00  0.00    +0.000 C 
ATOM     22  N   UNL     1       0.672  13.315  19.624  0.00  0.00    +0.000 NA
ATOM     23  C   UNL     1       0.969  12.950  21.015  0.00  0.00    +0.000 C 
ATOM     24  C   UNL     1      -0.025  11.954  21.631  0.00  0.00    +0.000 C 
BRANCH  22  25
ATOM     25  C   UNL     1       1.708  14.224  19.074  0.00  0.00    +0.000 C 
BRANCH  25  26
ATOM     26  C   UNL     1       1.141  15.598  18.743  0.00  0.00    +0.000 A 
ATOM     27  C   UNL     1      -0.225  15.825  19.009  0.00  0.00    +0.000 A 
ATOM     28  C   UNL     1      -0.865  16.988  18.572  0.00  0.00    +0.000 A 
ATOM     29  C   UNL     1      -0.152  17.968  17.879  0.00  0.00    +0.000 A 
ATOM     30  C   UNL     1       1.211  17.805  17.663  0.00  0.00    +0.000 A 
ATOM     31  C   UNL     1       1.849  16.633  18.103  0.00  0.00    +0.000 A 
BRANCH  31  32
ATOM     32  N   UNL     1       3.277  16.544  17.848  0.00  0.00    +0.000 N 
ATOM     33  O   UNL     1       3.648  15.819  16.915  0.00  0.00    +0.000 OA
ATOM     34  O   UNL     1       4.019  17.219  18.569  0.00  0.00    +0.000 OA
ENDBRANCH  31  32
ENDBRANCH  25  26
ENDBRANCH  22  25
ENDBRANCH   2  19
TORSDOF 5
ENDMDL
