MODEL 1
REMARK VINA RESULT:      -8.3      0.000      0.000
REMARK  Name = 
REMARK  6 active torsions:
REMARK  status: ('A' for Active; 'I' for Inactive)
REMARK    1  A    between atoms: C_5  and  C_6
REMARK    2  A    between atoms: C_9  and  C_10
REMARK    3  A    between atoms: C_10  and  N_11
REMARK    4  A    between atoms: N_11  and  C_12
REMARK    5  A    between atoms: C_12  and  C_13
REMARK    6  A    between atoms: C_13  and  C_14
REMARK                            x       y       z     vdW  Elec       q    Type
REMARK                         _______ _______ _______ _____ _____    ______ ____
ROOT
ATOM      1  C   UNL     1       1.852   5.974  20.208  0.00  0.00    +0.000 A 
ATOM      2  C   UNL     1       2.430   5.453  21.348  0.00  0.00    +0.000 A 
ATOM      3  C   UNL     1       2.145   4.064  21.354  0.00  0.00    +0.000 A 
ATOM      4  C   UNL     1       1.402   3.816  20.225  0.00  0.00    +0.000 A 
ATOM      5  O   UNL     1       1.226   4.972  19.519  0.00  0.00    +0.000 OA
ENDROOT
BRANCH   1  10
ATOM      6  C   UNL     1       0.028  10.781  21.184  0.00  0.00    +0.000 A 
ATOM      7  C   UNL     1       0.117   9.644  21.967  0.00  0.00    +0.000 A 
ATOM      8  C   UNL     1       0.739   8.501  21.462  0.00  0.00    +0.000 A 
ATOM      9  C   UNL     1       1.270   8.449  20.148  0.00  0.00    +0.000 A 
ATOM     10  C   UNL     1       1.861   7.289  19.564  0.00  0.00    +0.000 A 
ATOM     11  C   UNL     1       2.429   7.371  18.279  0.00  0.00    +0.000 A 
ATOM     12  C   UNL     1       2.388   8.554  17.550  0.00  0.00    +0.000 A 
ATOM     13  C   UNL     1       1.767   9.676  18.093  0.00  0.00    +0.000 A 
ATOM     14  C   UNL     1       1.208   9.641  19.379  0.00  0.00    +0.000 A 
ATOM     15  C   UNL     1       0.582  10.784  19.905  0.00  0.00    +0.000 A 
ENDBRANCH   1  10
BRANCH   4  16
ATOM     16  C   UNL     1       0.859   2.574  19.610  0.00  0.00    +0.000 C 
BRANCH  16  17
ATOM     17  N   UNL     1       0.982   2.567  18.148  0.00  0.00    +0.000 NA
ATOM     18  H   UNL     1       0.729   3.501  17.820  0.00  0.00    +0.000 HD
BRANCH  17  19
ATOM     19  C   UNL     1       2.358   2.277  17.709  0.00  0.00    +0.000 C 
BRANCH  19  20
ATOM     20  C   UNL     1       2.990   3.529  17.092  0.00  0.00    +0.000 C 
BRANCH  20  21
ATOM     21  C   UNL     1       4.242   3.952  17.796  0.00  0.00    +0.000 A 
ATOM     22  C   UNL     1       4.799   3.354  18.909  0.00  0.00    +0.000 A 
ATOM     23  N   UNL     1       5.968   4.002  19.205  0.00  0.00    +0.000 N 
ATOM     24  C   UNL     1       6.183   5.029  18.316  0.00  0.00    +0.000 A 
ATOM     25  C   UNL     1       7.242   5.941  18.227  0.00  0.00    +0.000 A 
ATOM     26  C   UNL     1       7.191   6.896  17.208  0.00  0.00    +0.000 A 
ATOM     27  C   UNL     1       6.123   6.936  16.315  0.00  0.00    +0.000 A 
ATOM     28  C   UNL     1       5.076   6.012  16.414  0.00  0.00    +0.000 A 
ATOM     29  C   UNL     1       5.105   5.035  17.430  0.00  0.00    +0.000 A 
ATOM     30  H   UNL     1       6.593   3.760  19.960  0.00  0.00    +0.000 HD
ENDBRANCH  20  21
ENDBRANCH  19  20
ENDBRANCH  17  19
ENDBRANCH  16  17
ENDBRANCH   4  16
TORSDOF 6
ENDMDL
MODEL 2
REMARK VINA RESULT:      -8.2      3.501      8.157
REMARK  Name = 
REMARK  6 active torsions:
REMARK  status: ('A' for Active; 'I' for Inactive)
REMARK    1  A    between atoms: C_5  and  C_6
REMARK    2  A    between atoms: C_9  and  C_10
REMARK    3  A    between atoms: C_10  and  N_11
REMARK    4  A    between atoms: N_11  and  C_12
REMARK    5  A    between atoms: C_12  and  C_13
REMARK    6  A    between atoms: C_13  and  C_14
REMARK                            x       y       z     vdW  Elec       q    Type
REMARK                         _______ _______ _______ _____ _____    ______ ____
ROOT
ATOM      1  C   UNL     1       2.668   7.450  18.254  0.00  0.00    +0.000 A 
ATOM      2  C   UNL     1       2.274   8.621  17.639  0.00  0.00    +0.000 A 
ATOM      3  C   UNL     1       1.541   9.362  18.600  0.00  0.00    +0.000 A 
ATOM      4  C   UNL     1       1.519   8.600  19.743  0.00  0.00    +0.000 A 
ATOM      5  O   UNL     1       2.209   7.439  19.543  0.00  0.00    +0.000 OA
ENDROOT
BRANCH   1  10
ATOM      6  C   UNL     1       2.325   2.234  18.001  0.00  0.00    +0.000 A 
ATOM      7  C   UNL     1       1.376   3.219  18.212  0.00  0.00    +0.000 A 
ATOM      8  C   UNL     1       1.745   4.564  18.144  0.00  0.00    +0.000 A 
ATOM      9  C   UNL     1       3.080   4.968  17.888  0.00  0.00    +0.000 A 
ATOM     10  C   UNL     1       3.521   6.325  17.867  0.00  0.00    +0.000 A 
ATOM     11  C   UNL     1       4.854   6.617  17.522  0.00  0.00    +0.000 A 
ATOM     12  C   UNL     1       5.762   5.603  17.243  0.00  0.00    +0.000 A 
ATOM     13  C   UNL     1       5.353   4.274  17.312  0.00  0.00    +0.000 A 
ATOM     14  C   UNL     1       4.028   3.941  17.630  0.00  0.00    +0.000 A 
ATOM     15  C   UNL     1       3.637   2.593  17.699  0.00  0.00    +0.000 A 
ENDBRANCH   1  10
BRANCH   4  16
ATOM     16  C   UNL     1       0.992   8.830  21.116  0.00  0.00    +0.000 C 
BRANCH  16  17
ATOM     17  N   UNL     1      -0.300   9.526  21.116  0.00  0.00    +0.000 NA
ATOM     18  H   UNL     1      -0.914   9.022  21.759  0.00  0.00    +0.000 HD
BRANCH  17  19
ATOM     19  C   UNL     1      -0.181  10.918  21.582  0.00  0.00    +0.000 C 
BRANCH  19  20
ATOM     20  C   UNL     1      -0.296  11.882  20.397  0.00  0.00    +0.000 C 
BRANCH  20  21
ATOM     21  C   UNL     1      -1.682  11.942  19.833  0.00  0.00    +0.000 A 
ATOM     22  C   UNL     1      -2.747  12.654  20.348  0.00  0.00    +0.000 A 
ATOM     23  N   UNL     1      -3.816  12.494  19.508  0.00  0.00    +0.000 N 
ATOM     24  C   UNL     1      -3.480  11.673  18.457  0.00  0.00    +0.000 A 
ATOM     25  C   UNL     1      -4.243  11.247  17.364  0.00  0.00    +0.000 A 
ATOM     26  C   UNL     1      -3.631  10.397  16.438  0.00  0.00    +0.000 A 
ATOM     27  C   UNL     1      -2.310   9.990  16.603  0.00  0.00    +0.000 A 
ATOM     28  C   UNL     1      -1.558  10.433  17.698  0.00  0.00    +0.000 A 
ATOM     29  C   UNL     1      -2.150  11.295  18.643  0.00  0.00    +0.000 A 
ATOM     30  H   UNL     1      -4.723  12.923  19.631  0.00  0.00    +0.000 HD
ENDBRANCH  20  21
ENDBRANCH  19  20
ENDBRANCH  17  19
ENDBRANCH  16  17
ENDBRANCH   4  16
TORSDOF 6
ENDMDL
MODEL 3
REMARK VINA RESULT:      -8.1      1.148      1.480
REMARK  Name = 
REMARK  6 active torsions:
REMARK  status: ('A' for Active; 'I' for Inactive)
REMARK    1  A    between atoms: C_5  and  C_6
REMARK    2  A    between atoms: C_9  and  C_10
REMARK    3  A    between atoms: C_10  and  N_11
REMARK    4  A    between atoms: N_11  and  C_12
REMARK    5  A    between atoms: C_12  and  C_13
REMARK    6  A    between atoms: C_13  and  C_14
REMARK                            x       y       z     vdW  Elec       q    Type
REMARK                         _______ _______ _______ _____ _____    ______ ____
ROOT
ATOM      1  C   UNL     1       2.007   5.545  20.176  0.00  0.00    +0.000 A 
ATOM      2  C   UNL     1       2.481   5.029  21.365  0.00  0.00    +0.000 A 
ATOM      3  C   UNL     1       2.263   3.629  21.321  0.00  0.00    +0.000 A 
ATOM      4  C   UNL     1       1.661   3.368  20.113  0.00  0.00    +0.000 A 
ATOM      5  O   UNL     1       1.509   4.528  19.408  0.00  0.00    +0.000 OA
ENDROOT
BRANCH   1  10
ATOM      6  C   UNL     1       0.168  10.334  21.209  0.00  0.00    +0.000 A 
ATOM      7  C   UNL     1       0.246   9.183  21.974  0.00  0.00    +0.000 A 
ATOM      8  C   UNL     1       0.875   8.049  21.457  0.00  0.00    +0.000 A 
ATOM      9  C   UNL     1       1.424   8.020  20.151  0.00  0.00    +0.000 A 
ATOM     10  C   UNL     1       2.024   6.870  19.554  0.00  0.00    +0.000 A 
ATOM     11  C   UNL     1       2.610   6.975  18.279  0.00  0.00    +0.000 A 
ATOM     12  C   UNL     1       2.578   8.170  17.570  0.00  0.00    +0.000 A 
ATOM     13  C   UNL     1       1.949   9.282  18.123  0.00  0.00    +0.000 A 
ATOM     14  C   UNL     1       1.372   9.225  19.401  0.00  0.00    +0.000 A 
ATOM     15  C   UNL     1       0.738  10.359  19.938  0.00  0.00    +0.000 A 
ENDBRANCH   1  10
BRANCH   4  16
ATOM     16  C   UNL     1       1.248   2.115  19.425  0.00  0.00    +0.000 C 
BRANCH  16  17
ATOM     17  N   UNL     1       1.513   2.149  17.983  0.00  0.00    +0.000 NA
ATOM     18  H   UNL     1       1.003   2.948  17.601  0.00  0.00    +0.000 HD
BRANCH  17  19
ATOM     19  C   UNL     1       2.944   2.325  17.686  0.00  0.00    +0.000 C 
BRANCH  19  20
ATOM     20  C   UNL     1       3.151   3.555  16.796  0.00  0.00    +0.000 C 
BRANCH  20  21
ATOM     21  C   UNL     1       4.596   3.899  16.609  0.00  0.00    +0.000 A 
ATOM     22  C   UNL     1       5.331   3.750  15.450  0.00  0.00    +0.000 A 
ATOM     23  N   UNL     1       6.591   4.234  15.675  0.00  0.00    +0.000 N 
ATOM     24  C   UNL     1       6.706   4.681  16.970  0.00  0.00    +0.000 A 
ATOM     25  C   UNL     1       7.796   5.260  17.633  0.00  0.00    +0.000 A 
ATOM     26  C   UNL     1       7.623   5.619  18.973  0.00  0.00    +0.000 A 
ATOM     27  C   UNL     1       6.410   5.405  19.622  0.00  0.00    +0.000 A 
ATOM     28  C   UNL     1       5.328   4.833  18.942  0.00  0.00    +0.000 A 
ATOM     29  C   UNL     1       5.474   4.466  17.588  0.00  0.00    +0.000 A 
ATOM     30  H   UNL     1       7.333   4.269  14.990  0.00  0.00    +0.000 HD
ENDBRANCH  20  21
ENDBRANCH  19  20
ENDBRANCH  17  19
ENDBRANCH  16  17
ENDBRANCH   4  16
TORSDOF 6
ENDMDL
MODEL 4
REMARK VINA RESULT:      -7.9      1.378      2.161
REMARK  Name = 
REMARK  6 active torsions:
REMARK  status: ('A' for Active; 'I' for Inactive)
REMARK    1  A    between atoms: C_5  and  C_6
REMARK    2  A    between atoms: C_9  and  C_10
REMARK    3  A    between atoms: C_10  and  N_11
REMARK    4  A    between atoms: N_11  and  C_12
REMARK    5  A    between atoms: C_12  and  C_13
REMARK    6  A    between atoms: C_13  and  C_14
REMARK                            x       y       z     vdW  Elec       q    Type
REMARK                         _______ _______ _______ _____ _____    ______ ____
ROOT
ATOM      1  C   UNL     1       2.165   6.237  19.844  0.00  0.00    +0.000 A 
ATOM      2  C   UNL     1       1.466   5.326  20.609  0.00  0.00    +0.000 A 
ATOM      3  C   UNL     1       2.263   4.155  20.682  0.00  0.00    +0.000 A 
ATOM      4  C   UNL     1       3.397   4.412  19.950  0.00  0.00    +0.000 A 
ATOM      5  O   UNL     1       3.349   5.680  19.444  0.00  0.00    +0.000 OA
ENDROOT
BRANCH   1  10
ATOM      6  C   UNL     1      -0.046  10.499  21.926  0.00  0.00    +0.000 A 
ATOM      7  C   UNL     1       0.251   9.254  22.453  0.00  0.00    +0.000 A 
ATOM      8  C   UNL     1       0.932   8.316  21.674  0.00  0.00    +0.000 A 
ATOM      9  C   UNL     1       1.317   8.583  20.337  0.00  0.00    +0.000 A 
ATOM     10  C   UNL     1       1.961   7.640  19.480  0.00  0.00    +0.000 A 
ATOM     11  C   UNL     1       2.371   8.038  18.194  0.00  0.00    +0.000 A 
ATOM     12  C   UNL     1       2.122   9.322  17.725  0.00  0.00    +0.000 A 
ATOM     13  C   UNL     1       1.448  10.232  18.535  0.00  0.00    +0.000 A 
ATOM     14  C   UNL     1       1.042   9.883  19.832  0.00  0.00    +0.000 A 
ATOM     15  C   UNL     1       0.359  10.815  20.631  0.00  0.00    +0.000 A 
ENDBRANCH   1  10
BRANCH   4  16
ATOM     16  C   UNL     1       4.646   3.644  19.695  0.00  0.00    +0.000 C 
BRANCH  16  17
ATOM     17  N   UNL     1       4.471   2.602  18.678  0.00  0.00    +0.000 NA
ATOM     18  H   UNL     1       3.773   1.946  19.035  0.00  0.00    +0.000 HD
BRANCH  17  19
ATOM     19  C   UNL     1       3.982   3.150  17.401  0.00  0.00    +0.000 C 
BRANCH  19  20
ATOM     20  C   UNL     1       5.157   3.398  16.449  0.00  0.00    +0.000 C 
BRANCH  20  21
ATOM     21  C   UNL     1       5.566   4.837  16.397  0.00  0.00    +0.000 A 
ATOM     22  C   UNL     1       5.075   5.799  15.536  0.00  0.00    +0.000 A 
ATOM     23  N   UNL     1       5.660   6.996  15.851  0.00  0.00    +0.000 N 
ATOM     24  C   UNL     1       6.543   6.837  16.893  0.00  0.00    +0.000 A 
ATOM     25  C   UNL     1       7.348   7.777  17.547  0.00  0.00    +0.000 A 
ATOM     26  C   UNL     1       8.163   7.321  18.586  0.00  0.00    +0.000 A 
ATOM     27  C   UNL     1       8.173   5.978  18.954  0.00  0.00    +0.000 A 
ATOM     28  C   UNL     1       7.356   5.052  18.295  0.00  0.00    +0.000 A 
ATOM     29  C   UNL     1       6.520   5.487  17.246  0.00  0.00    +0.000 A 
ATOM     30  H   UNL     1       5.468   7.876  15.393  0.00  0.00    +0.000 HD
ENDBRANCH  20  21
ENDBRANCH  19  20
ENDBRANCH  17  19
ENDBRANCH  16  17
ENDBRANCH   4  16
TORSDOF 6
ENDMDL
MODEL 5
REMARK VINA RESULT:      -7.9      4.387      7.197
REMARK  Name = 
REMARK  6 active torsions:
REMARK  status: ('A' for Active; 'I' for Inactive)
REMARK    1  A    between atoms: C_5  and  C_6
REMARK    2  A    between atoms: C_9  and  C_10
REMARK    3  A    between atoms: C_10  and  N_11
REMARK    4  A    between atoms: N_11  and  C_12
REMARK    5  A    between atoms: C_12  and  C_13
REMARK    6  A    between atoms: C_13  and  C_14
REMARK                            x       y       z     vdW  Elec       q    Type
REMARK                         _______ _______ _______ _____ _____    ______ ____
ROOT
ATOM      1  C   UNL     1       5.152   4.593  17.188  0.00  0.00    +0.000 A 
ATOM      2  C   UNL     1       5.784   4.391  15.978  0.00  0.00    +0.000 A 
ATOM      3  C   UNL     1       6.855   5.318  15.915  0.00  0.00    +0.000 A 
ATOM      4  C   UNL     1       6.812   6.040  17.084  0.00  0.00    +0.000 A 
ATOM      5  O   UNL     1       5.783   5.600  17.866  0.00  0.00    +0.000 OA
ENDROOT
BRANCH   1  10
ATOM      6  C   UNL     1       1.462   5.823  20.689  0.00  0.00    +0.000 A 
ATOM      7  C   UNL     1       2.325   6.600  19.936  0.00  0.00    +0.000 A 
ATOM      8  C   UNL     1       3.165   5.995  19.000  0.00  0.00    +0.000 A 
ATOM      9  C   UNL     1       3.188   4.591  18.803  0.00  0.00    +0.000 A 
ATOM     10  C   UNL     1       4.068   3.918  17.904  0.00  0.00    +0.000 A 
ATOM     11  C   UNL     1       3.951   2.527  17.728  0.00  0.00    +0.000 A 
ATOM     12  C   UNL     1       3.019   1.788  18.447  0.00  0.00    +0.000 A 
ATOM     13  C   UNL     1       2.192   2.430  19.365  0.00  0.00    +0.000 A 
ATOM     14  C   UNL     1       2.262   3.818  19.554  0.00  0.00    +0.000 A 
ATOM     15  C   UNL     1       1.421   4.444  20.489  0.00  0.00    +0.000 A 
ENDBRANCH   1  10
BRANCH   4  16
ATOM     16  C   UNL     1       7.686   7.094  17.668  0.00  0.00    +0.000 C 
BRANCH  16  17
ATOM     17  N   UNL     1       7.197   8.450  17.392  0.00  0.00    +0.000 NA
ATOM     18  H   UNL     1       6.394   8.611  18.004  0.00  0.00    +0.000 HD
BRANCH  17  19
ATOM     19  C   UNL     1       8.214   9.475  17.679  0.00  0.00    +0.000 C 
BRANCH  19  20
ATOM     20  C   UNL     1       8.905   9.174  19.013  0.00  0.00    +0.000 C 
BRANCH  20  21
ATOM     21  C   UNL     1       9.435  10.404  19.681  0.00  0.00    +0.000 A 
ATOM     22  C   UNL     1       9.179  10.809  20.976  0.00  0.00    +0.000 A 
ATOM     23  N   UNL     1       9.897  11.948  21.220  0.00  0.00    +0.000 N 
ATOM     24  C   UNL     1      10.608  12.313  20.102  0.00  0.00    +0.000 A 
ATOM     25  C   UNL     1      11.479  13.390  19.895  0.00  0.00    +0.000 A 
ATOM     26  C   UNL     1      12.067  13.516  18.634  0.00  0.00    +0.000 A 
ATOM     27  C   UNL     1      11.793  12.602  17.620  0.00  0.00    +0.000 A 
ATOM     28  C   UNL     1      10.926  11.525  17.846  0.00  0.00    +0.000 A 
ATOM     29  C   UNL     1      10.324  11.373  19.111  0.00  0.00    +0.000 A 
ATOM     30  H   UNL     1       9.914  12.450  22.097  0.00  0.00    +0.000 HD
ENDBRANCH  20  21
ENDBRANCH  19  20
ENDBRANCH  17  19
ENDBRANCH  16  17
ENDBRANCH   4  16
TORSDOF 6
ENDMDL
MODEL 6
REMARK VINA RESULT:      -7.9      2.147      3.507
REMARK  Name = 
REMARK  6 active torsions:
REMARK  status: ('A' for Active; 'I' for Inactive)
REMARK    1  A    between atoms: C_5  and  C_6
REMARK    2  A    between atoms: C_9  and  C_10
REMARK    3  A    between atoms: C_10  and  N_11
REMARK    4  A    between atoms: N_11  and  C_12
REMARK    5  A    between atoms: C_12  and  C_13
REMARK    6  A    between atoms: C_13  and  C_14
REMARK                            x       y       z     vdW  Elec       q    Type
REMARK                         _______ _______ _______ _____ _____    ______ ____
ROOT
ATOM      1  C   UNL     1       1.360   9.220  18.966  0.00  0.00    +0.000 A 
ATOM      2  C   UNL     1       2.175   9.087  17.861  0.00  0.00    +0.000 A 
ATOM      3  C   UNL     1       2.833   7.837  17.984  0.00  0.00    +0.000 A 
ATOM      4  C   UNL     1       2.391   7.281  19.161  0.00  0.00    +0.000 A 
ATOM      5  O   UNL     1       1.489   8.113  19.760  0.00  0.00    +0.000 OA
ENDROOT
BRANCH   1  10
ATOM      6  C   UNL     1      -3.151  11.173  17.171  0.00  0.00    +0.000 A 
ATOM      7  C   UNL     1      -2.375  10.100  16.766  0.00  0.00    +0.000 A 
ATOM      8  C   UNL     1      -1.238   9.751  17.498  0.00  0.00    +0.000 A 
ATOM      9  C   UNL     1      -0.826  10.478  18.642  0.00  0.00    +0.000 A 
ATOM     10  C   UNL     1       0.359  10.200  19.389  0.00  0.00    +0.000 A 
ATOM     11  C   UNL     1       0.631  10.935  20.558  0.00  0.00    +0.000 A 
ATOM     12  C   UNL     1      -0.212  11.958  20.976  0.00  0.00    +0.000 A 
ATOM     13  C   UNL     1      -1.342  12.270  20.225  0.00  0.00    +0.000 A 
ATOM     14  C   UNL     1      -1.660  11.547  19.066  0.00  0.00    +0.000 A 
ATOM     15  C   UNL     1      -2.804  11.882  18.320  0.00  0.00    +0.000 A 
ENDBRANCH   1  10
BRANCH   4  16
ATOM     16  C   UNL     1       2.628   5.970  19.826  0.00  0.00    +0.000 C 
BRANCH  16  17
ATOM     17  N   UNL     1       1.659   4.947  19.417  0.00  0.00    +0.000 NA
ATOM     18  H   UNL     1       0.727   5.350  19.534  0.00  0.00    +0.000 HD
BRANCH  17  19
ATOM     19  C   UNL     1       1.825   4.558  18.006  0.00  0.00    +0.000 C 
BRANCH  19  20
ATOM     20  C   UNL     1       2.749   3.341  17.899  0.00  0.00    +0.000 C 
BRANCH  20  21
ATOM     21  C   UNL     1       4.199   3.707  17.972  0.00  0.00    +0.000 A 
ATOM     22  C   UNL     1       5.000   3.667  19.096  0.00  0.00    +0.000 A 
ATOM     23  N   UNL     1       6.271   4.018  18.731  0.00  0.00    +0.000 N 
ATOM     24  C   UNL     1       6.319   4.309  17.388  0.00  0.00    +0.000 A 
ATOM     25  C   UNL     1       7.398   4.698  16.585  0.00  0.00    +0.000 A 
ATOM     26  C   UNL     1       7.147   4.934  15.231  0.00  0.00    +0.000 A 
ATOM     27  C   UNL     1       5.867   4.788  14.703  0.00  0.00    +0.000 A 
ATOM     28  C   UNL     1       4.800   4.390  15.518  0.00  0.00    +0.000 A 
ATOM     29  C   UNL     1       5.028   4.141  16.886  0.00  0.00    +0.000 A 
ATOM     30  H   UNL     1       7.067   4.053  19.352  0.00  0.00    +0.000 HD
ENDBRANCH  20  21
ENDBRANCH  19  20
ENDBRANCH  17  19
ENDBRANCH  16  17
ENDBRANCH   4  16
TORSDOF 6
ENDMDL
MODEL 7
REMARK VINA RESULT:      -7.9      2.685      4.180
REMARK  Name = 
REMARK  6 active torsions:
REMARK  status: ('A' for Active; 'I' for Inactive)
REMARK    1  A    between atoms: C_5  and  C_6
REMARK    2  A    between atoms: C_9  and  C_10
REMARK    3  A    between atoms: C_10  and  N_11
REMARK    4  A    between atoms: N_11  and  C_12
REMARK    5  A    between atoms: C_12  and  C_13
REMARK    6  A    between atoms: C_13  and  C_14
REMARK                            x       y       z     vdW  Elec       q    Type
REMARK                         _______ _______ _______ _____ _____    ______ ____
ROOT
ATOM      1  C   UNL     1       1.511   9.091  18.932  0.00  0.00    +0.000 A 
ATOM      2  C   UNL     1       2.204   9.169  17.741  0.00  0.00    +0.000 A 
ATOM      3  C   UNL     1       2.954   7.972  17.624  0.00  0.00    +0.000 A 
ATOM      4  C   UNL     1       2.686   7.234  18.752  0.00  0.00    +0.000 A 
ATOM      5  O   UNL     1       1.803   7.905  19.548  0.00  0.00    +0.000 OA
ENDROOT
BRANCH   1  10
ATOM      6  C   UNL     1      -2.993  11.434  17.660  0.00  0.00    +0.000 A 
ATOM      7  C   UNL     1      -2.207  10.507  16.997  0.00  0.00    +0.000 A 
ATOM      8  C   UNL     1      -1.075   9.982  17.624  0.00  0.00    +0.000 A 
ATOM      9  C   UNL     1      -0.679  10.384  18.924  0.00  0.00    +0.000 A 
ATOM     10  C   UNL     1       0.499   9.923  19.586  0.00  0.00    +0.000 A 
ATOM     11  C   UNL     1       0.755  10.326  20.909  0.00  0.00    +0.000 A 
ATOM     12  C   UNL     1      -0.098  11.201  21.571  0.00  0.00    +0.000 A 
ATOM     13  C   UNL     1      -1.221  11.696  20.915  0.00  0.00    +0.000 A 
ATOM     14  C   UNL     1      -1.524  11.301  19.604  0.00  0.00    +0.000 A 
ATOM     15  C   UNL     1      -2.661  11.817  18.958  0.00  0.00    +0.000 A 
ENDBRANCH   1  10
BRANCH   4  16
ATOM     16  C   UNL     1       3.083   5.872  19.202  0.00  0.00    +0.000 C 
BRANCH  16  17
ATOM     17  N   UNL     1       4.506   5.596  18.978  0.00  0.00    +0.000 NA
ATOM     18  H   UNL     1       4.967   5.629  19.890  0.00  0.00    +0.000 HD
BRANCH  17  19
ATOM     19  C   UNL     1       4.727   4.262  18.395  0.00  0.00    +0.000 C 
BRANCH  19  20
ATOM     20  C   UNL     1       4.427   4.287  16.892  0.00  0.00    +0.000 C 
BRANCH  20  21
ATOM     21  C   UNL     1       5.594   4.751  16.077  0.00  0.00    +0.000 A 
ATOM     22  C   UNL     1       6.635   5.547  16.513  0.00  0.00    +0.000 A 
ATOM     23  N   UNL     1       7.526   5.692  15.484  0.00  0.00    +0.000 N 
ATOM     24  C   UNL     1       7.080   5.022  14.369  0.00  0.00    +0.000 A 
ATOM     25  C   UNL     1       7.662   4.886  13.103  0.00  0.00    +0.000 A 
ATOM     26  C   UNL     1       6.969   4.138  12.147  0.00  0.00    +0.000 A 
ATOM     27  C   UNL     1       5.742   3.552  12.447  0.00  0.00    +0.000 A 
ATOM     28  C   UNL     1       5.177   3.691  13.721  0.00  0.00    +0.000 A 
ATOM     29  C   UNL     1       5.859   4.436  14.705  0.00  0.00    +0.000 A 
ATOM     30  H   UNL     1       8.392   6.209  15.532  0.00  0.00    +0.000 HD
ENDBRANCH  20  21
ENDBRANCH  19  20
ENDBRANCH  17  19
ENDBRANCH  16  17
ENDBRANCH   4  16
TORSDOF 6
ENDMDL
MODEL 8
REMARK VINA RESULT:      -7.8      4.517      7.265
REMARK  Name = 
REMARK  6 active torsions:
REMARK  status: ('A' for Active; 'I' for Inactive)
REMARK    1  A    between atoms: C_5  and  C_6
REMARK    2  A    between atoms: C_9  and  C_10
REMARK    3  A    between atoms: C_10  and  N_11
REMARK    4  A    between atoms: N_11  and  C_12
REMARK    5  A    between atoms: C_12  and  C_13
REMARK    6  A    between atoms: C_13  and  C_14
REMARK                            x       y       z     vdW  Elec       q    Type
REMARK                         _______ _______ _______ _____ _____    ______ ____
ROOT
ATOM      1  C   UNL     1       4.766   4.762  17.065  0.00  0.00    +0.000 A 
ATOM      2  C   UNL     1       5.344   4.694  15.813  0.00  0.00    +0.000 A 
ATOM      3  C   UNL     1       6.512   5.497  15.856  0.00  0.00    +0.000 A 
ATOM      4  C   UNL     1       6.577   6.019  17.126  0.00  0.00    +0.000 A 
ATOM      5  O   UNL     1       5.523   5.570  17.869  0.00  0.00    +0.000 OA
ENDROOT
BRANCH   1  10
ATOM      6  C   UNL     1       1.268   5.827  20.808  0.00  0.00    +0.000 A 
ATOM      7  C   UNL     1       2.195   6.617  20.150  0.00  0.00    +0.000 A 
ATOM      8  C   UNL     1       2.957   6.074  19.114  0.00  0.00    +0.000 A 
ATOM      9  C   UNL     1       2.835   4.718  18.718  0.00  0.00    +0.000 A 
ATOM     10  C   UNL     1       3.630   4.099  17.707  0.00  0.00    +0.000 A 
ATOM     11  C   UNL     1       3.370   2.767  17.338  0.00  0.00    +0.000 A 
ATOM     12  C   UNL     1       2.379   2.026  17.971  0.00  0.00    +0.000 A 
ATOM     13  C   UNL     1       1.634   2.606  18.994  0.00  0.00    +0.000 A 
ATOM     14  C   UNL     1       1.847   3.938  19.377  0.00  0.00    +0.000 A 
ATOM     15  C   UNL     1       1.086   4.502  20.415  0.00  0.00    +0.000 A 
ENDBRANCH   1  10
BRANCH   4  16
ATOM     16  C   UNL     1       7.577   6.863  17.835  0.00  0.00    +0.000 C 
BRANCH  16  17
ATOM     17  N   UNL     1       7.959   8.053  17.066  0.00  0.00    +0.000 NA
ATOM     18  H   UNL     1       7.324   8.112  16.268  0.00  0.00    +0.000 HD
BRANCH  17  19
ATOM     19  C   UNL     1       7.829   9.289  17.856  0.00  0.00    +0.000 C 
BRANCH  19  20
ATOM     20  C   UNL     1       8.974   9.391  18.868  0.00  0.00    +0.000 C 
BRANCH  20  21
ATOM     21  C   UNL     1       9.586  10.756  18.915  0.00  0.00    +0.000 A 
ATOM     22  C   UNL     1      10.255  11.391  17.887  0.00  0.00    +0.000 A 
ATOM     23  N   UNL     1      10.605  12.644  18.311  0.00  0.00    +0.000 N 
ATOM     24  C   UNL     1      10.196  12.840  19.609  0.00  0.00    +0.000 A 
ATOM     25  C   UNL     1      10.327  13.961  20.439  0.00  0.00    +0.000 A 
ATOM     26  C   UNL     1       9.812  13.872  21.735  0.00  0.00    +0.000 A 
ATOM     27  C   UNL     1       9.192  12.707  22.182  0.00  0.00    +0.000 A 
ATOM     28  C   UNL     1       9.063  11.599  21.337  0.00  0.00    +0.000 A 
ATOM     29  C   UNL     1       9.570  11.665  20.023  0.00  0.00    +0.000 A 
ATOM     30  H   UNL     1      11.087  13.335  17.754  0.00  0.00    +0.000 HD
ENDBRANCH  20  21
ENDBRANCH  19  20
ENDBRANCH  17  19
ENDBRANCH  16  17
ENDBRANCH   4  16
TORSDOF 6
ENDMDL
MODEL 9
REMARK VINA RESULT:      -7.8      2.220      2.676
REMARK  Name = 
REMARK  6 active torsions:
REMARK  status: ('A' for Active; 'I' for Inactive)
REMARK    1  A    between atoms: C_5  and  C_6
REMARK    2  A    between atoms: C_9  and  C_10
REMARK    3  A    between atoms: C_10  and  N_11
REMARK    4  A    between atoms: N_11  and  C_12
REMARK    5  A    between atoms: C_12  and  C_13
REMARK    6  A    between atoms: C_13  and  C_14
REMARK                            x       y       z     vdW  Elec       q    Type
REMARK                         _______ _______ _______ _____ _____    ______ ____
ROOT
ATOM      1  C   UNL     1       2.121   5.773  19.891  0.00  0.00    +0.000 A 
ATOM      2  C   UNL     1       2.329   5.169  21.114  0.00  0.00    +0.000 A 
ATOM      3  C   UNL     1       2.475   3.781  20.867  0.00  0.00    +0.000 A 
ATOM      4  C   UNL     1       2.338   3.612  19.510  0.00  0.00    +0.000 A 
ATOM      5  O   UNL     1       2.131   4.820  18.909  0.00  0.00    +0.000 OA
ENDROOT
BRANCH   1  10
ATOM      6  C   UNL     1      -0.110  10.211  21.535  0.00  0.00    +0.000 A 
ATOM      7  C   UNL     1       0.088   8.987  22.150  0.00  0.00    +0.000 A 
ATOM      8  C   UNL     1       0.803   7.987  21.488  0.00  0.00    +0.000 A 
ATOM      9  C   UNL     1       1.321   8.168  20.182  0.00  0.00    +0.000 A 
ATOM     10  C   UNL     1       2.006   7.160  19.439  0.00  0.00    +0.000 A 
ATOM     11  C   UNL     1       2.549   7.474  18.179  0.00  0.00    +0.000 A 
ATOM     12  C   UNL     1       2.394   8.739  17.625  0.00  0.00    +0.000 A 
ATOM     13  C   UNL     1       1.683   9.713  18.320  0.00  0.00    +0.000 A 
ATOM     14  C   UNL     1       1.144   9.447  19.588  0.00  0.00    +0.000 A 
ATOM     15  C   UNL     1       0.425  10.444  20.270  0.00  0.00    +0.000 A 
ENDBRANCH   1  10
BRANCH   4  16
ATOM     16  C   UNL     1       2.459   2.434  18.608  0.00  0.00    +0.000 C 
BRANCH  16  17
ATOM     17  N   UNL     1       2.834   2.807  17.240  0.00  0.00    +0.000 NA
ATOM     18  H   UNL     1       2.246   3.599  16.971  0.00  0.00    +0.000 HD
BRANCH  17  19
ATOM     19  C   UNL     1       4.244   3.222  17.145  0.00  0.00    +0.000 C 
BRANCH  19  20
ATOM     20  C   UNL     1       4.336   4.668  16.649  0.00  0.00    +0.000 C 
BRANCH  20  21
ATOM     21  C   UNL     1       5.566   4.924  15.835  0.00  0.00    +0.000 A 
ATOM     22  C   UNL     1       6.693   5.610  16.244  0.00  0.00    +0.000 A 
ATOM     23  N   UNL     1       7.612   5.570  15.230  0.00  0.00    +0.000 N 
ATOM     24  C   UNL     1       7.103   4.886  14.151  0.00  0.00    +0.000 A 
ATOM     25  C   UNL     1       7.685   4.591  12.912  0.00  0.00    +0.000 A 
ATOM     26  C   UNL     1       6.919   3.872  11.991  0.00  0.00    +0.000 A 
ATOM     27  C   UNL     1       5.622   3.468  12.297  0.00  0.00    +0.000 A 
ATOM     28  C   UNL     1       5.058   3.765  13.544  0.00  0.00    +0.000 A 
ATOM     29  C   UNL     1       5.812   4.484  14.493  0.00  0.00    +0.000 A 
ATOM     30  H   UNL     1       8.536   5.976  15.266  0.00  0.00    +0.000 HD
ENDBRANCH  20  21
ENDBRANCH  19  20
ENDBRANCH  17  19
ENDBRANCH  16  17
ENDBRANCH   4  16
TORSDOF 6
ENDMDL
