MODEL 1
REMARK VINA RESULT:      -8.3      0.000      0.000
REMARK  Name = 
REMARK  8 active torsions:
REMARK  status: ('A' for Active; 'I' for Inactive)
REMARK    1  A    between atoms: C_1  and  N_2
REMARK    2  A    between atoms: N_2  and  C_3
REMARK    3  A    between atoms: C_4  and  O_6
REMARK    4  A    between atoms: O_6  and  C_7
REMARK    5  A    between atoms: C_10  and  C_11
REMARK    6  A    between atoms: C_14  and  N_15
REMARK    7  A    between atoms: C_16  and  C_18
REMARK    8  A    between atoms: N_28  and  C_29
REMARK                            x       y       z     vdW  Elec       q    Type
REMARK                         _______ _______ _______ _____ _____    ______ ____
ROOT
ATOM      1  C   UNL     1       2.548   6.346  18.740  0.00  0.00    +0.000 A 
ATOM      2  C   UNL     1       3.221   5.702  17.711  0.00  0.00    +0.000 A 
ATOM      3  N   UNL     1       3.496   4.398  18.106  0.00  0.00    +0.000 N 
ATOM      4  C   UNL     1       4.201   3.372  17.452  0.00  0.00    +0.000 A 
ATOM      5  C   UNL     1       4.246   2.189  18.101  0.00  0.00    +0.000 A 
ATOM      6  C   UNL     1       3.643   1.923  19.392  0.00  0.00    +0.000 A 
ATOM      7  C   UNL     1       2.995   2.905  20.026  0.00  0.00    +0.000 A 
ATOM      8  C   UNL     1       2.932   4.215  19.322  0.00  0.00    +0.000 A 
ATOM      9  N   UNL     1       2.348   5.356  19.717  0.00  0.00    +0.000 N 
ATOM     10  C   UNL     1       1.508   5.482  20.909  0.00  0.00    +0.000 C 
ENDROOT
BRANCH   1  14
ATOM     11  C   UNL     1       1.342  10.478  18.916  0.00  0.00    +0.000 A 
ATOM     12  C   UNL     1       2.039  10.014  17.801  0.00  0.00    +0.000 A 
ATOM     13  C   UNL     1       2.439   8.669  17.735  0.00  0.00    +0.000 A 
ATOM     14  C   UNL     1       2.130   7.793  18.783  0.00  0.00    +0.000 A 
ATOM     15  C   UNL     1       1.443   8.280  19.902  0.00  0.00    +0.000 A 
ATOM     16  C   UNL     1       1.061   9.619  19.975  0.00  0.00    +0.000 A 
BRANCH  11  17
ATOM     17  O   UNL     1       1.071  11.858  18.998  0.00  0.00    +0.000 OA
BRANCH  17  21
ATOM     18  C   UNL     1       3.363  14.218  20.608  0.00  0.00    +0.000 C 
ATOM     19  N   UNL     1       2.603  13.489  19.611  0.00  0.00    +0.000 N 
ATOM     20  C   UNL     1       2.939  13.644  18.208  0.00  0.00    +0.000 C 
ATOM     21  C   UNL     1       1.641  12.589  20.047  0.00  0.00    +0.000 C 
ATOM     22  O   UNL     1       1.356  12.426  21.230  0.00  0.00    +0.000 OA
ENDBRANCH  17  21
ENDBRANCH  11  17
ENDBRANCH   1  14
BRANCH   4  23
ATOM     23  N   UNL     1       4.811   3.604  16.233  0.00  0.00    +0.000 N 
ATOM     24  C   UNL     1       6.110   4.076  16.044  0.00  0.00    +0.000 C 
ATOM     25  O   UNL     1       6.906   4.331  16.940  0.00  0.00    +0.000 OA
ATOM     26  H   UNL     1       4.249   3.500  15.407  0.00  0.00    +0.000 HD
BRANCH  24  27
ATOM     27  C   UNL     1       6.552   4.327  14.643  0.00  0.00    +0.000 A 
ATOM     28  C   UNL     1       5.901   3.611  13.621  0.00  0.00    +0.000 A 
ATOM     29  C   UNL     1       6.254   3.805  12.287  0.00  0.00    +0.000 A 
ATOM     30  C   UNL     1       7.252   4.719  11.961  0.00  0.00    +0.000 A 
ATOM     31  C   UNL     1       7.886   5.451  12.967  0.00  0.00    +0.000 A 
ATOM     32  C   UNL     1       7.535   5.261  14.308  0.00  0.00    +0.000 A 
ENDBRANCH  24  27
ENDBRANCH   4  23
TORSDOF 5
ENDMDL
MODEL 2
REMARK VINA RESULT:      -8.3      1.291      1.928
REMARK  Name = 
REMARK  8 active torsions:
REMARK  status: ('A' for Active; 'I' for Inactive)
REMARK    1  A    between atoms: C_1  and  N_2
REMARK    2  A    between atoms: N_2  and  C_3
REMARK    3  A    between atoms: C_4  and  O_6
REMARK    4  A    between atoms: O_6  and  C_7
REMARK    5  A    between atoms: C_10  and  C_11
REMARK    6  A    between atoms: C_14  and  N_15
REMARK    7  A    between atoms: C_16  and  C_18
REMARK    8  A    between atoms: N_28  and  C_29
REMARK                            x       y       z     vdW  Elec       q    Type
REMARK                         _______ _______ _______ _____ _____    ______ ____
ROOT
ATOM      1  C   UNL     1       2.576   6.203  18.779  0.00  0.00    +0.000 A 
ATOM      2  C   UNL     1       3.252   5.569  17.747  0.00  0.00    +0.000 A 
ATOM      3  N   UNL     1       3.522   4.260  18.128  0.00  0.00    +0.000 N 
ATOM      4  C   UNL     1       4.227   3.240  17.467  0.00  0.00    +0.000 A 
ATOM      5  C   UNL     1       4.265   2.049  18.104  0.00  0.00    +0.000 A 
ATOM      6  C   UNL     1       3.655   1.771  19.388  0.00  0.00    +0.000 A 
ATOM      7  C   UNL     1       3.007   2.748  20.030  0.00  0.00    +0.000 A 
ATOM      8  C   UNL     1       2.951   4.065  19.339  0.00  0.00    +0.000 A 
ATOM      9  N   UNL     1       2.368   5.204  19.745  0.00  0.00    +0.000 N 
ATOM     10  C   UNL     1       1.522   5.318  20.933  0.00  0.00    +0.000 C 
ENDROOT
BRANCH   1  14
ATOM     11  C   UNL     1       1.392  10.345  18.887  0.00  0.00    +0.000 A 
ATOM     12  C   UNL     1       1.198   9.546  20.014  0.00  0.00    +0.000 A 
ATOM     13  C   UNL     1       1.578   8.194  19.988  0.00  0.00    +0.000 A 
ATOM     14  C   UNL     1       2.161   7.651  18.836  0.00  0.00    +0.000 A 
ATOM     15  C   UNL     1       2.333   8.463  17.708  0.00  0.00    +0.000 A 
ATOM     16  C   UNL     1       1.940   9.801  17.728  0.00  0.00    +0.000 A 
BRANCH  11  17
ATOM     17  O   UNL     1       0.883  11.658  18.913  0.00  0.00    +0.000 OA
BRANCH  17  21
ATOM     18  C   UNL     1      -2.397  12.686  20.176  0.00  0.00    +0.000 C 
ATOM     19  N   UNL     1      -0.965  12.543  20.001  0.00  0.00    +0.000 N 
ATOM     20  C   UNL     1      -0.070  13.048  21.025  0.00  0.00    +0.000 C 
ATOM     21  C   UNL     1      -0.505  11.836  18.899  0.00  0.00    +0.000 C 
ATOM     22  O   UNL     1      -1.246  11.381  18.032  0.00  0.00    +0.000 OA
ENDBRANCH  17  21
ENDBRANCH  11  17
ENDBRANCH   1  14
BRANCH   4  23
ATOM     23  N   UNL     1       4.845   3.483  16.254  0.00  0.00    +0.000 N 
ATOM     24  C   UNL     1       6.112   4.039  16.076  0.00  0.00    +0.000 C 
ATOM     25  O   UNL     1       6.870   4.370  16.980  0.00  0.00    +0.000 OA
ATOM     26  H   UNL     1       4.307   3.321  15.421  0.00  0.00    +0.000 HD
BRANCH  24  27
ATOM     27  C   UNL     1       6.563   4.285  14.678  0.00  0.00    +0.000 A 
ATOM     28  C   UNL     1       5.935   3.549  13.655  0.00  0.00    +0.000 A 
ATOM     29  C   UNL     1       6.298   3.738  12.323  0.00  0.00    +0.000 A 
ATOM     30  C   UNL     1       7.283   4.666  11.999  0.00  0.00    +0.000 A 
ATOM     31  C   UNL     1       7.894   5.418  13.006  0.00  0.00    +0.000 A 
ATOM     32  C   UNL     1       7.533   5.234  14.344  0.00  0.00    +0.000 A 
ENDBRANCH  24  27
ENDBRANCH   4  23
TORSDOF 5
ENDMDL
MODEL 3
REMARK VINA RESULT:      -8.3      1.014      1.582
REMARK  Name = 
REMARK  8 active torsions:
REMARK  status: ('A' for Active; 'I' for Inactive)
REMARK    1  A    between atoms: C_1  and  N_2
REMARK    2  A    between atoms: N_2  and  C_3
REMARK    3  A    between atoms: C_4  and  O_6
REMARK    4  A    between atoms: O_6  and  C_7
REMARK    5  A    between atoms: C_10  and  C_11
REMARK    6  A    between atoms: C_14  and  N_15
REMARK    7  A    between atoms: C_16  and  C_18
REMARK    8  A    between atoms: N_28  and  C_29
REMARK                            x       y       z     vdW  Elec       q    Type
REMARK                         _______ _______ _______ _____ _____    ______ ____
ROOT
ATOM      1  C   UNL     1       2.531   6.197  18.759  0.00  0.00    +0.000 A 
ATOM      2  C   UNL     1       3.208   5.584  17.714  0.00  0.00    +0.000 A 
ATOM      3  N   UNL     1       3.439   4.256  18.051  0.00  0.00    +0.000 N 
ATOM      4  C   UNL     1       4.130   3.243  17.364  0.00  0.00    +0.000 A 
ATOM      5  C   UNL     1       4.130   2.030  17.957  0.00  0.00    +0.000 A 
ATOM      6  C   UNL     1       3.493   1.720  19.221  0.00  0.00    +0.000 A 
ATOM      7  C   UNL     1       2.858   2.689  19.889  0.00  0.00    +0.000 A 
ATOM      8  C   UNL     1       2.846   4.032  19.246  0.00  0.00    +0.000 A 
ATOM      9  N   UNL     1       2.284   5.169  19.684  0.00  0.00    +0.000 N 
ATOM     10  C   UNL     1       1.422   5.262  20.864  0.00  0.00    +0.000 C 
ENDROOT
BRANCH   1  14
ATOM     11  C   UNL     1       1.446  10.360  19.000  0.00  0.00    +0.000 A 
ATOM     12  C   UNL     1       1.219   9.527  20.096  0.00  0.00    +0.000 A 
ATOM     13  C   UNL     1       1.567   8.168  20.027  0.00  0.00    +0.000 A 
ATOM     14  C   UNL     1       2.150   7.652  18.862  0.00  0.00    +0.000 A 
ATOM     15  C   UNL     1       2.355   8.499  17.766  0.00  0.00    +0.000 A 
ATOM     16  C   UNL     1       1.995   9.845  17.830  0.00  0.00    +0.000 A 
BRANCH  11  17
ATOM     17  O   UNL     1       0.968  11.684  19.067  0.00  0.00    +0.000 OA
BRANCH  17  21
ATOM     18  C   UNL     1      -0.450  13.412  21.967  0.00  0.00    +0.000 C 
ATOM     19  N   UNL     1      -0.312  12.626  20.756  0.00  0.00    +0.000 N 
ATOM     20  C   UNL     1      -1.499  12.266  20.004  0.00  0.00    +0.000 C 
ATOM     21  C   UNL     1       0.967  12.332  20.308  0.00  0.00    +0.000 C 
ATOM     22  O   UNL     1       1.986  12.647  20.917  0.00  0.00    +0.000 OA
ENDBRANCH  17  21
ENDBRANCH  11  17
ENDBRANCH   1  14
BRANCH   4  23
ATOM     23  N   UNL     1       4.772   3.515  16.170  0.00  0.00    +0.000 N 
ATOM     24  C   UNL     1       6.069   4.010  16.030  0.00  0.00    +0.000 C 
ATOM     25  O   UNL     1       6.835   4.252  16.956  0.00  0.00    +0.000 OA
ATOM     26  H   UNL     1       4.235   3.425  15.325  0.00  0.00    +0.000 HD
BRANCH  24  27
ATOM     27  C   UNL     1       6.547   4.303  14.650  0.00  0.00    +0.000 A 
ATOM     28  C   UNL     1       5.958   3.582  13.594  0.00  0.00    +0.000 A 
ATOM     29  C   UNL     1       6.347   3.814  12.276  0.00  0.00    +0.000 A 
ATOM     30  C   UNL     1       7.320   4.771  12.000  0.00  0.00    +0.000 A 
ATOM     31  C   UNL     1       7.892   5.507  13.040  0.00  0.00    +0.000 A 
ATOM     32  C   UNL     1       7.504   5.280  14.365  0.00  0.00    +0.000 A 
ENDBRANCH  24  27
ENDBRANCH   4  23
TORSDOF 5
ENDMDL
MODEL 4
REMARK VINA RESULT:      -8.2      1.171      1.792
REMARK  Name = 
REMARK  8 active torsions:
REMARK  status: ('A' for Active; 'I' for Inactive)
REMARK    1  A    between atoms: C_1  and  N_2
REMARK    2  A    between atoms: N_2  and  C_3
REMARK    3  A    between atoms: C_4  and  O_6
REMARK    4  A    between atoms: O_6  and  C_7
REMARK    5  A    between atoms: C_10  and  C_11
REMARK    6  A    between atoms: C_14  and  N_15
REMARK    7  A    between atoms: C_16  and  C_18
REMARK    8  A    between atoms: N_28  and  C_29
REMARK                            x       y       z     vdW  Elec       q    Type
REMARK                         _______ _______ _______ _____ _____    ______ ____
ROOT
ATOM      1  C   UNL     1       2.513   6.337  18.770  0.00  0.00    +0.000 A 
ATOM      2  C   UNL     1       3.159   5.675  17.735  0.00  0.00    +0.000 A 
ATOM      3  N   UNL     1       3.434   4.375  18.140  0.00  0.00    +0.000 N 
ATOM      4  C   UNL     1       4.117   3.336  17.485  0.00  0.00    +0.000 A 
ATOM      5  C   UNL     1       4.169   2.161  18.149  0.00  0.00    +0.000 A 
ATOM      6  C   UNL     1       3.593   1.915  19.456  0.00  0.00    +0.000 A 
ATOM      7  C   UNL     1       2.965   2.910  20.091  0.00  0.00    +0.000 A 
ATOM      8  C   UNL     1       2.896   4.211  19.371  0.00  0.00    +0.000 A 
ATOM      9  N   UNL     1       2.327   5.362  19.764  0.00  0.00    +0.000 N 
ATOM     10  C   UNL     1       1.515   5.508  20.972  0.00  0.00    +0.000 C 
ENDROOT
BRANCH   1  14
ATOM     11  C   UNL     1       1.340  10.480  18.918  0.00  0.00    +0.000 A 
ATOM     12  C   UNL     1       1.944   9.978  17.765  0.00  0.00    +0.000 A 
ATOM     13  C   UNL     1       2.332   8.630  17.707  0.00  0.00    +0.000 A 
ATOM     14  C   UNL     1       2.105   7.787  18.803  0.00  0.00    +0.000 A 
ATOM     15  C   UNL     1       1.513   8.312  19.958  0.00  0.00    +0.000 A 
ATOM     16  C   UNL     1       1.142   9.655  20.021  0.00  0.00    +0.000 A 
BRANCH  11  17
ATOM     17  O   UNL     1       1.083  11.864  18.980  0.00  0.00    +0.000 OA
BRANCH  17  21
ATOM     18  C   UNL     1      -1.958  13.361  20.367  0.00  0.00    +0.000 C 
ATOM     19  N   UNL     1      -0.575  12.973  20.164  0.00  0.00    +0.000 N 
ATOM     20  C   UNL     1       0.392  13.209  21.219  0.00  0.00    +0.000 C 
ATOM     21  C   UNL     1      -0.248  12.295  18.998  0.00  0.00    +0.000 C 
ATOM     22  O   UNL     1      -1.056  12.064  18.102  0.00  0.00    +0.000 OA
ENDBRANCH  17  21
ENDBRANCH  11  17
ENDBRANCH   1  14
BRANCH   4  23
ATOM     23  N   UNL     1       4.703   3.547  16.251  0.00  0.00    +0.000 N 
ATOM     24  C   UNL     1       5.995   4.022  16.026  0.00  0.00    +0.000 C 
ATOM     25  O   UNL     1       6.807   4.297  16.902  0.00  0.00    +0.000 OA
ATOM     26  H   UNL     1       4.124   3.425  15.438  0.00  0.00    +0.000 HD
BRANCH  24  27
ATOM     27  C   UNL     1       6.408   4.248  14.613  0.00  0.00    +0.000 A 
ATOM     28  C   UNL     1       7.458   5.157  14.382  0.00  0.00    +0.000 A 
ATOM     29  C   UNL     1       7.905   5.407  13.086  0.00  0.00    +0.000 A 
ATOM     30  C   UNL     1       7.316   4.747  12.011  0.00  0.00    +0.000 A 
ATOM     31  C   UNL     1       6.290   3.826  12.234  0.00  0.00    +0.000 A 
ATOM     32  C   UNL     1       5.838   3.570  13.533  0.00  0.00    +0.000 A 
ENDBRANCH  24  27
ENDBRANCH   4  23
TORSDOF 5
ENDMDL
MODEL 5
REMARK VINA RESULT:      -8.2      3.204      9.843
REMARK  Name = 
REMARK  8 active torsions:
REMARK  status: ('A' for Active; 'I' for Inactive)
REMARK    1  A    between atoms: C_1  and  N_2
REMARK    2  A    between atoms: N_2  and  C_3
REMARK    3  A    between atoms: C_4  and  O_6
REMARK    4  A    between atoms: O_6  and  C_7
REMARK    5  A    between atoms: C_10  and  C_11
REMARK    6  A    between atoms: C_14  and  N_15
REMARK    7  A    between atoms: C_16  and  C_18
REMARK    8  A    between atoms: N_28  and  C_29
REMARK                            x       y       z     vdW  Elec       q    Type
REMARK                         _______ _______ _______ _____ _____    ______ ____
ROOT
ATOM      1  C   UNL     1       0.807   9.880  20.633  0.00  0.00    +0.000 A 
ATOM      2  C   UNL     1       1.043  11.236  20.450  0.00  0.00    +0.000 A 
ATOM      3  N   UNL     1       0.211  11.952  21.301  0.00  0.00    +0.000 N 
ATOM      4  C   UNL     1       0.029  13.338  21.453  0.00  0.00    +0.000 A 
ATOM      5  C   UNL     1      -0.837  13.711  22.420  0.00  0.00    +0.000 A 
ATOM      6  C   UNL     1      -1.575  12.802  23.275  0.00  0.00    +0.000 A 
ATOM      7  C   UNL     1      -1.422  11.483  23.114  0.00  0.00    +0.000 A 
ATOM      8  C   UNL     1      -0.467  11.056  22.055  0.00  0.00    +0.000 A 
ATOM      9  N   UNL     1      -0.119   9.813  21.687  0.00  0.00    +0.000 N 
ATOM     10  C   UNL     1      -0.535   8.599  22.391  0.00  0.00    +0.000 C 
ENDROOT
BRANCH   1  14
ATOM     11  C   UNL     1       2.576   6.657  18.386  0.00  0.00    +0.000 A 
ATOM     12  C   UNL     1       2.346   6.496  19.752  0.00  0.00    +0.000 A 
ATOM     13  C   UNL     1       1.772   7.541  20.494  0.00  0.00    +0.000 A 
ATOM     14  C   UNL     1       1.422   8.741  19.862  0.00  0.00    +0.000 A 
ATOM     15  C   UNL     1       1.676   8.892  18.493  0.00  0.00    +0.000 A 
ATOM     16  C   UNL     1       2.261   7.860  17.760  0.00  0.00    +0.000 A 
BRANCH  11  17
ATOM     17  O   UNL     1       3.267   5.634  17.708  0.00  0.00    +0.000 OA
BRANCH  17  21
ATOM     18  C   UNL     1       3.272   2.023  18.317  0.00  0.00    +0.000 C 
ATOM     19  N   UNL     1       3.632   3.428  18.324  0.00  0.00    +0.000 N 
ATOM     20  C   UNL     1       4.933   3.826  18.829  0.00  0.00    +0.000 C 
ATOM     21  C   UNL     1       2.750   4.335  17.754  0.00  0.00    +0.000 C 
ATOM     22  O   UNL     1       1.654   4.017  17.301  0.00  0.00    +0.000 OA
ENDBRANCH  17  21
ENDBRANCH  11  17
ENDBRANCH   1  14
BRANCH   4  23
ATOM     23  N   UNL     1       0.696  14.229  20.633  0.00  0.00    +0.000 N 
ATOM     24  C   UNL     1       0.376  14.520  19.307  0.00  0.00    +0.000 C 
ATOM     25  O   UNL     1      -0.564  14.039  18.686  0.00  0.00    +0.000 OA
ATOM     26  H   UNL     1       1.534  14.650  20.993  0.00  0.00    +0.000 HD
BRANCH  24  27
ATOM     27  C   UNL     1       1.270  15.461  18.576  0.00  0.00    +0.000 A 
ATOM     28  C   UNL     1       2.513  14.966  18.139  0.00  0.00    +0.000 A 
ATOM     29  C   UNL     1       3.394  15.786  17.437  0.00  0.00    +0.000 A 
ATOM     30  C   UNL     1       3.040  17.104  17.158  0.00  0.00    +0.000 A 
ATOM     31  C   UNL     1       1.798  17.595  17.567  0.00  0.00    +0.000 A 
ATOM     32  C   UNL     1       0.909  16.776  18.271  0.00  0.00    +0.000 A 
ENDBRANCH  24  27
ENDBRANCH   4  23
TORSDOF 5
ENDMDL
MODEL 6
REMARK VINA RESULT:      -8.1      0.631      1.567
REMARK  Name = 
REMARK  8 active torsions:
REMARK  status: ('A' for Active; 'I' for Inactive)
REMARK    1  A    between atoms: C_1  and  N_2
REMARK    2  A    between atoms: N_2  and  C_3
REMARK    3  A    between atoms: C_4  and  O_6
REMARK    4  A    between atoms: O_6  and  C_7
REMARK    5  A    between atoms: C_10  and  C_11
REMARK    6  A    between atoms: C_14  and  N_15
REMARK    7  A    between atoms: C_16  and  C_18
REMARK    8  A    between atoms: N_28  and  C_29
REMARK                            x       y       z     vdW  Elec       q    Type
REMARK                         _______ _______ _______ _____ _____    ______ ____
ROOT
ATOM      1  C   UNL     1       2.566   6.304  18.765  0.00  0.00    +0.000 A 
ATOM      2  C   UNL     1       3.207   5.645  17.726  0.00  0.00    +0.000 A 
ATOM      3  N   UNL     1       3.469   4.338  18.120  0.00  0.00    +0.000 N 
ATOM      4  C   UNL     1       4.143   3.299  17.457  0.00  0.00    +0.000 A 
ATOM      5  C   UNL     1       4.182   2.117  18.110  0.00  0.00    +0.000 A 
ATOM      6  C   UNL     1       3.602   1.866  19.414  0.00  0.00    +0.000 A 
ATOM      7  C   UNL     1       2.983   2.862  20.057  0.00  0.00    +0.000 A 
ATOM      8  C   UNL     1       2.927   4.170  19.348  0.00  0.00    +0.000 A 
ATOM      9  N   UNL     1       2.369   5.322  19.751  0.00  0.00    +0.000 N 
ATOM     10  C   UNL     1       1.556   5.466  20.959  0.00  0.00    +0.000 C 
ENDROOT
BRANCH   1  14
ATOM     11  C   UNL     1       1.446  10.464  18.840  0.00  0.00    +0.000 A 
ATOM     12  C   UNL     1       1.147   9.653  19.934  0.00  0.00    +0.000 A 
ATOM     13  C   UNL     1       1.506   8.295  19.919  0.00  0.00    +0.000 A 
ATOM     14  C   UNL     1       2.171   7.758  18.810  0.00  0.00    +0.000 A 
ATOM     15  C   UNL     1       2.449   8.582  17.713  0.00  0.00    +0.000 A 
ATOM     16  C   UNL     1       2.078   9.927  17.722  0.00  0.00    +0.000 A 
BRANCH  11  17
ATOM     17  O   UNL     1       0.958  11.785  18.844  0.00  0.00    +0.000 OA
BRANCH  17  21
ATOM     18  C   UNL     1       2.502  14.719  20.400  0.00  0.00    +0.000 C 
ATOM     19  N   UNL     1       1.704  13.528  20.181  0.00  0.00    +0.000 N 
ATOM     20  C   UNL     1       0.692  13.162  21.154  0.00  0.00    +0.000 C 
ATOM     21  C   UNL     1       1.873  12.835  18.991  0.00  0.00    +0.000 C 
ATOM     22  O   UNL     1       2.707  13.141  18.144  0.00  0.00    +0.000 OA
ENDBRANCH  17  21
ENDBRANCH  11  17
ENDBRANCH   1  14
BRANCH   4  23
ATOM     23  N   UNL     1       4.733   3.515  16.225  0.00  0.00    +0.000 N 
ATOM     24  C   UNL     1       6.014   4.021  16.007  0.00  0.00    +0.000 C 
ATOM     25  O   UNL     1       6.812   4.324  16.886  0.00  0.00    +0.000 OA
ATOM     26  H   UNL     1       4.164   3.372  15.409  0.00  0.00    +0.000 HD
BRANCH  24  27
ATOM     27  C   UNL     1       6.432   4.246  14.595  0.00  0.00    +0.000 A 
ATOM     28  C   UNL     1       7.477   5.162  14.367  0.00  0.00    +0.000 A 
ATOM     29  C   UNL     1       7.928   5.412  13.072  0.00  0.00    +0.000 A 
ATOM     30  C   UNL     1       7.349   4.745  11.997  0.00  0.00    +0.000 A 
ATOM     31  C   UNL     1       6.329   3.816  12.217  0.00  0.00    +0.000 A 
ATOM     32  C   UNL     1       5.872   3.561  13.514  0.00  0.00    +0.000 A 
ENDBRANCH  24  27
ENDBRANCH   4  23
TORSDOF 5
ENDMDL
MODEL 7
REMARK VINA RESULT:      -8.1      3.288      9.855
REMARK  Name = 
REMARK  8 active torsions:
REMARK  status: ('A' for Active; 'I' for Inactive)
REMARK    1  A    between atoms: C_1  and  N_2
REMARK    2  A    between atoms: N_2  and  C_3
REMARK    3  A    between atoms: C_4  and  O_6
REMARK    4  A    between atoms: O_6  and  C_7
REMARK    5  A    between atoms: C_10  and  C_11
REMARK    6  A    between atoms: C_14  and  N_15
REMARK    7  A    between atoms: C_16  and  C_18
REMARK    8  A    between atoms: N_28  and  C_29
REMARK                            x       y       z     vdW  Elec       q    Type
REMARK                         _______ _______ _______ _____ _____    ______ ____
ROOT
ATOM      1  C   UNL     1       0.827   9.877  20.598  0.00  0.00    +0.000 A 
ATOM      2  C   UNL     1       1.050  11.235  20.421  0.00  0.00    +0.000 A 
ATOM      3  N   UNL     1       0.203  11.941  21.267  0.00  0.00    +0.000 N 
ATOM      4  C   UNL     1       0.005  13.324  21.421  0.00  0.00    +0.000 A 
ATOM      5  C   UNL     1      -0.874  13.685  22.380  0.00  0.00    +0.000 A 
ATOM      6  C   UNL     1      -1.611  12.766  23.225  0.00  0.00    +0.000 A 
ATOM      7  C   UNL     1      -1.443  11.450  23.061  0.00  0.00    +0.000 A 
ATOM      8  C   UNL     1      -0.473  11.035  22.010  0.00  0.00    +0.000 A 
ATOM      9  N   UNL     1      -0.110   9.797  21.642  0.00  0.00    +0.000 N 
ATOM     10  C   UNL     1      -0.519   8.576  22.339  0.00  0.00    +0.000 C 
ENDROOT
BRANCH   1  14
ATOM     11  C   UNL     1       2.627   6.611  18.440  0.00  0.00    +0.000 A 
ATOM     12  C   UNL     1       2.329   7.797  17.768  0.00  0.00    +0.000 A 
ATOM     13  C   UNL     1       1.740   8.867  18.462  0.00  0.00    +0.000 A 
ATOM     14  C   UNL     1       1.461   8.747  19.829  0.00  0.00    +0.000 A 
ATOM     15  C   UNL     1       1.751   7.544  20.484  0.00  0.00    +0.000 A 
ATOM     16  C   UNL     1       2.321   6.476  19.791  0.00  0.00    +0.000 A 
BRANCH  11  17
ATOM     17  O   UNL     1       3.099   5.523  17.680  0.00  0.00    +0.000 OA
BRANCH  17  21
ATOM     18  C   UNL     1       2.752   1.963  18.467  0.00  0.00    +0.000 C 
ATOM     19  N   UNL     1       3.256   3.321  18.393  0.00  0.00    +0.000 N 
ATOM     20  C   UNL     1       4.610   3.601  18.833  0.00  0.00    +0.000 C 
ATOM     21  C   UNL     1       2.452   4.289  17.808  0.00  0.00    +0.000 C 
ATOM     22  O   UNL     1       1.312   4.068  17.408  0.00  0.00    +0.000 OA
ENDBRANCH  17  21
ENDBRANCH  11  17
ENDBRANCH   1  14
BRANCH   4  23
ATOM     23  N   UNL     1       0.671  14.225  20.610  0.00  0.00    +0.000 N 
ATOM     24  C   UNL     1       0.381  14.494  19.272  0.00  0.00    +0.000 C 
ATOM     25  O   UNL     1      -0.528  13.981  18.631  0.00  0.00    +0.000 OA
ATOM     26  H   UNL     1       1.487  14.671  20.989  0.00  0.00    +0.000 HD
BRANCH  24  27
ATOM     27  C   UNL     1       1.270  15.451  18.557  0.00  0.00    +0.000 A 
ATOM     28  C   UNL     1       0.764  16.740  18.305  0.00  0.00    +0.000 A 
ATOM     29  C   UNL     1       1.545  17.692  17.652  0.00  0.00    +0.000 A 
ATOM     30  C   UNL     1       2.839  17.368  17.252  0.00  0.00    +0.000 A 
ATOM     31  C   UNL     1       3.357  16.099  17.520  0.00  0.00    +0.000 A 
ATOM     32  C   UNL     1       2.578  15.141  18.176  0.00  0.00    +0.000 A 
ENDBRANCH  24  27
ENDBRANCH   4  23
TORSDOF 5
ENDMDL
MODEL 8
REMARK VINA RESULT:      -8.1      3.250     10.094
REMARK  Name = 
REMARK  8 active torsions:
REMARK  status: ('A' for Active; 'I' for Inactive)
REMARK    1  A    between atoms: C_1  and  N_2
REMARK    2  A    between atoms: N_2  and  C_3
REMARK    3  A    between atoms: C_4  and  O_6
REMARK    4  A    between atoms: O_6  and  C_7
REMARK    5  A    between atoms: C_10  and  C_11
REMARK    6  A    between atoms: C_14  and  N_15
REMARK    7  A    between atoms: C_16  and  C_18
REMARK    8  A    between atoms: N_28  and  C_29
REMARK                            x       y       z     vdW  Elec       q    Type
REMARK                         _______ _______ _______ _____ _____    ______ ____
ROOT
ATOM      1  C   UNL     1       0.664  10.160  20.481  0.00  0.00    +0.000 A 
ATOM      2  C   UNL     1       0.714  11.497  20.112  0.00  0.00    +0.000 A 
ATOM      3  N   UNL     1      -0.083  12.229  20.983  0.00  0.00    +0.000 N 
ATOM      4  C   UNL     1      -0.406  13.597  20.999  0.00  0.00    +0.000 A 
ATOM      5  C   UNL     1      -1.181  14.003  22.029  0.00  0.00    +0.000 A 
ATOM      6  C   UNL     1      -1.692  13.142  23.077  0.00  0.00    +0.000 A 
ATOM      7  C   UNL     1      -1.406  11.837  23.048  0.00  0.00    +0.000 A 
ATOM      8  C   UNL     1      -0.549  11.374  21.922  0.00  0.00    +0.000 A 
ATOM      9  N   UNL     1      -0.107  10.135  21.655  0.00  0.00    +0.000 N 
ATOM     10  C   UNL     1      -0.284   8.987  22.544  0.00  0.00    +0.000 C 
ENDROOT
BRANCH   1  14
ATOM     11  C   UNL     1       2.508   6.871  18.395  0.00  0.00    +0.000 A 
ATOM     12  C   UNL     1       2.324   6.792  19.775  0.00  0.00    +0.000 A 
ATOM     13  C   UNL     1       1.726   7.859  20.465  0.00  0.00    +0.000 A 
ATOM     14  C   UNL     1       1.306   8.998  19.767  0.00  0.00    +0.000 A 
ATOM     15  C   UNL     1       1.514   9.068  18.383  0.00  0.00    +0.000 A 
ATOM     16  C   UNL     1       2.123   8.014  17.701  0.00  0.00    +0.000 A 
BRANCH  11  17
ATOM     17  O   UNL     1       3.224   5.835  17.764  0.00  0.00    +0.000 OA
BRANCH  17  21
ATOM     18  C   UNL     1       3.220   2.219  18.347  0.00  0.00    +0.000 C 
ATOM     19  N   UNL     1       3.587   3.622  18.359  0.00  0.00    +0.000 N 
ATOM     20  C   UNL     1       4.899   4.010  18.843  0.00  0.00    +0.000 C 
ATOM     21  C   UNL     1       2.701   4.537  17.810  0.00  0.00    +0.000 C 
ATOM     22  O   UNL     1       1.596   4.228  17.373  0.00  0.00    +0.000 OA
ENDBRANCH  17  21
ENDBRANCH  11  17
ENDBRANCH   1  14
BRANCH   4  23
ATOM     23  N   UNL     1       0.042  14.438  19.997  0.00  0.00    +0.000 N 
ATOM     24  C   UNL     1       1.236  15.160  20.005  0.00  0.00    +0.000 C 
ATOM     25  O   UNL     1       2.072  15.131  20.901  0.00  0.00    +0.000 OA
ATOM     26  H   UNL     1      -0.579  14.610  19.226  0.00  0.00    +0.000 HD
BRANCH  24  27
ATOM     27  C   UNL     1       1.497  16.068  18.853  0.00  0.00    +0.000 A 
ATOM     28  C   UNL     1       0.488  16.987  18.511  0.00  0.00    +0.000 A 
ATOM     29  C   UNL     1       0.670  17.875  17.452  0.00  0.00    +0.000 A 
ATOM     30  C   UNL     1       1.861  17.860  16.733  0.00  0.00    +0.000 A 
ATOM     31  C   UNL     1       2.877  16.967  17.082  0.00  0.00    +0.000 A 
ATOM     32  C   UNL     1       2.701  16.074  18.144  0.00  0.00    +0.000 A 
ENDBRANCH  24  27
ENDBRANCH   4  23
TORSDOF 5
ENDMDL
MODEL 9
REMARK VINA RESULT:      -8.1      3.456     10.331
REMARK  Name = 
REMARK  8 active torsions:
REMARK  status: ('A' for Active; 'I' for Inactive)
REMARK    1  A    between atoms: C_1  and  N_2
REMARK    2  A    between atoms: N_2  and  C_3
REMARK    3  A    between atoms: C_4  and  O_6
REMARK    4  A    between atoms: O_6  and  C_7
REMARK    5  A    between atoms: C_10  and  C_11
REMARK    6  A    between atoms: C_14  and  N_15
REMARK    7  A    between atoms: C_16  and  C_18
REMARK    8  A    between atoms: N_28  and  C_29
REMARK                            x       y       z     vdW  Elec       q    Type
REMARK                         _______ _______ _______ _____ _____    ______ ____
ROOT
ATOM      1  C   UNL     1       0.487  10.327  20.455  0.00  0.00    +0.000 A 
ATOM      2  C   UNL     1       0.451  11.661  20.074  0.00  0.00    +0.000 A 
ATOM      3  N   UNL     1      -0.389  12.350  20.940  0.00  0.00    +0.000 N 
ATOM      4  C   UNL     1      -0.798  13.694  20.944  0.00  0.00    +0.000 A 
ATOM      5  C   UNL     1      -1.596  14.060  21.970  0.00  0.00    +0.000 A 
ATOM      6  C   UNL     1      -2.051  13.178  23.027  0.00  0.00    +0.000 A 
ATOM      7  C   UNL     1      -1.684  11.893  23.009  0.00  0.00    +0.000 A 
ATOM      8  C   UNL     1      -0.800  11.475  21.886  0.00  0.00    +0.000 A 
ATOM      9  N   UNL     1      -0.281  10.264  21.629  0.00  0.00    +0.000 N 
ATOM     10  C   UNL     1      -0.385   9.115  22.530  0.00  0.00    +0.000 C 
ENDROOT
BRANCH   1  14
ATOM     11  C   UNL     1       2.518   7.078  18.483  0.00  0.00    +0.000 A 
ATOM     12  C   UNL     1       2.114   8.187  17.740  0.00  0.00    +0.000 A 
ATOM     13  C   UNL     1       1.449   9.251  18.372  0.00  0.00    +0.000 A 
ATOM     14  C   UNL     1       1.200   9.202  19.750  0.00  0.00    +0.000 A 
ATOM     15  C   UNL     1       1.598   8.073  20.477  0.00  0.00    +0.000 A 
ATOM     16  C   UNL     1       2.244   7.011  19.846  0.00  0.00    +0.000 A 
BRANCH  11  17
ATOM     17  O   UNL     1       3.067   5.983  17.788  0.00  0.00    +0.000 OA
BRANCH  17  21
ATOM     18  C   UNL     1       2.720   2.410  18.514  0.00  0.00    +0.000 C 
ATOM     19  N   UNL     1       3.217   3.772  18.474  0.00  0.00    +0.000 N 
ATOM     20  C   UNL     1       4.557   4.053  18.954  0.00  0.00    +0.000 C 
ATOM     21  C   UNL     1       2.424   4.743  17.881  0.00  0.00    +0.000 C 
ATOM     22  O   UNL     1       1.297   4.522  17.447  0.00  0.00    +0.000 OA
ENDBRANCH  17  21
ENDBRANCH  11  17
ENDBRANCH   1  14
BRANCH   4  23
ATOM     23  N   UNL     1      -0.404  14.553  19.934  0.00  0.00    +0.000 N 
ATOM     24  C   UNL     1       0.463  15.637  20.070  0.00  0.00    +0.000 C 
ATOM     25  O   UNL     1       1.021  15.967  21.110  0.00  0.00    +0.000 OA
ATOM     26  H   UNL     1      -0.839  14.439  19.035  0.00  0.00    +0.000 HD
BRANCH  24  27
ATOM     27  C   UNL     1       0.701  16.481  18.866  0.00  0.00    +0.000 A 
ATOM     28  C   UNL     1      -0.405  17.160  18.322  0.00  0.00    +0.000 A 
ATOM     29  C   UNL     1      -0.253  17.978  17.204  0.00  0.00    +0.000 A 
ATOM     30  C   UNL     1       1.004  18.134  16.626  0.00  0.00    +0.000 A 
ATOM     31  C   UNL     1       2.111  17.483  17.175  0.00  0.00    +0.000 A 
ATOM     32  C   UNL     1       1.965  16.662  18.298  0.00  0.00    +0.000 A 
ENDBRANCH  24  27
ENDBRANCH   4  23
TORSDOF 5
ENDMDL
