MODEL 1
REMARK VINA RESULT:      -8.9      0.000      0.000
REMARK  Name = 
REMARK  8 active torsions:
REMARK  status: ('A' for Active; 'I' for Inactive)
REMARK    1  A    between atoms: C_1  and  O_2
REMARK    2  A    between atoms: O_2  and  C_3
REMARK    3  A    between atoms: C_6  and  N_7
REMARK    4  A    between atoms: C_8  and  C_10
REMARK    5  A    between atoms: C_10  and  C_11
REMARK    6  A    between atoms: C_14  and  C_15
REMARK    7  A    between atoms: C_19  and  N_20
REMARK    8  A    between atoms: C_21  and  C_22
REMARK                            x       y       z     vdW  Elec       q    Type
REMARK                         _______ _______ _______ _____ _____    ______ ____
ROOT
ATOM      1  C   UNL     1       7.432   7.265  17.475  0.00  0.00    +0.000 C 
ATOM      2  C   UNL     1       7.727   6.397  18.733  0.00  0.00    +0.000 C 
ATOM      3  C   UNL     1       5.941   7.326  17.179  0.00  0.00    +0.000 C 
ATOM      4  C   UNL     1       5.812   5.939  16.698  0.00  0.00    +0.000 A 
ATOM      5  C   UNL     1       5.036   4.843  17.047  0.00  0.00    +0.000 A 
ATOM      6  C   UNL     1       5.212   3.736  16.193  0.00  0.00    +0.000 A 
ATOM      7  C   UNL     1       6.271   3.705  15.277  0.00  0.00    +0.000 A 
ATOM      8  N   UNL     1       7.225   4.656  15.195  0.00  0.00    +0.000 NA
ATOM      9  C   UNL     1       6.953   5.739  15.928  0.00  0.00    +0.000 A 
ATOM     10  O   UNL     1       7.979   6.661  16.282  0.00  0.00    +0.000 OA
ENDROOT
BRANCH   5  11
ATOM     11  C   UNL     1       4.290   4.715  18.346  0.00  0.00    +0.000 A 
ATOM     12  C   UNL     1       4.166   3.513  19.059  0.00  0.00    +0.000 A 
ATOM     13  C   UNL     1       3.343   3.379  20.180  0.00  0.00    +0.000 A 
ATOM     14  C   UNL     1       2.652   4.475  20.674  0.00  0.00    +0.000 A 
ATOM     15  C   UNL     1       2.742   5.699  20.024  0.00  0.00    +0.000 A 
ATOM     16  C   UNL     1       3.529   5.797  18.858  0.00  0.00    +0.000 A 
BRANCH  15  17
ATOM     17  N   UNL     1       2.069   6.859  20.468  0.00  0.00    +0.000 N 
ATOM     18  C   UNL     1       1.850   8.020  19.743  0.00  0.00    +0.000 C 
ATOM     19  C   UNL     1       1.058   9.049  20.506  0.00  0.00    +0.000 C 
ATOM     20  O   UNL     1       2.194   8.245  18.588  0.00  0.00    +0.000 OA
ATOM     21  H   UNL     1       1.674   6.819  21.397  0.00  0.00    +0.000 HD
ENDBRANCH  15  17
ENDBRANCH   5  11
BRANCH   1  23
ATOM     22  N   UNL     1       8.872   8.826  18.738  0.00  0.00    +0.000 N 
ATOM     23  C   UNL     1       7.803   8.703  17.879  0.00  0.00    +0.000 C 
ATOM     24  O   UNL     1       7.120   9.635  17.461  0.00  0.00    +0.000 OA
ATOM     25  H   UNL     1       9.372   7.976  18.973  0.00  0.00    +0.000 HD
BRANCH  22  29
ATOM     26  C   UNL     1      10.366  12.480  20.085  0.00  0.00    +0.000 A 
ATOM     27  C   UNL     1       9.657  11.711  20.992  0.00  0.00    +0.000 A 
ATOM     28  C   UNL     1       9.153  10.490  20.577  0.00  0.00    +0.000 A 
ATOM     29  C   UNL     1       9.354  10.045  19.261  0.00  0.00    +0.000 A 
ATOM     30  C   UNL     1      10.091  10.896  18.438  0.00  0.00    +0.000 A 
ATOM     31  N   UNL     1      10.599  12.097  18.815  0.00  0.00    +0.000 NA
BRANCH  26  33
ATOM     32  C   UNL     1      11.819  14.261  19.690  0.00  0.00    +0.000 C 
ATOM     33  O   UNL     1      10.835  13.690  20.547  0.00  0.00    +0.000 OA
ENDBRANCH  26  33
ENDBRANCH  22  29
ENDBRANCH   1  23
TORSDOF 5
ENDMDL
MODEL 2
REMARK VINA RESULT:      -8.7      2.826      7.485
REMARK  Name = 
REMARK  8 active torsions:
REMARK  status: ('A' for Active; 'I' for Inactive)
REMARK    1  A    between atoms: C_1  and  O_2
REMARK    2  A    between atoms: O_2  and  C_3
REMARK    3  A    between atoms: C_6  and  N_7
REMARK    4  A    between atoms: C_8  and  C_10
REMARK    5  A    between atoms: C_10  and  C_11
REMARK    6  A    between atoms: C_14  and  C_15
REMARK    7  A    between atoms: C_19  and  N_20
REMARK    8  A    between atoms: C_21  and  C_22
REMARK                            x       y       z     vdW  Elec       q    Type
REMARK                         _______ _______ _______ _____ _____    ______ ____
ROOT
ATOM      1  C   UNL     1       1.988   6.024  19.444  0.00  0.00    +0.000 C 
ATOM      2  C   UNL     1       1.768   6.075  17.904  0.00  0.00    +0.000 C 
ATOM      3  C   UNL     1       3.450   5.785  19.789  0.00  0.00    +0.000 C 
ATOM      4  C   UNL     1       3.488   4.372  19.372  0.00  0.00    +0.000 A 
ATOM      5  C   UNL     1       4.251   3.625  18.485  0.00  0.00    +0.000 A 
ATOM      6  C   UNL     1       3.964   2.246  18.519  0.00  0.00    +0.000 A 
ATOM      7  C   UNL     1       2.831   1.772  19.193  0.00  0.00    +0.000 A 
ATOM      8  N   UNL     1       1.908   2.569  19.772  0.00  0.00    +0.000 NA
ATOM      9  C   UNL     1       2.280   3.851  19.825  0.00  0.00    +0.000 A 
ATOM     10  O   UNL     1       1.321   4.885  20.030  0.00  0.00    +0.000 OA
ENDROOT
BRANCH   5  11
ATOM     11  C   UNL     1       5.098   4.218  17.393  0.00  0.00    +0.000 A 
ATOM     12  C   UNL     1       5.468   3.527  16.230  0.00  0.00    +0.000 A 
ATOM     13  C   UNL     1       6.380   4.038  15.304  0.00  0.00    +0.000 A 
ATOM     14  C   UNL     1       6.914   5.305  15.475  0.00  0.00    +0.000 A 
ATOM     15  C   UNL     1       6.578   6.051  16.599  0.00  0.00    +0.000 A 
ATOM     16  C   UNL     1       5.704   5.490  17.553  0.00  0.00    +0.000 A 
BRANCH  15  17
ATOM     17  N   UNL     1       7.080   7.348  16.842  0.00  0.00    +0.000 N 
ATOM     18  C   UNL     1       7.882   7.743  17.901  0.00  0.00    +0.000 C 
ATOM     19  C   UNL     1       8.275   9.195  17.832  0.00  0.00    +0.000 C 
ATOM     20  O   UNL     1       8.303   7.037  18.811  0.00  0.00    +0.000 OA
ATOM     21  H   UNL     1       6.863   8.050  16.147  0.00  0.00    +0.000 HD
ENDBRANCH  15  17
ENDBRANCH   5  11
BRANCH   1  23
ATOM     22  N   UNL     1       0.678   7.577  20.849  0.00  0.00    +0.000 N 
ATOM     23  C   UNL     1       1.704   7.453  19.941  0.00  0.00    +0.000 C 
ATOM     24  O   UNL     1       2.360   8.385  19.482  0.00  0.00    +0.000 OA
ATOM     25  H   UNL     1       0.246   6.720  21.173  0.00  0.00    +0.000 HD
BRANCH  22  29
ATOM     26  C   UNL     1      -0.571  11.115  22.674  0.00  0.00    +0.000 A 
ATOM     27  C   UNL     1      -0.728  11.019  21.302  0.00  0.00    +0.000 A 
ATOM     28  C   UNL     1      -0.328   9.855  20.667  0.00  0.00    +0.000 A 
ATOM     29  C   UNL     1       0.230   8.796  21.402  0.00  0.00    +0.000 A 
ATOM     30  C   UNL     1       0.330   8.999  22.778  0.00  0.00    +0.000 A 
ATOM     31  N   UNL     1      -0.053  10.126  23.429  0.00  0.00    +0.000 NA
BRANCH  26  33
ATOM     32  C   UNL     1      -0.878  13.406  22.362  0.00  0.00    +0.000 C 
ATOM     33  O   UNL     1      -0.973  12.298  23.253  0.00  0.00    +0.000 OA
ENDBRANCH  26  33
ENDBRANCH  22  29
ENDBRANCH   1  23
TORSDOF 5
ENDMDL
MODEL 3
REMARK VINA RESULT:      -8.6      4.660      7.944
REMARK  Name = 
REMARK  8 active torsions:
REMARK  status: ('A' for Active; 'I' for Inactive)
REMARK    1  A    between atoms: C_1  and  O_2
REMARK    2  A    between atoms: O_2  and  C_3
REMARK    3  A    between atoms: C_6  and  N_7
REMARK    4  A    between atoms: C_8  and  C_10
REMARK    5  A    between atoms: C_10  and  C_11
REMARK    6  A    between atoms: C_14  and  C_15
REMARK    7  A    between atoms: C_19  and  N_20
REMARK    8  A    between atoms: C_21  and  C_22
REMARK                            x       y       z     vdW  Elec       q    Type
REMARK                         _______ _______ _______ _____ _____    ______ ____
ROOT
ATOM      1  C   UNL     1       1.930   5.960  19.531  0.00  0.00    +0.000 C 
ATOM      2  C   UNL     1       2.040   5.983  17.979  0.00  0.00    +0.000 C 
ATOM      3  C   UNL     1       3.271   5.651  20.179  0.00  0.00    +0.000 C 
ATOM      4  C   UNL     1       3.312   4.227  19.800  0.00  0.00    +0.000 A 
ATOM      5  C   UNL     1       4.197   3.417  19.104  0.00  0.00    +0.000 A 
ATOM      6  C   UNL     1       3.828   2.057  19.098  0.00  0.00    +0.000 A 
ATOM      7  C   UNL     1       2.553   1.664  19.526  0.00  0.00    +0.000 A 
ATOM      8  N   UNL     1       1.579   2.525  19.886  0.00  0.00    +0.000 NA
ATOM      9  C   UNL     1       2.007   3.786  19.997  0.00  0.00    +0.000 A 
ATOM     10  O   UNL     1       1.089   4.876  19.981  0.00  0.00    +0.000 OA
ENDROOT
BRANCH   5  11
ATOM     11  C   UNL     1       5.287   3.933  18.206  0.00  0.00    +0.000 A 
ATOM     12  C   UNL     1       6.256   4.864  18.610  0.00  0.00    +0.000 A 
ATOM     13  C   UNL     1       7.162   5.446  17.721  0.00  0.00    +0.000 A 
ATOM     14  C   UNL     1       7.176   5.067  16.388  0.00  0.00    +0.000 A 
ATOM     15  C   UNL     1       6.253   4.138  15.924  0.00  0.00    +0.000 A 
ATOM     16  C   UNL     1       5.306   3.609  16.825  0.00  0.00    +0.000 A 
BRANCH  15  17
ATOM     17  N   UNL     1       6.206   3.702  14.582  0.00  0.00    +0.000 N 
ATOM     18  C   UNL     1       6.783   4.324  13.486  0.00  0.00    +0.000 C 
ATOM     19  C   UNL     1       6.577   3.564  12.202  0.00  0.00    +0.000 C 
ATOM     20  O   UNL     1       7.440   5.359  13.486  0.00  0.00    +0.000 OA
ATOM     21  H   UNL     1       5.736   2.823  14.413  0.00  0.00    +0.000 HD
ENDBRANCH  15  17
ENDBRANCH   5  11
BRANCH   1  23
ATOM     22  N   UNL     1       0.692   7.581  20.926  0.00  0.00    +0.000 N 
ATOM     23  C   UNL     1       1.634   7.415  19.936  0.00  0.00    +0.000 C 
ATOM     24  O   UNL     1       2.204   8.328  19.342  0.00  0.00    +0.000 OA
ATOM     25  H   UNL     1       0.328   6.739  21.359  0.00  0.00    +0.000 HD
BRANCH  22  29
ATOM     26  C   UNL     1      -0.553  11.203  22.579  0.00  0.00    +0.000 A 
ATOM     27  C   UNL     1      -0.688  11.051  21.210  0.00  0.00    +0.000 A 
ATOM     28  C   UNL     1      -0.288   9.858  20.632  0.00  0.00    +0.000 A 
ATOM     29  C   UNL     1       0.246   8.826  21.419  0.00  0.00    +0.000 A 
ATOM     30  C   UNL     1       0.325   9.085  22.787  0.00  0.00    +0.000 A 
ATOM     31  N   UNL     1      -0.059  10.242  23.384  0.00  0.00    +0.000 NA
BRANCH  26  33
ATOM     32  C   UNL     1      -2.368  12.507  23.246  0.00  0.00    +0.000 C 
ATOM     33  O   UNL     1      -0.954  12.413  23.101  0.00  0.00    +0.000 OA
ENDBRANCH  26  33
ENDBRANCH  22  29
ENDBRANCH   1  23
TORSDOF 5
ENDMDL
MODEL 4
REMARK VINA RESULT:      -8.6      1.247      1.278
REMARK  Name = 
REMARK  8 active torsions:
REMARK  status: ('A' for Active; 'I' for Inactive)
REMARK    1  A    between atoms: C_1  and  O_2
REMARK    2  A    between atoms: O_2  and  C_3
REMARK    3  A    between atoms: C_6  and  N_7
REMARK    4  A    between atoms: C_8  and  C_10
REMARK    5  A    between atoms: C_10  and  C_11
REMARK    6  A    between atoms: C_14  and  C_15
REMARK    7  A    between atoms: C_19  and  N_20
REMARK    8  A    between atoms: C_21  and  C_22
REMARK                            x       y       z     vdW  Elec       q    Type
REMARK                         _______ _______ _______ _____ _____    ______ ____
ROOT
ATOM      1  C   UNL     1       7.406   6.554  17.448  0.00  0.00    +0.000 C 
ATOM      2  C   UNL     1       7.538   5.305  18.368  0.00  0.00    +0.000 C 
ATOM      3  C   UNL     1       5.955   6.988  17.305  0.00  0.00    +0.000 C 
ATOM      4  C   UNL     1       5.531   5.864  16.450  0.00  0.00    +0.000 A 
ATOM      5  C   UNL     1       4.551   4.885  16.522  0.00  0.00    +0.000 A 
ATOM      6  C   UNL     1       4.477   4.077  15.370  0.00  0.00    +0.000 A 
ATOM      7  C   UNL     1       5.490   4.123  14.403  0.00  0.00    +0.000 A 
ATOM      8  N   UNL     1       6.618   4.852  14.526  0.00  0.00    +0.000 NA
ATOM      9  C   UNL     1       6.591   5.692  15.565  0.00  0.00    +0.000 A 
ATOM     10  O   UNL     1       7.793   6.248  16.091  0.00  0.00    +0.000 OA
ENDROOT
BRANCH   5  11
ATOM     11  C   UNL     1       3.819   4.514  17.782  0.00  0.00    +0.000 A 
ATOM     12  C   UNL     1       3.495   3.196  18.137  0.00  0.00    +0.000 A 
ATOM     13  C   UNL     1       2.683   2.884  19.230  0.00  0.00    +0.000 A 
ATOM     14  C   UNL     1       2.210   3.890  20.058  0.00  0.00    +0.000 A 
ATOM     15  C   UNL     1       2.506   5.217  19.773  0.00  0.00    +0.000 A 
ATOM     16  C   UNL     1       3.276   5.513  18.629  0.00  0.00    +0.000 A 
BRANCH  15  17
ATOM     17  N   UNL     1       2.061   6.295  20.570  0.00  0.00    +0.000 N 
ATOM     18  C   UNL     1       1.850   7.601  20.156  0.00  0.00    +0.000 C 
ATOM     19  C   UNL     1       1.331   8.489  21.256  0.00  0.00    +0.000 C 
ATOM     20  O   UNL     1       2.006   8.052  19.027  0.00  0.00    +0.000 OA
ATOM     21  H   UNL     1       1.837   6.078  21.531  0.00  0.00    +0.000 HD
ENDBRANCH  15  17
ENDBRANCH   5  11
BRANCH   1  23
ATOM     22  N   UNL     1       7.949   8.954  17.670  0.00  0.00    +0.000 N 
ATOM     23  C   UNL     1       8.075   7.701  18.225  0.00  0.00    +0.000 C 
ATOM     24  O   UNL     1       8.705   7.441  19.248  0.00  0.00    +0.000 OA
ATOM     25  H   UNL     1       7.368   9.033  16.843  0.00  0.00    +0.000 HD
BRANCH  22  29
ATOM     26  C   UNL     1       9.509  12.555  19.083  0.00  0.00    +0.000 A 
ATOM     27  C   UNL     1       9.851  11.403  19.770  0.00  0.00    +0.000 A 
ATOM     28  C   UNL     1       9.353  10.191  19.322  0.00  0.00    +0.000 A 
ATOM     29  C   UNL     1       8.516  10.134  18.197  0.00  0.00    +0.000 A 
ATOM     30  C   UNL     1       8.247  11.355  17.578  0.00  0.00    +0.000 A 
ATOM     31  N   UNL     1       8.720  12.558  17.991  0.00  0.00    +0.000 NA
BRANCH  26  33
ATOM     32  C   UNL     1       9.673  14.862  18.780  0.00  0.00    +0.000 C 
ATOM     33  O   UNL     1      10.021  13.734  19.578  0.00  0.00    +0.000 OA
ENDBRANCH  26  33
ENDBRANCH  22  29
ENDBRANCH   1  23
TORSDOF 5
ENDMDL
MODEL 5
REMARK VINA RESULT:      -8.3      0.996      1.228
REMARK  Name = 
REMARK  8 active torsions:
REMARK  status: ('A' for Active; 'I' for Inactive)
REMARK    1  A    between atoms: C_1  and  O_2
REMARK    2  A    between atoms: O_2  and  C_3
REMARK    3  A    between atoms: C_6  and  N_7
REMARK    4  A    between atoms: C_8  and  C_10
REMARK    5  A    between atoms: C_10  and  C_11
REMARK    6  A    between atoms: C_14  and  C_15
REMARK    7  A    between atoms: C_19  and  N_20
REMARK    8  A    between atoms: C_21  and  C_22
REMARK                            x       y       z     vdW  Elec       q    Type
REMARK                         _______ _______ _______ _____ _____    ______ ____
ROOT
ATOM      1  C   UNL     1       7.279   7.180  17.491  0.00  0.00    +0.000 C 
ATOM      2  C   UNL     1       7.415   6.430  18.848  0.00  0.00    +0.000 C 
ATOM      3  C   UNL     1       5.820   7.369  17.105  0.00  0.00    +0.000 C 
ATOM      4  C   UNL     1       5.556   5.960  16.765  0.00  0.00    +0.000 A 
ATOM      5  C   UNL     1       4.645   4.999  17.181  0.00  0.00    +0.000 A 
ATOM      6  C   UNL     1       4.733   3.792  16.460  0.00  0.00    +0.000 A 
ATOM      7  C   UNL     1       5.823   3.546  15.615  0.00  0.00    +0.000 A 
ATOM      8  N   UNL     1       6.882   4.372  15.489  0.00  0.00    +0.000 NA
ATOM      9  C   UNL     1       6.701   5.553  16.088  0.00  0.00    +0.000 A 
ATOM     10  O   UNL     1       7.808   6.393  16.403  0.00  0.00    +0.000 OA
ENDROOT
BRANCH   5  11
ATOM     11  C   UNL     1       3.830   5.097  18.441  0.00  0.00    +0.000 A 
ATOM     12  C   UNL     1       3.365   3.984  19.157  0.00  0.00    +0.000 A 
ATOM     13  C   UNL     1       2.482   4.093  20.235  0.00  0.00    +0.000 A 
ATOM     14  C   UNL     1       2.077   5.341  20.683  0.00  0.00    +0.000 A 
ATOM     15  C   UNL     1       2.512   6.486  20.027  0.00  0.00    +0.000 A 
ATOM     16  C   UNL     1       3.353   6.350  18.903  0.00  0.00    +0.000 A 
BRANCH  15  17
ATOM     17  N   UNL     1       2.144   7.789  20.425  0.00  0.00    +0.000 N 
ATOM     18  C   UNL     1       0.941   8.174  20.996  0.00  0.00    +0.000 C 
ATOM     19  C   UNL     1       0.895   9.640  21.340  0.00  0.00    +0.000 C 
ATOM     20  O   UNL     1      -0.014   7.452  21.262  0.00  0.00    +0.000 OA
ATOM     21  H   UNL     1       2.848   8.506  20.317  0.00  0.00    +0.000 HD
ENDBRANCH  15  17
ENDBRANCH   5  11
BRANCH   1  23
ATOM     22  N   UNL     1       8.762   8.717  18.734  0.00  0.00    +0.000 N 
ATOM     23  C   UNL     1       7.793   8.605  17.764  0.00  0.00    +0.000 C 
ATOM     24  O   UNL     1       7.295   9.546  17.149  0.00  0.00    +0.000 OA
ATOM     25  H   UNL     1       9.112   7.854  19.135  0.00  0.00    +0.000 HD
BRANCH  22  29
ATOM     26  C   UNL     1      10.390  12.266  20.203  0.00  0.00    +0.000 A 
ATOM     27  C   UNL     1      10.719  11.905  18.907  0.00  0.00    +0.000 A 
ATOM     28  C   UNL     1      10.190  10.735  18.389  0.00  0.00    +0.000 A 
ATOM     29  C   UNL     1       9.341   9.930  19.164  0.00  0.00    +0.000 A 
ATOM     30  C   UNL     1       9.070  10.397  20.450  0.00  0.00    +0.000 A 
ATOM     31  N   UNL     1       9.571  11.538  20.986  0.00  0.00    +0.000 NA
BRANCH  26  33
ATOM     32  C   UNL     1      11.240  14.362  19.632  0.00  0.00    +0.000 C 
ATOM     33  O   UNL     1      10.953  13.432  20.672  0.00  0.00    +0.000 OA
ENDBRANCH  26  33
ENDBRANCH  22  29
ENDBRANCH   1  23
TORSDOF 5
ENDMDL
MODEL 6
REMARK VINA RESULT:      -8.3      4.911      7.494
REMARK  Name = 
REMARK  8 active torsions:
REMARK  status: ('A' for Active; 'I' for Inactive)
REMARK    1  A    between atoms: C_1  and  O_2
REMARK    2  A    between atoms: O_2  and  C_3
REMARK    3  A    between atoms: C_6  and  N_7
REMARK    4  A    between atoms: C_8  and  C_10
REMARK    5  A    between atoms: C_10  and  C_11
REMARK    6  A    between atoms: C_14  and  C_15
REMARK    7  A    between atoms: C_19  and  N_20
REMARK    8  A    between atoms: C_21  and  C_22
REMARK                            x       y       z     vdW  Elec       q    Type
REMARK                         _______ _______ _______ _____ _____    ______ ____
ROOT
ATOM      1  C   UNL     1       2.450   6.412  19.085  0.00  0.00    +0.000 C 
ATOM      2  C   UNL     1       2.168   5.948  17.626  0.00  0.00    +0.000 C 
ATOM      3  C   UNL     1       3.938   6.383  19.400  0.00  0.00    +0.000 C 
ATOM      4  C   UNL     1       4.065   4.915  19.457  0.00  0.00    +0.000 A 
ATOM      5  C   UNL     1       4.846   3.967  18.813  0.00  0.00    +0.000 A 
ATOM      6  C   UNL     1       4.663   2.659  19.305  0.00  0.00    +0.000 A 
ATOM      7  C   UNL     1       3.595   2.365  20.162  0.00  0.00    +0.000 A 
ATOM      8  N   UNL     1       2.639   3.252  20.509  0.00  0.00    +0.000 NA
ATOM      9  C   UNL     1       2.917   4.501  20.125  0.00  0.00    +0.000 A 
ATOM     10  O   UNL     1       1.892   5.488  20.045  0.00  0.00    +0.000 OA
ENDROOT
BRANCH   5  11
ATOM     11  C   UNL     1       5.604   4.221  17.539  0.00  0.00    +0.000 A 
ATOM     12  C   UNL     1       6.873   4.818  17.492  0.00  0.00    +0.000 A 
ATOM     13  C   UNL     1       7.492   5.186  16.296  0.00  0.00    +0.000 A 
ATOM     14  C   UNL     1       6.886   4.909  15.081  0.00  0.00    +0.000 A 
ATOM     15  C   UNL     1       5.634   4.306  15.054  0.00  0.00    +0.000 A 
ATOM     16  C   UNL     1       4.999   3.999  16.276  0.00  0.00    +0.000 A 
BRANCH  15  17
ATOM     17  N   UNL     1       4.955   3.992  13.857  0.00  0.00    +0.000 N 
ATOM     18  C   UNL     1       5.523   3.566  12.667  0.00  0.00    +0.000 C 
ATOM     19  C   UNL     1       4.502   3.276  11.598  0.00  0.00    +0.000 C 
ATOM     20  O   UNL     1       6.714   3.380  12.443  0.00  0.00    +0.000 OA
ATOM     21  H   UNL     1       3.945   4.047  13.888  0.00  0.00    +0.000 HD
ENDBRANCH  15  17
ENDBRANCH   5  11
BRANCH   1  23
ATOM     22  N   UNL     1       1.172   8.279  20.077  0.00  0.00    +0.000 N 
ATOM     23  C   UNL     1       2.081   7.906  19.113  0.00  0.00    +0.000 C 
ATOM     24  O   UNL     1       2.569   8.657  18.271  0.00  0.00    +0.000 OA
ATOM     25  H   UNL     1       0.880   7.564  20.733  0.00  0.00    +0.000 HD
BRANCH  22  29
ATOM     26  C   UNL     1      -0.176  12.167  20.763  0.00  0.00    +0.000 A 
ATOM     27  C   UNL     1      -0.675  11.510  19.652  0.00  0.00    +0.000 A 
ATOM     28  C   UNL     1      -0.251  10.215  19.400  0.00  0.00    +0.000 A 
ATOM     29  C   UNL     1       0.670   9.587  20.253  0.00  0.00    +0.000 A 
ATOM     30  C   UNL     1       1.097  10.340  21.346  0.00  0.00    +0.000 A 
ATOM     31  N   UNL     1       0.700  11.608  21.621  0.00  0.00    +0.000 NA
BRANCH  26  33
ATOM     32  C   UNL     1       0.091  14.131  21.993  0.00  0.00    +0.000 C 
ATOM     33  O   UNL     1      -0.621  13.456  20.960  0.00  0.00    +0.000 OA
ENDBRANCH  26  33
ENDBRANCH  22  29
ENDBRANCH   1  23
TORSDOF 5
ENDMDL
MODEL 7
REMARK VINA RESULT:      -8.2      5.697     11.029
REMARK  Name = 
REMARK  8 active torsions:
REMARK  status: ('A' for Active; 'I' for Inactive)
REMARK    1  A    between atoms: C_1  and  O_2
REMARK    2  A    between atoms: O_2  and  C_3
REMARK    3  A    between atoms: C_6  and  N_7
REMARK    4  A    between atoms: C_8  and  C_10
REMARK    5  A    between atoms: C_10  and  C_11
REMARK    6  A    between atoms: C_14  and  C_15
REMARK    7  A    between atoms: C_19  and  N_20
REMARK    8  A    between atoms: C_21  and  C_22
REMARK                            x       y       z     vdW  Elec       q    Type
REMARK                         _______ _______ _______ _____ _____    ______ ____
ROOT
ATOM      1  C   UNL     1      -0.418  12.625  21.570  0.00  0.00    +0.000 C 
ATOM      2  C   UNL     1      -0.934  13.511  20.399  0.00  0.00    +0.000 C 
ATOM      3  C   UNL     1      -1.504  11.690  22.080  0.00  0.00    +0.000 C 
ATOM      4  C   UNL     1      -2.315  12.726  22.743  0.00  0.00    +0.000 A 
ATOM      5  C   UNL     1      -3.632  13.154  22.656  0.00  0.00    +0.000 A 
ATOM      6  C   UNL     1      -3.967  14.142  23.602  0.00  0.00    +0.000 A 
ATOM      7  C   UNL     1      -2.966  14.785  24.343  0.00  0.00    +0.000 A 
ATOM      8  N   UNL     1      -1.645  14.583  24.160  0.00  0.00    +0.000 NA
ATOM      9  C   UNL     1      -1.377  13.556  23.349  0.00  0.00    +0.000 A 
ATOM     10  O   UNL     1      -0.100  13.424  22.730  0.00  0.00    +0.000 OA
ENDROOT
BRANCH   5  11
ATOM     11  C   UNL     1      -4.552  12.828  21.511  0.00  0.00    +0.000 A 
ATOM     12  C   UNL     1      -5.925  12.583  21.659  0.00  0.00    +0.000 A 
ATOM     13  C   UNL     1      -6.731  12.131  20.611  0.00  0.00    +0.000 A 
ATOM     14  C   UNL     1      -6.198  11.967  19.342  0.00  0.00    +0.000 A 
ATOM     15  C   UNL     1      -4.848  12.206  19.122  0.00  0.00    +0.000 A 
ATOM     16  C   UNL     1      -4.039  12.601  20.208  0.00  0.00    +0.000 A 
BRANCH  15  17
ATOM     17  N   UNL     1      -4.234  12.061  17.859  0.00  0.00    +0.000 N 
ATOM     18  C   UNL     1      -3.681  10.905  17.332  0.00  0.00    +0.000 C 
ATOM     19  C   UNL     1      -3.148  11.090  15.936  0.00  0.00    +0.000 C 
ATOM     20  O   UNL     1      -3.630   9.801  17.865  0.00  0.00    +0.000 OA
ATOM     21  H   UNL     1      -4.237  12.878  17.264  0.00  0.00    +0.000 HD
ENDBRANCH  15  17
ENDBRANCH   5  11
BRANCH   1  23
ATOM     22  N   UNL     1       0.130  10.594  20.274  0.00  0.00    +0.000 N 
ATOM     23  C   UNL     1       0.629  11.690  20.939  0.00  0.00    +0.000 C 
ATOM     24  O   UNL     1       1.823  11.940  21.094  0.00  0.00    +0.000 OA
ATOM     25  H   UNL     1      -0.879  10.530  20.188  0.00  0.00    +0.000 HD
BRANCH  22  29
ATOM     26  C   UNL     1       2.438   7.528  18.639  0.00  0.00    +0.000 A 
ATOM     27  C   UNL     1       2.045   8.548  17.789  0.00  0.00    +0.000 A 
ATOM     28  C   UNL     1       1.282   9.583  18.304  0.00  0.00    +0.000 A 
ATOM     29  C   UNL     1       0.912   9.594  19.658  0.00  0.00    +0.000 A 
ATOM     30  C   UNL     1       1.374   8.522  20.421  0.00  0.00    +0.000 A 
ATOM     31  N   UNL     1       2.123   7.494  19.948  0.00  0.00    +0.000 NA
BRANCH  26  33
ATOM     32  C   UNL     1       4.338   7.002  17.393  0.00  0.00    +0.000 C 
ATOM     33  O   UNL     1       3.184   6.518  18.074  0.00  0.00    +0.000 OA
ENDBRANCH  26  33
ENDBRANCH  22  29
ENDBRANCH   1  23
TORSDOF 5
ENDMDL
MODEL 8
REMARK VINA RESULT:      -8.2      2.883      6.827
REMARK  Name = 
REMARK  8 active torsions:
REMARK  status: ('A' for Active; 'I' for Inactive)
REMARK    1  A    between atoms: C_1  and  O_2
REMARK    2  A    between atoms: O_2  and  C_3
REMARK    3  A    between atoms: C_6  and  N_7
REMARK    4  A    between atoms: C_8  and  C_10
REMARK    5  A    between atoms: C_10  and  C_11
REMARK    6  A    between atoms: C_14  and  C_15
REMARK    7  A    between atoms: C_19  and  N_20
REMARK    8  A    between atoms: C_21  and  C_22
REMARK                            x       y       z     vdW  Elec       q    Type
REMARK                         _______ _______ _______ _____ _____    ______ ____
ROOT
ATOM      1  C   UNL     1       2.041   5.992  19.384  0.00  0.00    +0.000 C 
ATOM      2  C   UNL     1       1.827   6.126  17.848  0.00  0.00    +0.000 C 
ATOM      3  C   UNL     1       3.495   5.694  19.719  0.00  0.00    +0.000 C 
ATOM      4  C   UNL     1       3.494   4.303  19.232  0.00  0.00    +0.000 A 
ATOM      5  C   UNL     1       4.238   3.580  18.310  0.00  0.00    +0.000 A 
ATOM      6  C   UNL     1       3.912   2.210  18.275  0.00  0.00    +0.000 A 
ATOM      7  C   UNL     1       2.764   1.736  18.923  0.00  0.00    +0.000 A 
ATOM      8  N   UNL     1       1.863   2.528  19.539  0.00  0.00    +0.000 NA
ATOM      9  C   UNL     1       2.271   3.795  19.657  0.00  0.00    +0.000 A 
ATOM     10  O   UNL     1       1.341   4.844  19.912  0.00  0.00    +0.000 OA
ENDROOT
BRANCH   5  11
ATOM     11  C   UNL     1       5.104   4.202  17.250  0.00  0.00    +0.000 A 
ATOM     12  C   UNL     1       5.492   3.544  16.074  0.00  0.00    +0.000 A 
ATOM     13  C   UNL     1       6.420   4.080  15.177  0.00  0.00    +0.000 A 
ATOM     14  C   UNL     1       6.955   5.340  15.395  0.00  0.00    +0.000 A 
ATOM     15  C   UNL     1       6.602   6.053  16.534  0.00  0.00    +0.000 A 
ATOM     16  C   UNL     1       5.711   5.468  17.457  0.00  0.00    +0.000 A 
BRANCH  15  17
ATOM     17  N   UNL     1       7.103   7.341  16.824  0.00  0.00    +0.000 N 
ATOM     18  C   UNL     1       7.883   7.704  17.910  0.00  0.00    +0.000 C 
ATOM     19  C   UNL     1       8.283   9.156  17.890  0.00  0.00    +0.000 C 
ATOM     20  O   UNL     1       8.282   6.972  18.810  0.00  0.00    +0.000 OA
ATOM     21  H   UNL     1       6.904   8.063  16.144  0.00  0.00    +0.000 HD
ENDBRANCH  15  17
ENDBRANCH   5  11
BRANCH   1  23
ATOM     22  N   UNL     1       1.565   8.389  19.021  0.00  0.00    +0.000 N 
ATOM     23  C   UNL     1       1.797   7.402  19.951  0.00  0.00    +0.000 C 
ATOM     24  O   UNL     1       1.862   7.575  21.167  0.00  0.00    +0.000 OA
ATOM     25  H   UNL     1       1.498   8.099  18.052  0.00  0.00    +0.000 HD
BRANCH  22  29
ATOM     26  C   UNL     1       1.031  12.467  19.719  0.00  0.00    +0.000 A 
ATOM     27  C   UNL     1       0.518  11.590  20.660  0.00  0.00    +0.000 A 
ATOM     28  C   UNL     1       0.684  10.230  20.459  0.00  0.00    +0.000 A 
ATOM     29  C   UNL     1       1.355   9.752  19.322  0.00  0.00    +0.000 A 
ATOM     30  C   UNL     1       1.838  10.725  18.449  0.00  0.00    +0.000 A 
ATOM     31  N   UNL     1       1.693  12.064  18.617  0.00  0.00    +0.000 NA
BRANCH  26  33
ATOM     32  C   UNL     1      -0.413  14.278  19.441  0.00  0.00    +0.000 C 
ATOM     33  O   UNL     1       0.827  13.807  19.961  0.00  0.00    +0.000 OA
ENDBRANCH  26  33
ENDBRANCH  22  29
ENDBRANCH   1  23
TORSDOF 5
ENDMDL
MODEL 9
REMARK VINA RESULT:      -8.2      4.686      7.225
REMARK  Name = 
REMARK  8 active torsions:
REMARK  status: ('A' for Active; 'I' for Inactive)
REMARK    1  A    between atoms: C_1  and  O_2
REMARK    2  A    between atoms: O_2  and  C_3
REMARK    3  A    between atoms: C_6  and  N_7
REMARK    4  A    between atoms: C_8  and  C_10
REMARK    5  A    between atoms: C_10  and  C_11
REMARK    6  A    between atoms: C_14  and  C_15
REMARK    7  A    between atoms: C_19  and  N_20
REMARK    8  A    between atoms: C_21  and  C_22
REMARK                            x       y       z     vdW  Elec       q    Type
REMARK                         _______ _______ _______ _____ _____    ______ ____
ROOT
ATOM      1  C   UNL     1       2.047   6.287  19.339  0.00  0.00    +0.000 C 
ATOM      2  C   UNL     1       2.181   6.183  17.792  0.00  0.00    +0.000 C 
ATOM      3  C   UNL     1       3.363   5.974  20.034  0.00  0.00    +0.000 C 
ATOM      4  C   UNL     1       3.350   4.525  19.767  0.00  0.00    +0.000 A 
ATOM      5  C   UNL     1       4.211   3.627  19.152  0.00  0.00    +0.000 A 
ATOM      6  C   UNL     1       3.785   2.287  19.245  0.00  0.00    +0.000 A 
ATOM      7  C   UNL     1       2.488   1.981  19.678  0.00  0.00    +0.000 A 
ATOM      8  N   UNL     1       1.546   2.907  19.953  0.00  0.00    +0.000 NA
ATOM      9  C   UNL     1       2.025   4.154  19.974  0.00  0.00    +0.000 A 
ATOM     10  O   UNL     1       1.154   5.276  19.856  0.00  0.00    +0.000 OA
ENDROOT
BRANCH   5  11
ATOM     11  C   UNL     1       5.335   4.026  18.237  0.00  0.00    +0.000 A 
ATOM     12  C   UNL     1       6.397   4.858  18.622  0.00  0.00    +0.000 A 
ATOM     13  C   UNL     1       7.345   5.342  17.718  0.00  0.00    +0.000 A 
ATOM     14  C   UNL     1       7.304   4.955  16.388  0.00  0.00    +0.000 A 
ATOM     15  C   UNL     1       6.286   4.120  15.942  0.00  0.00    +0.000 A 
ATOM     16  C   UNL     1       5.303   3.693  16.859  0.00  0.00    +0.000 A 
BRANCH  15  17
ATOM     17  N   UNL     1       6.179   3.683  14.604  0.00  0.00    +0.000 N 
ATOM     18  C   UNL     1       6.729   4.289  13.485  0.00  0.00    +0.000 C 
ATOM     19  C   UNL     1       6.456   3.532  12.212  0.00  0.00    +0.000 C 
ATOM     20  O   UNL     1       7.410   5.308  13.458  0.00  0.00    +0.000 OA
ATOM     21  H   UNL     1       5.681   2.815  14.455  0.00  0.00    +0.000 HD
ENDBRANCH  15  17
ENDBRANCH   5  11
BRANCH   1  23
ATOM     22  N   UNL     1       1.595   8.574  18.521  0.00  0.00    +0.000 N 
ATOM     23  C   UNL     1       1.806   7.780  19.625  0.00  0.00    +0.000 C 
ATOM     24  O   UNL     1       1.856   8.180  20.786  0.00  0.00    +0.000 OA
ATOM     25  H   UNL     1       1.540   8.106  17.623  0.00  0.00    +0.000 HD
BRANCH  22  29
ATOM     26  C   UNL     1       0.802  12.665  18.711  0.00  0.00    +0.000 A 
ATOM     27  C   UNL     1       2.061  12.282  18.280  0.00  0.00    +0.000 A 
ATOM     28  C   UNL     1       2.353  10.931  18.201  0.00  0.00    +0.000 A 
ATOM     29  C   UNL     1       1.393   9.970  18.555  0.00  0.00    +0.000 A 
ATOM     30  C   UNL     1       0.156  10.470  18.964  0.00  0.00    +0.000 A 
ATOM     31  N   UNL     1      -0.161  11.787  19.051  0.00  0.00    +0.000 NA
BRANCH  26  33
ATOM     32  C   UNL     1       0.827  14.555  20.077  0.00  0.00    +0.000 C 
ATOM     33  O   UNL     1       0.568  14.021  18.782  0.00  0.00    +0.000 OA
ENDBRANCH  26  33
ENDBRANCH  22  29
ENDBRANCH   1  23
TORSDOF 5
ENDMDL
