MODEL 1
REMARK VINA RESULT:      -8.5      0.000      0.000
REMARK  Name = 
REMARK  7 active torsions:
REMARK  status: ('A' for Active; 'I' for Inactive)
REMARK    1  A    between atoms: C_2  and  C_5
REMARK    2  A    between atoms: C_8  and  C_9
REMARK    3  A    between atoms: C_9  and  O_10
REMARK    4  A    between atoms: O_10  and  C_11
REMARK    5  A    between atoms: C_16  and  C_17
REMARK    6  A    between atoms: N_18  and  O_19
REMARK    7  A    between atoms: O_19  and  C_20
REMARK                            x       y       z     vdW  Elec       q    Type
REMARK                         _______ _______ _______ _____ _____    ______ ____
ROOT
ATOM      1  C   UNL     1       5.431   6.367  17.030  0.00  0.00    +0.000 A 
ATOM      2  C   UNL     1       5.288   4.986  16.803  0.00  0.00    +0.000 A 
ATOM      3  C   UNL     1       6.329   4.095  17.067  0.00  0.00    +0.000 A 
ATOM      4  C   UNL     1       7.535   4.571  17.567  0.00  0.00    +0.000 A 
ATOM      5  C   UNL     1       7.694   5.937  17.795  0.00  0.00    +0.000 A 
ATOM      6  C   UNL     1       6.649   6.839  17.544  0.00  0.00    +0.000 A 
ENDROOT
BRANCH   6   7
ATOM      7  C   UNL     1       6.968   8.262  17.762  0.00  0.00    +0.000 C 
ATOM      8  N   UNL     1       8.091   8.816  17.415  0.00  0.00    +0.000 NA
BRANCH   8   9
ATOM      9  O   UNL     1       8.149  10.080  18.027  0.00  0.00    +0.000 OA
BRANCH   9  10
ATOM     10  C   UNL     1       9.417  10.271  18.660  0.00  0.00    +0.000 C 
ATOM     11  C   UNL     1       9.303  10.710  20.143  0.00  0.00    +0.000 C 
ATOM     12  N   UNL     1       9.955  12.026  20.407  0.00  0.00    +0.000 NA
ATOM     13  C   UNL     1      11.374  11.963  19.984  0.00  0.00    +0.000 C 
ATOM     14  C   UNL     1      11.516  11.578  18.503  0.00  0.00    +0.000 C 
ATOM     15  C   UNL     1      10.124  11.401  17.886  0.00  0.00    +0.000 C 
ATOM     16  C   UNL     1       9.342  12.715  18.092  0.00  0.00    +0.000 C 
ATOM     17  C   UNL     1       9.275  13.054  19.590  0.00  0.00    +0.000 C 
ENDBRANCH   9  10
ENDBRANCH   8   9
ENDBRANCH   6   7
BRANCH   1  18
ATOM     18  O   UNL     1       4.303   7.070  16.707  0.00  0.00    +0.000 OA
BRANCH  18  19
ATOM     19  C   UNL     1       3.473   7.590  17.750  0.00  0.00    +0.000 C 
BRANCH  19  23
ATOM     20  C   UNL     1       1.680   4.086  19.453  0.00  0.00    +0.000 A 
ATOM     21  C   UNL     1       2.383   4.982  20.274  0.00  0.00    +0.000 A 
ATOM     22  C   UNL     1       2.908   6.159  19.743  0.00  0.00    +0.000 A 
ATOM     23  C   UNL     1       2.744   6.438  18.384  0.00  0.00    +0.000 A 
ATOM     24  C   UNL     1       1.961   5.596  17.585  0.00  0.00    +0.000 A 
ATOM     25  C   UNL     1       1.430   4.427  18.116  0.00  0.00    +0.000 A 
BRANCH  20  27
ATOM     26  F   UNL     1       0.813   2.746  21.245  0.00  0.00    +0.000 F 
ATOM     27  C   UNL     1       1.262   2.731  19.960  0.00  0.00    +0.000 C 
ATOM     28  F   UNL     1       2.295   1.842  19.940  0.00  0.00    +0.000 F 
ATOM     29  F   UNL     1       0.270   2.172  19.217  0.00  0.00    +0.000 F 
ENDBRANCH  20  27
ENDBRANCH  19  23
ENDBRANCH  18  19
ENDBRANCH   1  18
TORSDOF 7
ENDMDL
MODEL 2
REMARK VINA RESULT:      -8.4      0.456      1.244
REMARK  Name = 
REMARK  7 active torsions:
REMARK  status: ('A' for Active; 'I' for Inactive)
REMARK    1  A    between atoms: C_2  and  C_5
REMARK    2  A    between atoms: C_8  and  C_9
REMARK    3  A    between atoms: C_9  and  O_10
REMARK    4  A    between atoms: O_10  and  C_11
REMARK    5  A    between atoms: C_16  and  C_17
REMARK    6  A    between atoms: N_18  and  O_19
REMARK    7  A    between atoms: O_19  and  C_20
REMARK                            x       y       z     vdW  Elec       q    Type
REMARK                         _______ _______ _______ _____ _____    ______ ____
ROOT
ATOM      1  C   UNL     1       5.357   6.480  16.726  0.00  0.00    +0.000 A 
ATOM      2  C   UNL     1       5.181   5.148  16.309  0.00  0.00    +0.000 A 
ATOM      3  C   UNL     1       6.215   4.215  16.401  0.00  0.00    +0.000 A 
ATOM      4  C   UNL     1       7.447   4.599  16.916  0.00  0.00    +0.000 A 
ATOM      5  C   UNL     1       7.639   5.916  17.331  0.00  0.00    +0.000 A 
ATOM      6  C   UNL     1       6.602   6.858  17.254  0.00  0.00    +0.000 A 
ENDROOT
BRANCH   6   7
ATOM      7  C   UNL     1       6.954   8.230  17.662  0.00  0.00    +0.000 C 
ATOM      8  N   UNL     1       8.171   8.682  17.714  0.00  0.00    +0.000 NA
BRANCH   8   9
ATOM      9  O   UNL     1       8.141   9.906  18.405  0.00  0.00    +0.000 OA
BRANCH   9  10
ATOM     10  C   UNL     1       9.424  10.193  18.968  0.00  0.00    +0.000 C 
ATOM     11  C   UNL     1       9.345  10.835  20.377  0.00  0.00    +0.000 C 
ATOM     12  N   UNL     1       9.989  12.179  20.436  0.00  0.00    +0.000 NA
ATOM     13  C   UNL     1      11.397  12.069  19.986  0.00  0.00    +0.000 C 
ATOM     14  C   UNL     1      11.503  11.481  18.570  0.00  0.00    +0.000 C 
ATOM     15  C   UNL     1      10.096  11.209  18.024  0.00  0.00    +0.000 C 
ATOM     16  C   UNL     1       9.305  12.533  18.066  0.00  0.00    +0.000 C 
ATOM     17  C   UNL     1       9.276  13.078  19.503  0.00  0.00    +0.000 C 
ENDBRANCH   9  10
ENDBRANCH   8   9
ENDBRANCH   6   7
BRANCH   1  18
ATOM     18  O   UNL     1       4.231   7.236  16.552  0.00  0.00    +0.000 OA
BRANCH  18  19
ATOM     19  C   UNL     1       3.393   7.521  17.675  0.00  0.00    +0.000 C 
BRANCH  19  23
ATOM     20  C   UNL     1       1.943   3.983  19.619  0.00  0.00    +0.000 A 
ATOM     21  C   UNL     1       1.547   4.271  18.303  0.00  0.00    +0.000 A 
ATOM     22  C   UNL     1       2.067   5.379  17.638  0.00  0.00    +0.000 A 
ATOM     23  C   UNL     1       2.978   6.214  18.292  0.00  0.00    +0.000 A 
ATOM     24  C   UNL     1       3.449   5.874  19.567  0.00  0.00    +0.000 A 
ATOM     25  C   UNL     1       2.936   4.764  20.226  0.00  0.00    +0.000 A 
BRANCH  20  27
ATOM     26  F   UNL     1       1.773   1.658  20.193  0.00  0.00    +0.000 F 
ATOM     27  C   UNL     1       1.264   2.902  20.416  0.00  0.00    +0.000 C 
ATOM     28  F   UNL     1      -0.065   2.815  20.123  0.00  0.00    +0.000 F 
ATOM     29  F   UNL     1       1.339   3.108  21.757  0.00  0.00    +0.000 F 
ENDBRANCH  20  27
ENDBRANCH  19  23
ENDBRANCH  18  19
ENDBRANCH   1  18
TORSDOF 7
ENDMDL
MODEL 3
REMARK VINA RESULT:      -8.2      3.790      6.035
REMARK  Name = 
REMARK  7 active torsions:
REMARK  status: ('A' for Active; 'I' for Inactive)
REMARK    1  A    between atoms: C_2  and  C_5
REMARK    2  A    between atoms: C_8  and  C_9
REMARK    3  A    between atoms: C_9  and  O_10
REMARK    4  A    between atoms: O_10  and  C_11
REMARK    5  A    between atoms: C_16  and  C_17
REMARK    6  A    between atoms: N_18  and  O_19
REMARK    7  A    between atoms: O_19  and  C_20
REMARK                            x       y       z     vdW  Elec       q    Type
REMARK                         _______ _______ _______ _____ _____    ______ ____
ROOT
ATOM      1  C   UNL     1       1.417   8.466  19.963  0.00  0.00    +0.000 A 
ATOM      2  C   UNL     1       0.404   8.989  20.787  0.00  0.00    +0.000 A 
ATOM      3  C   UNL     1      -0.407  10.043  20.362  0.00  0.00    +0.000 A 
ATOM      4  C   UNL     1      -0.219  10.593  19.100  0.00  0.00    +0.000 A 
ATOM      5  C   UNL     1       0.783  10.088  18.272  0.00  0.00    +0.000 A 
ATOM      6  C   UNL     1       1.594   9.020  18.685  0.00  0.00    +0.000 A 
ENDROOT
BRANCH   6   7
ATOM      7  C   UNL     1       2.658   8.627  17.744  0.00  0.00    +0.000 C 
ATOM      8  N   UNL     1       3.066   7.405  17.579  0.00  0.00    +0.000 NA
BRANCH   8   9
ATOM      9  O   UNL     1       4.258   7.450  16.835  0.00  0.00    +0.000 OA
BRANCH   9  10
ATOM     10  C   UNL     1       5.319   6.813  17.552  0.00  0.00    +0.000 C 
ATOM     11  C   UNL     1       6.722   7.104  16.958  0.00  0.00    +0.000 C 
ATOM     12  N   UNL     1       7.437   5.865  16.535  0.00  0.00    +0.000 NA
ATOM     13  C   UNL     1       7.536   4.939  17.687  0.00  0.00    +0.000 C 
ATOM     14  C   UNL     1       6.155   4.593  18.266  0.00  0.00    +0.000 C 
ATOM     15  C   UNL     1       5.067   5.296  17.446  0.00  0.00    +0.000 C 
ATOM     16  C   UNL     1       5.226   4.863  15.974  0.00  0.00    +0.000 C 
ATOM     17  C   UNL     1       6.640   5.205  15.478  0.00  0.00    +0.000 C 
ENDBRANCH   9  10
ENDBRANCH   8   9
ENDBRANCH   6   7
BRANCH   1  18
ATOM     18  O   UNL     1       2.100   7.443  20.559  0.00  0.00    +0.000 OA
BRANCH  18  19
ATOM     19  C   UNL     1       1.374   6.377  21.179  0.00  0.00    +0.000 C 
BRANCH  19  23
ATOM     20  C   UNL     1       2.564   2.927  18.926  0.00  0.00    +0.000 A 
ATOM     21  C   UNL     1       2.845   2.997  20.300  0.00  0.00    +0.000 A 
ATOM     22  C   UNL     1       2.401   4.081  21.055  0.00  0.00    +0.000 A 
ATOM     23  C   UNL     1       1.683   5.108  20.435  0.00  0.00    +0.000 A 
ATOM     24  C   UNL     1       1.318   4.993  19.087  0.00  0.00    +0.000 A 
ATOM     25  C   UNL     1       1.754   3.908  18.337  0.00  0.00    +0.000 A 
BRANCH  20  27
ATOM     26  F   UNL     1       4.327   2.266  17.437  0.00  0.00    +0.000 F 
ATOM     27  C   UNL     1       3.184   1.864  18.059  0.00  0.00    +0.000 C 
ATOM     28  F   UNL     1       2.341   1.467  17.063  0.00  0.00    +0.000 F 
ATOM     29  F   UNL     1       3.504   0.738  18.750  0.00  0.00    +0.000 F 
ENDBRANCH  20  27
ENDBRANCH  19  23
ENDBRANCH  18  19
ENDBRANCH   1  18
TORSDOF 7
ENDMDL
MODEL 4
REMARK VINA RESULT:      -8.1      4.646      7.410
REMARK  Name = 
REMARK  7 active torsions:
REMARK  status: ('A' for Active; 'I' for Inactive)
REMARK    1  A    between atoms: C_2  and  C_5
REMARK    2  A    between atoms: C_8  and  C_9
REMARK    3  A    between atoms: C_9  and  O_10
REMARK    4  A    between atoms: O_10  and  C_11
REMARK    5  A    between atoms: C_16  and  C_17
REMARK    6  A    between atoms: N_18  and  O_19
REMARK    7  A    between atoms: O_19  and  C_20
REMARK                            x       y       z     vdW  Elec       q    Type
REMARK                         _______ _______ _______ _____ _____    ______ ____
ROOT
ATOM      1  C   UNL     1       2.286   4.100  18.715  0.00  0.00    +0.000 A 
ATOM      2  C   UNL     1       1.998   2.758  19.024  0.00  0.00    +0.000 A 
ATOM      3  C   UNL     1       1.597   2.378  20.306  0.00  0.00    +0.000 A 
ATOM      4  C   UNL     1       1.475   3.337  21.304  0.00  0.00    +0.000 A 
ATOM      5  C   UNL     1       1.760   4.671  21.014  0.00  0.00    +0.000 A 
ATOM      6  C   UNL     1       2.151   5.064  19.726  0.00  0.00    +0.000 A 
ENDROOT
BRANCH   6   7
ATOM      7  C   UNL     1       2.487   6.491  19.570  0.00  0.00    +0.000 C 
ATOM      8  N   UNL     1       1.707   7.465  19.929  0.00  0.00    +0.000 NA
BRANCH   8   9
ATOM      9  O   UNL     1       2.222   8.650  19.375  0.00  0.00    +0.000 OA
BRANCH   9  10
ATOM     10  C   UNL     1       1.170   9.434  18.806  0.00  0.00    +0.000 C 
ATOM     11  C   UNL     1       1.649  10.807  18.268  0.00  0.00    +0.000 C 
ATOM     12  N   UNL     1       0.964  11.956  18.928  0.00  0.00    +0.000 NA
ATOM     13  C   UNL     1      -0.502  11.810  18.766  0.00  0.00    +0.000 C 
ATOM     14  C   UNL     1      -1.014  10.477  19.335  0.00  0.00    +0.000 C 
ATOM     15  C   UNL     1       0.159   9.697  19.939  0.00  0.00    +0.000 C 
ATOM     16  C   UNL     1       0.826  10.589  21.007  0.00  0.00    +0.000 C 
ATOM     17  C   UNL     1       1.274  11.916  20.373  0.00  0.00    +0.000 C 
ENDBRANCH   9  10
ENDBRANCH   8   9
ENDBRANCH   6   7
BRANCH   1  18
ATOM     18  O   UNL     1       2.663   4.267  17.412  0.00  0.00    +0.000 OA
BRANCH  18  19
ATOM     19  C   UNL     1       3.844   3.616  16.931  0.00  0.00    +0.000 C 
BRANCH  19  23
ATOM     20  C   UNL     1       6.882   6.596  17.466  0.00  0.00    +0.000 A 
ATOM     21  C   UNL     1       6.792   5.518  18.362  0.00  0.00    +0.000 A 
ATOM     22  C   UNL     1       5.855   4.508  18.156  0.00  0.00    +0.000 A 
ATOM     23  C   UNL     1       4.992   4.578  17.059  0.00  0.00    +0.000 A 
ATOM     24  C   UNL     1       5.144   5.599  16.112  0.00  0.00    +0.000 A 
ATOM     25  C   UNL     1       6.085   6.601  16.313  0.00  0.00    +0.000 A 
BRANCH  20  27
ATOM     26  F   UNL     1       8.544   7.619  18.863  0.00  0.00    +0.000 F 
ATOM     27  C   UNL     1       7.757   7.784  17.764  0.00  0.00    +0.000 C 
ATOM     28  F   UNL     1       7.023   8.908  18.000  0.00  0.00    +0.000 F 
ATOM     29  F   UNL     1       8.596   8.092  16.739  0.00  0.00    +0.000 F 
ENDBRANCH  20  27
ENDBRANCH  19  23
ENDBRANCH  18  19
ENDBRANCH   1  18
TORSDOF 7
ENDMDL
MODEL 5
REMARK VINA RESULT:      -8.1      5.634      7.834
REMARK  Name = 
REMARK  7 active torsions:
REMARK  status: ('A' for Active; 'I' for Inactive)
REMARK    1  A    between atoms: C_2  and  C_5
REMARK    2  A    between atoms: C_8  and  C_9
REMARK    3  A    between atoms: C_9  and  O_10
REMARK    4  A    between atoms: O_10  and  C_11
REMARK    5  A    between atoms: C_16  and  C_17
REMARK    6  A    between atoms: N_18  and  O_19
REMARK    7  A    between atoms: O_19  and  C_20
REMARK                            x       y       z     vdW  Elec       q    Type
REMARK                         _______ _______ _______ _____ _____    ______ ____
ROOT
ATOM      1  C   UNL     1       3.743   5.136  19.338  0.00  0.00    +0.000 A 
ATOM      2  C   UNL     1       3.935   3.785  19.677  0.00  0.00    +0.000 A 
ATOM      3  C   UNL     1       2.993   3.083  20.431  0.00  0.00    +0.000 A 
ATOM      4  C   UNL     1       1.836   3.724  20.858  0.00  0.00    +0.000 A 
ATOM      5  C   UNL     1       1.631   5.064  20.532  0.00  0.00    +0.000 A 
ATOM      6  C   UNL     1       2.567   5.774  19.764  0.00  0.00    +0.000 A 
ENDROOT
BRANCH   6   7
ATOM      7  C   UNL     1       2.264   7.200  19.548  0.00  0.00    +0.000 C 
ATOM      8  N   UNL     1       1.629   7.946  20.401  0.00  0.00    +0.000 NA
BRANCH   8   9
ATOM      9  O   UNL     1       1.279   9.139  19.746  0.00  0.00    +0.000 OA
BRANCH   9  10
ATOM     10  C   UNL     1       0.109   9.710  20.338  0.00  0.00    +0.000 C 
ATOM     11  C   UNL     1      -0.823  10.402  19.310  0.00  0.00    +0.000 C 
ATOM     12  N   UNL     1      -1.033  11.849  19.604  0.00  0.00    +0.000 NA
ATOM     13  C   UNL     1      -1.564  11.998  20.980  0.00  0.00    +0.000 C 
ATOM     14  C   UNL     1      -0.634  11.364  22.026  0.00  0.00    +0.000 C 
ATOM     15  C   UNL     1       0.601  10.785  21.327  0.00  0.00    +0.000 C 
ATOM     16  C   UNL     1       1.278  11.923  20.535  0.00  0.00    +0.000 C 
ATOM     17  C   UNL     1       0.278  12.532  19.539  0.00  0.00    +0.000 C 
ENDBRANCH   9  10
ENDBRANCH   8   9
ENDBRANCH   6   7
BRANCH   1  18
ATOM     18  O   UNL     1       4.778   5.643  18.602  0.00  0.00    +0.000 OA
BRANCH  18  19
ATOM     19  C   UNL     1       5.865   4.789  18.233  0.00  0.00    +0.000 C 
BRANCH  19  23
ATOM     20  C   UNL     1       6.141   4.191  13.995  0.00  0.00    +0.000 A 
ATOM     21  C   UNL     1       4.972   3.823  14.679  0.00  0.00    +0.000 A 
ATOM     22  C   UNL     1       4.844   4.078  16.043  0.00  0.00    +0.000 A 
ATOM     23  C   UNL     1       5.894   4.692  16.733  0.00  0.00    +0.000 A 
ATOM     24  C   UNL     1       7.020   5.148  16.035  0.00  0.00    +0.000 A 
ATOM     25  C   UNL     1       7.142   4.901  14.673  0.00  0.00    +0.000 A 
BRANCH  20  27
ATOM     26  F   UNL     1       5.280   3.913  11.772  0.00  0.00    +0.000 F 
ATOM     27  C   UNL     1       6.374   3.767  12.570  0.00  0.00    +0.000 C 
ATOM     28  F   UNL     1       6.721   2.451  12.483  0.00  0.00    +0.000 F 
ATOM     29  F   UNL     1       7.377   4.460  11.969  0.00  0.00    +0.000 F 
ENDBRANCH  20  27
ENDBRANCH  19  23
ENDBRANCH  18  19
ENDBRANCH   1  18
TORSDOF 7
ENDMDL
MODEL 6
REMARK VINA RESULT:      -8.0      3.384      3.951
REMARK  Name = 
REMARK  7 active torsions:
REMARK  status: ('A' for Active; 'I' for Inactive)
REMARK    1  A    between atoms: C_2  and  C_5
REMARK    2  A    between atoms: C_8  and  C_9
REMARK    3  A    between atoms: C_9  and  O_10
REMARK    4  A    between atoms: O_10  and  C_11
REMARK    5  A    between atoms: C_16  and  C_17
REMARK    6  A    between atoms: N_18  and  O_19
REMARK    7  A    between atoms: O_19  and  C_20
REMARK                            x       y       z     vdW  Elec       q    Type
REMARK                         _______ _______ _______ _____ _____    ______ ____
ROOT
ATOM      1  C   UNL     1       5.203   6.461  17.204  0.00  0.00    +0.000 A 
ATOM      2  C   UNL     1       4.775   5.150  16.928  0.00  0.00    +0.000 A 
ATOM      3  C   UNL     1       5.680   4.152  16.561  0.00  0.00    +0.000 A 
ATOM      4  C   UNL     1       7.034   4.449  16.468  0.00  0.00    +0.000 A 
ATOM      5  C   UNL     1       7.474   5.745  16.736  0.00  0.00    +0.000 A 
ATOM      6  C   UNL     1       6.573   6.751  17.116  0.00  0.00    +0.000 A 
ENDROOT
BRANCH   6   7
ATOM      7  C   UNL     1       7.157   8.092  17.305  0.00  0.00    +0.000 C 
ATOM      8  N   UNL     1       8.137   8.350  18.118  0.00  0.00    +0.000 NA
BRANCH   8   9
ATOM      9  O   UNL     1       8.230   9.746  18.244  0.00  0.00    +0.000 OA
BRANCH   9  10
ATOM     10  C   UNL     1       9.472  10.112  18.850  0.00  0.00    +0.000 C 
ATOM     11  C   UNL     1       9.310  10.699  20.276  0.00  0.00    +0.000 C 
ATOM     12  N   UNL     1       9.847  12.086  20.393  0.00  0.00    +0.000 NA
ATOM     13  C   UNL     1      11.269  12.098  19.978  0.00  0.00    +0.000 C 
ATOM     14  C   UNL     1      11.455  11.567  18.548  0.00  0.00    +0.000 C 
ATOM     15  C   UNL     1      10.088  11.207  17.956  0.00  0.00    +0.000 C 
ATOM     16  C   UNL     1       9.196  12.464  18.018  0.00  0.00    +0.000 C 
ATOM     17  C   UNL     1       9.089  12.958  19.469  0.00  0.00    +0.000 C 
ENDBRANCH   9  10
ENDBRANCH   8   9
ENDBRANCH   6   7
BRANCH   1  18
ATOM     18  O   UNL     1       4.168   7.289  17.540  0.00  0.00    +0.000 OA
BRANCH  18  19
ATOM     19  C   UNL     1       3.115   6.798  18.375  0.00  0.00    +0.000 C 
BRANCH  19  23
ATOM     20  C   UNL     1       0.383   9.941  19.403  0.00  0.00    +0.000 A 
ATOM     21  C   UNL     1       0.789   9.018  20.380  0.00  0.00    +0.000 A 
ATOM     22  C   UNL     1       1.730   8.037  20.075  0.00  0.00    +0.000 A 
ATOM     23  C   UNL     1       2.261   7.966  18.784  0.00  0.00    +0.000 A 
ATOM     24  C   UNL     1       1.932   8.943  17.836  0.00  0.00    +0.000 A 
ATOM     25  C   UNL     1       1.000   9.926  18.144  0.00  0.00    +0.000 A 
BRANCH  20  27
ATOM     26  F   UNL     1      -1.911  10.537  19.021  0.00  0.00    +0.000 F 
ATOM     27  C   UNL     1      -0.758  10.890  19.655  0.00  0.00    +0.000 C 
ATOM     28  F   UNL     1      -0.472  12.152  19.225  0.00  0.00    +0.000 F 
ATOM     29  F   UNL     1      -1.069  11.004  20.973  0.00  0.00    +0.000 F 
ENDBRANCH  20  27
ENDBRANCH  19  23
ENDBRANCH  18  19
ENDBRANCH   1  18
TORSDOF 7
ENDMDL
MODEL 7
REMARK VINA RESULT:      -8.0      4.723      7.469
REMARK  Name = 
REMARK  7 active torsions:
REMARK  status: ('A' for Active; 'I' for Inactive)
REMARK    1  A    between atoms: C_2  and  C_5
REMARK    2  A    between atoms: C_8  and  C_9
REMARK    3  A    between atoms: C_9  and  O_10
REMARK    4  A    between atoms: O_10  and  C_11
REMARK    5  A    between atoms: C_16  and  C_17
REMARK    6  A    between atoms: N_18  and  O_19
REMARK    7  A    between atoms: O_19  and  C_20
REMARK                            x       y       z     vdW  Elec       q    Type
REMARK                         _______ _______ _______ _____ _____    ______ ____
ROOT
ATOM      1  C   UNL     1       2.497   3.708  18.785  0.00  0.00    +0.000 A 
ATOM      2  C   UNL     1       2.416   2.440  19.387  0.00  0.00    +0.000 A 
ATOM      3  C   UNL     1       2.101   2.296  20.740  0.00  0.00    +0.000 A 
ATOM      4  C   UNL     1       1.857   3.424  21.514  0.00  0.00    +0.000 A 
ATOM      5  C   UNL     1       1.937   4.689  20.933  0.00  0.00    +0.000 A 
ATOM      6  C   UNL     1       2.241   4.842  19.572  0.00  0.00    +0.000 A 
ENDROOT
BRANCH   6   7
ATOM      7  C   UNL     1       2.360   6.233  19.098  0.00  0.00    +0.000 C 
ATOM      8  N   UNL     1       1.792   7.248  19.675  0.00  0.00    +0.000 NA
BRANCH   8   9
ATOM      9  O   UNL     1       1.887   8.344  18.800  0.00  0.00    +0.000 OA
BRANCH   9  10
ATOM     10  C   UNL     1       1.700   9.570  19.512  0.00  0.00    +0.000 C 
ATOM     11  C   UNL     1       0.625   9.475  20.625  0.00  0.00    +0.000 C 
ATOM     12  N   UNL     1      -0.498  10.436  20.425  0.00  0.00    +0.000 NA
ATOM     13  C   UNL     1       0.044  11.812  20.333  0.00  0.00    +0.000 C 
ATOM     14  C   UNL     1       1.078  11.948  19.204  0.00  0.00    +0.000 C 
ATOM     15  C   UNL     1       1.219  10.606  18.477  0.00  0.00    +0.000 C 
ATOM     16  C   UNL     1      -0.177  10.192  17.966  0.00  0.00    +0.000 C 
ATOM     17  C   UNL     1      -1.163  10.115  19.143  0.00  0.00    +0.000 C 
ENDBRANCH   9  10
ENDBRANCH   8   9
ENDBRANCH   6   7
BRANCH   1  18
ATOM     18  O   UNL     1       2.822   3.638  17.458  0.00  0.00    +0.000 OA
BRANCH  18  19
ATOM     19  C   UNL     1       4.178   3.392  17.077  0.00  0.00    +0.000 C 
BRANCH  19  23
ATOM     20  C   UNL     1       6.729   6.784  17.693  0.00  0.00    +0.000 A 
ATOM     21  C   UNL     1       5.705   6.843  16.734  0.00  0.00    +0.000 A 
ATOM     22  C   UNL     1       4.826   5.774  16.577  0.00  0.00    +0.000 A 
ATOM     23  C   UNL     1       4.977   4.631  17.368  0.00  0.00    +0.000 A 
ATOM     24  C   UNL     1       5.936   4.609  18.390  0.00  0.00    +0.000 A 
ATOM     25  C   UNL     1       6.805   5.680  18.553  0.00  0.00    +0.000 A 
BRANCH  20  27
ATOM     26  F   UNL     1       7.302   9.102  17.942  0.00  0.00    +0.000 F 
ATOM     27  C   UNL     1       7.795   7.846  17.758  0.00  0.00    +0.000 C 
ATOM     28  F   UNL     1       8.527   7.901  16.609  0.00  0.00    +0.000 F 
ATOM     29  F   UNL     1       8.688   7.637  18.761  0.00  0.00    +0.000 F 
ENDBRANCH  20  27
ENDBRANCH  19  23
ENDBRANCH  18  19
ENDBRANCH   1  18
TORSDOF 7
ENDMDL
MODEL 8
REMARK VINA RESULT:      -8.0      1.592      2.264
REMARK  Name = 
REMARK  7 active torsions:
REMARK  status: ('A' for Active; 'I' for Inactive)
REMARK    1  A    between atoms: C_2  and  C_5
REMARK    2  A    between atoms: C_8  and  C_9
REMARK    3  A    between atoms: C_9  and  O_10
REMARK    4  A    between atoms: O_10  and  C_11
REMARK    5  A    between atoms: C_16  and  C_17
REMARK    6  A    between atoms: N_18  and  O_19
REMARK    7  A    between atoms: O_19  and  C_20
REMARK                            x       y       z     vdW  Elec       q    Type
REMARK                         _______ _______ _______ _____ _____    ______ ____
ROOT
ATOM      1  C   UNL     1       6.896   6.584  17.199  0.00  0.00    +0.000 A 
ATOM      2  C   UNL     1       6.852   5.208  17.486  0.00  0.00    +0.000 A 
ATOM      3  C   UNL     1       7.574   4.662  18.549  0.00  0.00    +0.000 A 
ATOM      4  C   UNL     1       8.354   5.489  19.348  0.00  0.00    +0.000 A 
ATOM      5  C   UNL     1       8.411   6.855  19.076  0.00  0.00    +0.000 A 
ATOM      6  C   UNL     1       7.679   7.414  18.018  0.00  0.00    +0.000 A 
ENDROOT
BRANCH   6   7
ATOM      7  C   UNL     1       7.880   8.857  17.795  0.00  0.00    +0.000 C 
ATOM      8  N   UNL     1       8.842   9.548  18.329  0.00  0.00    +0.000 NA
BRANCH   8   9
ATOM      9  O   UNL     1       8.551  10.908  18.129  0.00  0.00    +0.000 OA
BRANCH   9  10
ATOM     10  C   UNL     1       9.204  11.709  19.118  0.00  0.00    +0.000 C 
ATOM     11  C   UNL     1       9.039  13.233  18.880  0.00  0.00    +0.000 C 
ATOM     12  N   UNL     1      10.344  13.935  18.710  0.00  0.00    +0.000 NA
ATOM     13  C   UNL     1      11.197  13.676  19.894  0.00  0.00    +0.000 C 
ATOM     14  C   UNL     1      11.419  12.173  20.125  0.00  0.00    +0.000 C 
ATOM     15  C   UNL     1      10.706  11.377  19.027  0.00  0.00    +0.000 C 
ATOM     16  C   UNL     1      11.244  11.860  17.663  0.00  0.00    +0.000 C 
ATOM     17  C   UNL     1      11.023  13.374  17.521  0.00  0.00    +0.000 C 
ENDBRANCH   9  10
ENDBRANCH   8   9
ENDBRANCH   6   7
BRANCH   1  18
ATOM     18  O   UNL     1       6.126   6.919  16.120  0.00  0.00    +0.000 OA
BRANCH  18  19
ATOM     19  C   UNL     1       5.089   6.032  15.692  0.00  0.00    +0.000 C 
BRANCH  19  23
ATOM     20  C   UNL     1       2.515   5.626  19.099  0.00  0.00    +0.000 A 
ATOM     21  C   UNL     1       2.900   6.903  18.660  0.00  0.00    +0.000 A 
ATOM     22  C   UNL     1       3.677   7.049  17.512  0.00  0.00    +0.000 A 
ATOM     23  C   UNL     1       4.086   5.915  16.805  0.00  0.00    +0.000 A 
ATOM     24  C   UNL     1       3.623   4.648  17.184  0.00  0.00    +0.000 A 
ATOM     25  C   UNL     1       2.840   4.505  18.323  0.00  0.00    +0.000 A 
BRANCH  20  27
ATOM     26  F   UNL     1       2.617   4.830  21.360  0.00  0.00    +0.000 F 
ATOM     27  C   UNL     1       1.832   5.434  20.426  0.00  0.00    +0.000 C 
ATOM     28  F   UNL     1       0.721   4.650  20.316  0.00  0.00    +0.000 F 
ATOM     29  F   UNL     1       1.412   6.602  20.980  0.00  0.00    +0.000 F 
ENDBRANCH  20  27
ENDBRANCH  19  23
ENDBRANCH  18  19
ENDBRANCH   1  18
TORSDOF 7
ENDMDL
MODEL 9
REMARK VINA RESULT:      -8.0      4.601      6.373
REMARK  Name = 
REMARK  7 active torsions:
REMARK  status: ('A' for Active; 'I' for Inactive)
REMARK    1  A    between atoms: C_2  and  C_5
REMARK    2  A    between atoms: C_8  and  C_9
REMARK    3  A    between atoms: C_9  and  O_10
REMARK    4  A    between atoms: O_10  and  C_11
REMARK    5  A    between atoms: C_16  and  C_17
REMARK    6  A    between atoms: N_18  and  O_19
REMARK    7  A    between atoms: O_19  and  C_20
REMARK                            x       y       z     vdW  Elec       q    Type
REMARK                         _______ _______ _______ _____ _____    ______ ____
ROOT
ATOM      1  C   UNL     1       2.128   4.409  18.610  0.00  0.00    +0.000 A 
ATOM      2  C   UNL     1       1.185   3.828  19.477  0.00  0.00    +0.000 A 
ATOM      3  C   UNL     1       0.975   2.448  19.503  0.00  0.00    +0.000 A 
ATOM      4  C   UNL     1       1.710   1.623  18.661  0.00  0.00    +0.000 A 
ATOM      5  C   UNL     1       2.647   2.183  17.794  0.00  0.00    +0.000 A 
ATOM      6  C   UNL     1       2.874   3.567  17.769  0.00  0.00    +0.000 A 
ENDROOT
BRANCH   6   7
ATOM      7  C   UNL     1       3.841   4.037  16.761  0.00  0.00    +0.000 C 
ATOM      8  N   UNL     1       5.103   3.733  16.768  0.00  0.00    +0.000 NA
BRANCH   8   9
ATOM      9  O   UNL     1       5.749   4.574  15.846  0.00  0.00    +0.000 OA
BRANCH   9  10
ATOM     10  C   UNL     1       6.875   5.213  16.456  0.00  0.00    +0.000 C 
ATOM     11  C   UNL     1       7.381   4.483  17.726  0.00  0.00    +0.000 C 
ATOM     12  N   UNL     1       7.340   5.346  18.943  0.00  0.00    +0.000 NA
ATOM     13  C   UNL     1       8.125   6.578  18.696  0.00  0.00    +0.000 C 
ATOM     14  C   UNL     1       7.613   7.350  17.469  0.00  0.00    +0.000 C 
ATOM     15  C   UNL     1       6.403   6.619  16.875  0.00  0.00    +0.000 C 
ATOM     16  C   UNL     1       5.339   6.481  17.984  0.00  0.00    +0.000 C 
ATOM     17  C   UNL     1       5.934   5.736  19.189  0.00  0.00    +0.000 C 
ENDBRANCH   9  10
ENDBRANCH   8   9
ENDBRANCH   6   7
BRANCH   1  18
ATOM     18  O   UNL     1       2.182   5.770  18.732  0.00  0.00    +0.000 OA
BRANCH  18  19
ATOM     19  C   UNL     1       2.309   6.357  20.031  0.00  0.00    +0.000 C 
BRANCH  19  23
ATOM     20  C   UNL     1       0.551  10.252  19.670  0.00  0.00    +0.000 A 
ATOM     21  C   UNL     1       0.529   9.586  20.906  0.00  0.00    +0.000 A 
ATOM     22  C   UNL     1       1.160   8.352  21.051  0.00  0.00    +0.000 A 
ATOM     23  C   UNL     1       1.805   7.771  19.955  0.00  0.00    +0.000 A 
ATOM     24  C   UNL     1       1.912   8.477  18.750  0.00  0.00    +0.000 A 
ATOM     25  C   UNL     1       1.291   9.712  18.609  0.00  0.00    +0.000 A 
BRANCH  20  27
ATOM     26  F   UNL     1      -0.337  12.310  20.529  0.00  0.00    +0.000 F 
ATOM     27  C   UNL     1      -0.270  11.493  19.441  0.00  0.00    +0.000 C 
ATOM     28  F   UNL     1      -1.562  11.194  19.124  0.00  0.00    +0.000 F 
ATOM     29  F   UNL     1       0.200  12.257  18.420  0.00  0.00    +0.000 F 
ENDBRANCH  20  27
ENDBRANCH  19  23
ENDBRANCH  18  19
ENDBRANCH   1  18
TORSDOF 7
ENDMDL
