MODEL 1
REMARK VINA RESULT:      -6.8      0.000      0.000
REMARK  Name = 
REMARK  7 active torsions:
REMARK  status: ('A' for Active; 'I' for Inactive)
REMARK    1  A    between atoms: C_1  and  C_2
REMARK    2  A    between atoms: C_2  and  C_3
REMARK    3  A    between atoms: C_2  and  C_4
REMARK    4  A    between atoms: C_4  and  N_5
REMARK    5  A    between atoms: N_9  and  C_10
REMARK    6  A    between atoms: C_10  and  C_11
REMARK    7  A    between atoms: C_10  and  C_12
REMARK                            x       y       z     vdW  Elec       q    Type
REMARK                         _______ _______ _______ _____ _____    ______ ____
ROOT
ATOM      1  N   UNL     1       6.785   5.546  17.718  0.00  0.00    +0.000 NA
ATOM      2  C   UNL     1       6.258   5.322  19.073  0.00  0.00    +0.000 C 
ATOM      3  C   UNL     1       4.765   5.553  19.042  0.00  0.00    +0.000 C 
ATOM      4  C   UNL     1       3.930   4.874  20.068  0.00  0.00    +0.000 C 
ATOM      5  N   UNL     1       2.903   3.909  19.299  0.00  0.00    +0.000 NA
ATOM      6  C   UNL     1       3.367   3.585  17.374  0.00  0.00    +0.000 C 
ATOM      7  C   UNL     1       4.562   4.512  16.674  0.00  0.00    +0.000 C 
ATOM      8  C   UNL     1       6.126   4.604  16.746  0.00  0.00    +0.000 C 
ATOM      9  C   UNL     1       4.183   4.694  18.028  0.00  0.00    +0.000 C 
ATOM     10  C   UNL     1       4.703   2.852  18.676  0.00  0.00    +0.000 C 
ATOM     11  C   UNL     1       3.302   1.693  18.796  0.00  0.00    +0.000 C 
ATOM     12  C   UNL     1       1.682   2.127  18.113  0.00  0.00    +0.000 C 
ATOM     13  C   UNL     1       1.103   3.842  17.707  0.00  0.00    +0.000 C 
ATOM     14  C   UNL     1       2.315   5.283  17.743  0.00  0.00    +0.000 C 
ENDROOT
BRANCH   5  15
ATOM     15  C   UNL     1       1.702   3.814  20.272  0.00  0.00    +0.000 C 
ATOM     16  C   UNL     1       2.057   3.009  21.554  0.00  0.00    +0.000 C 
ATOM     17  C   UNL     1       1.100   5.150  20.832  0.00  0.00    +0.000 C 
ENDBRANCH   5  15
BRANCH   1  18
ATOM     18  C   UNL     1       6.699   6.973  17.334  0.00  0.00    +0.000 C 
BRANCH  18  20
ATOM     19  C   UNL     1       7.734   9.297  17.590  0.00  0.00    +0.000 C 
ATOM     20  C   UNL     1       7.981   7.790  17.687  0.00  0.00    +0.000 C 
ATOM     21  C   UNL     1       8.538   7.410  19.056  0.00  0.00    +0.000 C 
ENDBRANCH  18  20
ENDBRANCH   1  18
TORSDOF 3
ENDMDL
MODEL 2
REMARK VINA RESULT:      -6.4      2.776      4.069
REMARK  Name = 
REMARK  7 active torsions:
REMARK  status: ('A' for Active; 'I' for Inactive)
REMARK    1  A    between atoms: C_1  and  C_2
REMARK    2  A    between atoms: C_2  and  C_3
REMARK    3  A    between atoms: C_2  and  C_4
REMARK    4  A    between atoms: C_4  and  N_5
REMARK    5  A    between atoms: N_9  and  C_10
REMARK    6  A    between atoms: C_10  and  C_11
REMARK    7  A    between atoms: C_10  and  C_12
REMARK                            x       y       z     vdW  Elec       q    Type
REMARK                         _______ _______ _______ _____ _____    ______ ____
ROOT
ATOM      1  N   UNL     1       2.762   8.418  18.424  0.00  0.00    +0.000 NA
ATOM      2  C   UNL     1       2.419   7.675  19.646  0.00  0.00    +0.000 C 
ATOM      3  C   UNL     1       1.751   6.382  19.241  0.00  0.00    +0.000 C 
ATOM      4  C   UNL     1       1.817   5.234  20.183  0.00  0.00    +0.000 C 
ATOM      5  N   UNL     1       2.587   4.038  19.439  0.00  0.00    +0.000 NA
ATOM      6  C   UNL     1       3.566   4.599  17.780  0.00  0.00    +0.000 C 
ATOM      7  C   UNL     1       3.296   6.127  17.172  0.00  0.00    +0.000 C 
ATOM      8  C   UNL     1       3.682   7.596  17.562  0.00  0.00    +0.000 C 
ATOM      9  C   UNL     1       2.633   5.667  18.338  0.00  0.00    +0.000 C 
ATOM     10  C   UNL     1       4.285   5.401  19.471  0.00  0.00    +0.000 C 
ATOM     11  C   UNL     1       4.864   3.675  19.533  0.00  0.00    +0.000 C 
ATOM     12  C   UNL     1       4.153   2.422  18.434  0.00  0.00    +0.000 C 
ATOM     13  C   UNL     1       2.530   2.556  17.547  0.00  0.00    +0.000 C 
ATOM     14  C   UNL     1       1.593   4.189  17.530  0.00  0.00    +0.000 C 
ENDROOT
BRANCH   5  15
ATOM     15  C   UNL     1       2.023   2.768  20.123  0.00  0.00    +0.000 C 
ATOM     16  C   UNL     1       2.394   2.708  21.632  0.00  0.00    +0.000 C 
ATOM     17  C   UNL     1       0.469   2.556  20.118  0.00  0.00    +0.000 C 
ENDBRANCH   5  15
BRANCH   1  18
ATOM     18  C   UNL     1       1.548   8.901  17.728  0.00  0.00    +0.000 C 
BRANCH  18  20
ATOM     19  C   UNL     1       1.383  11.248  18.731  0.00  0.00    +0.000 C 
ATOM     20  C   UNL     1       0.694   9.890  18.580  0.00  0.00    +0.000 C 
ATOM     21  C   UNL     1      -0.718  10.047  18.024  0.00  0.00    +0.000 C 
ENDBRANCH  18  20
ENDBRANCH   1  18
TORSDOF 3
ENDMDL
MODEL 3
REMARK VINA RESULT:      -6.1      1.112      1.976
REMARK  Name = 
REMARK  7 active torsions:
REMARK  status: ('A' for Active; 'I' for Inactive)
REMARK    1  A    between atoms: C_1  and  C_2
REMARK    2  A    between atoms: C_2  and  C_3
REMARK    3  A    between atoms: C_2  and  C_4
REMARK    4  A    between atoms: C_4  and  N_5
REMARK    5  A    between atoms: N_9  and  C_10
REMARK    6  A    between atoms: C_10  and  C_11
REMARK    7  A    between atoms: C_10  and  C_12
REMARK                            x       y       z     vdW  Elec       q    Type
REMARK                         _______ _______ _______ _____ _____    ______ ____
ROOT
ATOM      1  N   UNL     1       7.295   6.199  17.451  0.00  0.00    +0.000 NA
ATOM      2  C   UNL     1       7.097   4.832  17.958  0.00  0.00    +0.000 C 
ATOM      3  C   UNL     1       5.952   4.856  18.943  0.00  0.00    +0.000 C 
ATOM      4  C   UNL     1       5.192   3.598  19.163  0.00  0.00    +0.000 C 
ATOM      5  N   UNL     1       3.667   3.869  18.740  0.00  0.00    +0.000 NA
ATOM      6  C   UNL     1       3.400   5.546  17.671  0.00  0.00    +0.000 C 
ATOM      7  C   UNL     1       4.666   6.623  17.543  0.00  0.00    +0.000 C 
ATOM      8  C   UNL     1       6.036   6.690  16.786  0.00  0.00    +0.000 C 
ATOM      9  C   UNL     1       4.787   5.422  18.288  0.00  0.00    +0.000 C 
ATOM     10  C   UNL     1       4.500   4.148  16.746  0.00  0.00    +0.000 C 
ATOM     11  C   UNL     1       2.800   3.503  16.633  0.00  0.00    +0.000 C 
ATOM     12  C   UNL     1       1.478   4.199  17.658  0.00  0.00    +0.000 C 
ATOM     13  C   UNL     1       1.717   5.196  19.203  0.00  0.00    +0.000 C 
ATOM     14  C   UNL     1       3.436   5.795  19.686  0.00  0.00    +0.000 C 
ENDROOT
BRANCH   5  15
ATOM     15  C   UNL     1       2.869   2.862  19.603  0.00  0.00    +0.000 C 
ATOM     16  C   UNL     1       3.054   1.399  19.108  0.00  0.00    +0.000 C 
ATOM     17  C   UNL     1       3.203   2.776  21.134  0.00  0.00    +0.000 C 
ENDBRANCH   5  15
BRANCH   1  18
ATOM     18  C   UNL     1       7.813   7.097  18.507  0.00  0.00    +0.000 C 
BRANCH  18  20
ATOM     19  C   UNL     1       7.154   9.302  17.390  0.00  0.00    +0.000 C 
ATOM     20  C   UNL     1       8.306   8.475  17.965  0.00  0.00    +0.000 C 
ATOM     21  C   UNL     1       9.074   9.260  19.025  0.00  0.00    +0.000 C 
ENDBRANCH  18  20
ENDBRANCH   1  18
TORSDOF 3
ENDMDL
MODEL 4
REMARK VINA RESULT:      -6.1      1.280      5.679
REMARK  Name = 
REMARK  7 active torsions:
REMARK  status: ('A' for Active; 'I' for Inactive)
REMARK    1  A    between atoms: C_1  and  C_2
REMARK    2  A    between atoms: C_2  and  C_3
REMARK    3  A    between atoms: C_2  and  C_4
REMARK    4  A    between atoms: C_4  and  N_5
REMARK    5  A    between atoms: N_9  and  C_10
REMARK    6  A    between atoms: C_10  and  C_11
REMARK    7  A    between atoms: C_10  and  C_12
REMARK                            x       y       z     vdW  Elec       q    Type
REMARK                         _______ _______ _______ _____ _____    ______ ____
ROOT
ATOM      1  N   UNL     1       1.687   4.252  19.261  0.00  0.00    +0.000 NA
ATOM      2  C   UNL     1       2.792   5.075  19.778  0.00  0.00    +0.000 C 
ATOM      3  C   UNL     1       4.089   4.506  19.254  0.00  0.00    +0.000 C 
ATOM      4  C   UNL     1       5.258   5.417  19.140  0.00  0.00    +0.000 C 
ATOM      5  N   UNL     1       5.685   5.472  17.594  0.00  0.00    +0.000 NA
ATOM      6  C   UNL     1       4.307   4.732  16.337  0.00  0.00    +0.000 C 
ATOM      7  C   UNL     1       3.008   3.905  16.973  0.00  0.00    +0.000 C 
ATOM      8  C   UNL     1       1.698   4.263  17.756  0.00  0.00    +0.000 C 
ATOM      9  C   UNL     1       4.019   4.448  17.806  0.00  0.00    +0.000 C 
ATOM     10  C   UNL     1       3.728   6.385  17.312  0.00  0.00    +0.000 C 
ATOM     11  C   UNL     1       4.899   7.009  16.063  0.00  0.00    +0.000 C 
ATOM     12  C   UNL     1       6.003   5.874  15.183  0.00  0.00    +0.000 C 
ATOM     13  C   UNL     1       6.454   4.161  15.732  0.00  0.00    +0.000 C 
ATOM     14  C   UNL     1       5.547   3.360  17.174  0.00  0.00    +0.000 C 
ENDROOT
BRANCH   5  15
ATOM     15  C   UNL     1       7.196   5.806  17.649  0.00  0.00    +0.000 C 
ATOM     16  C   UNL     1       7.450   7.340  17.666  0.00  0.00    +0.000 C 
ATOM     17  C   UNL     1       8.022   5.284  18.877  0.00  0.00    +0.000 C 
ENDBRANCH   5  15
BRANCH   1  18
ATOM     18  C   UNL     1       1.696   2.898  19.858  0.00  0.00    +0.000 C 
BRANCH  18  20
ATOM     19  C   UNL     1       1.129   2.488  22.318  0.00  0.00    +0.000 C 
ATOM     20  C   UNL     1       2.229   2.869  21.325  0.00  0.00    +0.000 C 
ATOM     21  C   UNL     1       3.444   1.956  21.470  0.00  0.00    +0.000 C 
ENDBRANCH  18  20
ENDBRANCH   1  18
TORSDOF 3
ENDMDL
MODEL 5
REMARK VINA RESULT:      -6.1      1.080      1.490
REMARK  Name = 
REMARK  7 active torsions:
REMARK  status: ('A' for Active; 'I' for Inactive)
REMARK    1  A    between atoms: C_1  and  C_2
REMARK    2  A    between atoms: C_2  and  C_3
REMARK    3  A    between atoms: C_2  and  C_4
REMARK    4  A    between atoms: C_4  and  N_5
REMARK    5  A    between atoms: N_9  and  C_10
REMARK    6  A    between atoms: C_10  and  C_11
REMARK    7  A    between atoms: C_10  and  C_12
REMARK                            x       y       z     vdW  Elec       q    Type
REMARK                         _______ _______ _______ _____ _____    ______ ____
ROOT
ATOM      1  N   UNL     1       5.971   6.069  16.921  0.00  0.00    +0.000 NA
ATOM      2  C   UNL     1       6.216   4.947  17.841  0.00  0.00    +0.000 C 
ATOM      3  C   UNL     1       5.173   4.995  18.932  0.00  0.00    +0.000 C 
ATOM      4  C   UNL     1       4.834   3.730  19.634  0.00  0.00    +0.000 C 
ATOM      5  N   UNL     1       3.276   3.435  19.380  0.00  0.00    +0.000 NA
ATOM      6  C   UNL     1       2.464   4.529  17.908  0.00  0.00    +0.000 C 
ATOM      7  C   UNL     1       3.344   5.794  17.274  0.00  0.00    +0.000 C 
ATOM      8  C   UNL     1       4.588   5.963  16.335  0.00  0.00    +0.000 C 
ATOM      9  C   UNL     1       3.858   4.985  18.319  0.00  0.00    +0.000 C 
ATOM     10  C   UNL     1       3.875   3.244  17.295  0.00  0.00    +0.000 C 
ATOM     11  C   UNL     1       2.439   2.176  17.637  0.00  0.00    +0.000 C 
ATOM     12  C   UNL     1       1.030   2.799  18.590  0.00  0.00    +0.000 C 
ATOM     13  C   UNL     1       1.050   4.279  19.707  0.00  0.00    +0.000 C 
ATOM     14  C   UNL     1       2.537   5.433  19.725  0.00  0.00    +0.000 C 
ENDROOT
BRANCH   5  15
ATOM     15  C   UNL     1       2.863   2.600  20.617  0.00  0.00    +0.000 C 
ATOM     16  C   UNL     1       4.021   1.690  21.116  0.00  0.00    +0.000 C 
ATOM     17  C   UNL     1       2.417   3.368  21.910  0.00  0.00    +0.000 C 
ENDBRANCH   5  15
BRANCH   1  18
ATOM     18  C   UNL     1       6.258   7.369  17.567  0.00  0.00    +0.000 C 
BRANCH  18  20
ATOM     19  C   UNL     1       8.071   9.160  17.786  0.00  0.00    +0.000 C 
ATOM     20  C   UNL     1       7.782   7.658  17.734  0.00  0.00    +0.000 C 
ATOM     21  C   UNL     1       8.367   6.941  18.948  0.00  0.00    +0.000 C 
ENDBRANCH  18  20
ENDBRANCH   1  18
TORSDOF 3
ENDMDL
MODEL 6
REMARK VINA RESULT:      -6.1      2.950      4.606
REMARK  Name = 
REMARK  7 active torsions:
REMARK  status: ('A' for Active; 'I' for Inactive)
REMARK    1  A    between atoms: C_1  and  C_2
REMARK    2  A    between atoms: C_2  and  C_3
REMARK    3  A    between atoms: C_2  and  C_4
REMARK    4  A    between atoms: C_4  and  N_5
REMARK    5  A    between atoms: N_9  and  C_10
REMARK    6  A    between atoms: C_10  and  C_11
REMARK    7  A    between atoms: C_10  and  C_12
REMARK                            x       y       z     vdW  Elec       q    Type
REMARK                         _______ _______ _______ _____ _____    ______ ____
ROOT
ATOM      1  N   UNL     1       1.901   8.612  19.577  0.00  0.00    +0.000 NA
ATOM      2  C   UNL     1       2.062   7.544  20.576  0.00  0.00    +0.000 C 
ATOM      3  C   UNL     1       1.577   6.251  19.967  0.00  0.00    +0.000 C 
ATOM      4  C   UNL     1       2.126   4.976  20.500  0.00  0.00    +0.000 C 
ATOM      5  N   UNL     1       2.881   4.229  19.296  0.00  0.00    +0.000 NA
ATOM      6  C   UNL     1       3.234   5.395  17.701  0.00  0.00    +0.000 C 
ATOM      7  C   UNL     1       2.511   6.895  17.633  0.00  0.00    +0.000 C 
ATOM      8  C   UNL     1       2.692   8.283  18.339  0.00  0.00    +0.000 C 
ATOM      9  C   UNL     1       2.299   6.021  18.729  0.00  0.00    +0.000 C 
ATOM     10  C   UNL     1       4.218   5.948  19.358  0.00  0.00    +0.000 C 
ATOM     11  C   UNL     1       5.120   4.469  18.794  0.00  0.00    +0.000 C 
ATOM     12  C   UNL     1       4.397   3.361  17.558  0.00  0.00    +0.000 C 
ATOM     13  C   UNL     1       2.599   3.261  17.114  0.00  0.00    +0.000 C 
ATOM     14  C   UNL     1       1.390   4.548  17.769  0.00  0.00    +0.000 C 
ENDROOT
BRANCH   5  15
ATOM     15  C   UNL     1       2.790   2.734  19.687  0.00  0.00    +0.000 C 
ATOM     16  C   UNL     1       3.688   2.399  20.912  0.00  0.00    +0.000 C 
ATOM     17  C   UNL     1       1.387   2.162  20.093  0.00  0.00    +0.000 C 
ENDBRANCH   5  15
BRANCH   1  18
ATOM     18  C   UNL     1       0.472   8.904  19.325  0.00  0.00    +0.000 C 
BRANCH  18  20
ATOM     19  C   UNL     1      -1.204  10.131  17.834  0.00  0.00    +0.000 C 
ATOM     20  C   UNL     1       0.244  10.079  18.323  0.00  0.00    +0.000 C 
ATOM     21  C   UNL     1       0.677  11.419  18.911  0.00  0.00    +0.000 C 
ENDBRANCH  18  20
ENDBRANCH   1  18
TORSDOF 3
ENDMDL
MODEL 7
REMARK VINA RESULT:      -6.1      1.228      2.194
REMARK  Name = 
REMARK  7 active torsions:
REMARK  status: ('A' for Active; 'I' for Inactive)
REMARK    1  A    between atoms: C_1  and  C_2
REMARK    2  A    between atoms: C_2  and  C_3
REMARK    3  A    between atoms: C_2  and  C_4
REMARK    4  A    between atoms: C_4  and  N_5
REMARK    5  A    between atoms: N_9  and  C_10
REMARK    6  A    between atoms: C_10  and  C_11
REMARK    7  A    between atoms: C_10  and  C_12
REMARK                            x       y       z     vdW  Elec       q    Type
REMARK                         _______ _______ _______ _____ _____    ______ ____
ROOT
ATOM      1  N   UNL     1       5.870   7.008  16.772  0.00  0.00    +0.000 NA
ATOM      2  C   UNL     1       6.249   5.635  17.142  0.00  0.00    +0.000 C 
ATOM      3  C   UNL     1       5.501   5.263  18.401  0.00  0.00    +0.000 C 
ATOM      4  C   UNL     1       5.251   3.822  18.667  0.00  0.00    +0.000 C 
ATOM      5  N   UNL     1       3.662   3.604  18.718  0.00  0.00    +0.000 NA
ATOM      6  C   UNL     1       2.600   5.139  17.980  0.00  0.00    +0.000 C 
ATOM      7  C   UNL     1       3.390   6.567  17.640  0.00  0.00    +0.000 C 
ATOM      8  C   UNL     1       4.384   7.090  16.547  0.00  0.00    +0.000 C 
ATOM      9  C   UNL     1       4.080   5.446  18.169  0.00  0.00    +0.000 C 
ATOM     10  C   UNL     1       3.733   4.193  16.622  0.00  0.00    +0.000 C 
ATOM     11  C   UNL     1       2.348   3.043  16.906  0.00  0.00    +0.000 C 
ATOM     12  C   UNL     1       1.253   3.249  18.334  0.00  0.00    +0.000 C 
ATOM     13  C   UNL     1       1.641   4.225  19.862  0.00  0.00    +0.000 C 
ATOM     14  C   UNL     1       3.166   5.326  19.921  0.00  0.00    +0.000 C 
ENDROOT
BRANCH   5  15
ATOM     15  C   UNL     1       3.497   2.370  19.638  0.00  0.00    +0.000 C 
ATOM     16  C   UNL     1       3.740   1.039  18.872  0.00  0.00    +0.000 C 
ATOM     17  C   UNL     1       4.438   2.251  20.888  0.00  0.00    +0.000 C 
ENDBRANCH   5  15
BRANCH   1  18
ATOM     18  C   UNL     1       6.392   7.993  17.746  0.00  0.00    +0.000 C 
BRANCH  18  20
ATOM     19  C   UNL     1       8.489   9.423  18.061  0.00  0.00    +0.000 C 
ATOM     20  C   UNL     1       7.950   8.008  17.841  0.00  0.00    +0.000 C 
ATOM     21  C   UNL     1       8.463   7.049  18.911  0.00  0.00    +0.000 C 
ENDBRANCH  18  20
ENDBRANCH   1  18
TORSDOF 3
ENDMDL
MODEL 8
REMARK VINA RESULT:      -6.0      1.345      5.672
REMARK  Name = 
REMARK  7 active torsions:
REMARK  status: ('A' for Active; 'I' for Inactive)
REMARK    1  A    between atoms: C_1  and  C_2
REMARK    2  A    between atoms: C_2  and  C_3
REMARK    3  A    between atoms: C_2  and  C_4
REMARK    4  A    between atoms: C_4  and  N_5
REMARK    5  A    between atoms: N_9  and  C_10
REMARK    6  A    between atoms: C_10  and  C_11
REMARK    7  A    between atoms: C_10  and  C_12
REMARK                            x       y       z     vdW  Elec       q    Type
REMARK                         _______ _______ _______ _____ _____    ______ ____
ROOT
ATOM      1  N   UNL     1       1.616   5.430  19.392  0.00  0.00    +0.000 NA
ATOM      2  C   UNL     1       2.746   6.327  19.682  0.00  0.00    +0.000 C 
ATOM      3  C   UNL     1       4.027   5.557  19.464  0.00  0.00    +0.000 C 
ATOM      4  C   UNL     1       5.257   6.323  19.136  0.00  0.00    +0.000 C 
ATOM      5  N   UNL     1       5.761   5.840  17.690  0.00  0.00    +0.000 NA
ATOM      6  C   UNL     1       4.400   4.787  16.657  0.00  0.00    +0.000 C 
ATOM      7  C   UNL     1       3.020   4.280  17.442  0.00  0.00    +0.000 C 
ATOM      8  C   UNL     1       1.700   4.938  17.972  0.00  0.00    +0.000 C 
ATOM      9  C   UNL     1       4.023   5.022  18.115  0.00  0.00    +0.000 C 
ATOM     10  C   UNL     1       3.885   6.696  16.991  0.00  0.00    +0.000 C 
ATOM     11  C   UNL     1       5.153   6.813  15.688  0.00  0.00    +0.000 C 
ATOM     12  C   UNL     1       6.222   5.400  15.309  0.00  0.00    +0.000 C 
ATOM     13  C   UNL     1       6.532   3.949  16.421  0.00  0.00    +0.000 C 
ATOM     14  C   UNL     1       5.506   3.717  17.983  0.00  0.00    +0.000 C 
ENDROOT
BRANCH   5  15
ATOM     15  C   UNL     1       7.286   6.104  17.734  0.00  0.00    +0.000 C 
ATOM     16  C   UNL     1       7.619   7.614  17.566  0.00  0.00    +0.000 C 
ATOM     17  C   UNL     1       8.068   5.699  19.033  0.00  0.00    +0.000 C 
ENDBRANCH   5  15
BRANCH   1  18
ATOM     18  C   UNL     1       1.507   4.354  20.402  0.00  0.00    +0.000 C 
BRANCH  18  20
ATOM     19  C   UNL     1       2.908   2.253  20.804  0.00  0.00    +0.000 C 
ATOM     20  C   UNL     1       1.925   2.950  19.863  0.00  0.00    +0.000 C 
ATOM     21  C   UNL     1       0.713   2.068  19.577  0.00  0.00    +0.000 C 
ENDBRANCH  18  20
ENDBRANCH   1  18
TORSDOF 3
ENDMDL
MODEL 9
REMARK VINA RESULT:      -5.9      1.288      2.577
REMARK  Name = 
REMARK  7 active torsions:
REMARK  status: ('A' for Active; 'I' for Inactive)
REMARK    1  A    between atoms: C_1  and  C_2
REMARK    2  A    between atoms: C_2  and  C_3
REMARK    3  A    between atoms: C_2  and  C_4
REMARK    4  A    between atoms: C_4  and  N_5
REMARK    5  A    between atoms: N_9  and  C_10
REMARK    6  A    between atoms: C_10  and  C_11
REMARK    7  A    between atoms: C_10  and  C_12
REMARK                            x       y       z     vdW  Elec       q    Type
REMARK                         _______ _______ _______ _____ _____    ______ ____
ROOT
ATOM      1  N   UNL     1       6.077   5.558  15.841  0.00  0.00    +0.000 NA
ATOM      2  C   UNL     1       5.735   4.170  16.190  0.00  0.00    +0.000 C 
ATOM      3  C   UNL     1       5.438   4.115  17.670  0.00  0.00    +0.000 C 
ATOM      4  C   UNL     1       4.551   3.031  18.168  0.00  0.00    +0.000 C 
ATOM      5  N   UNL     1       3.265   3.720  18.836  0.00  0.00    +0.000 NA
ATOM      6  C   UNL     1       3.051   5.664  18.386  0.00  0.00    +0.000 C 
ATOM      7  C   UNL     1       4.305   6.450  17.620  0.00  0.00    +0.000 C 
ATOM      8  C   UNL     1       4.931   6.473  16.183  0.00  0.00    +0.000 C 
ATOM      9  C   UNL     1       4.395   5.079  17.971  0.00  0.00    +0.000 C 
ATOM     10  C   UNL     1       2.868   4.432  16.816  0.00  0.00    +0.000 C 
ATOM     11  C   UNL     1       1.304   4.209  17.723  0.00  0.00    +0.000 C 
ATOM     12  C   UNL     1       1.130   4.802  19.425  0.00  0.00    +0.000 C 
ATOM     13  C   UNL     1       2.526   5.201  20.579  0.00  0.00    +0.000 C 
ATOM     14  C   UNL     1       4.296   5.262  19.939  0.00  0.00    +0.000 C 
ENDROOT
BRANCH   5  15
ATOM     15  C   UNL     1       2.799   2.677  19.880  0.00  0.00    +0.000 C 
ATOM     16  C   UNL     1       2.120   1.449  19.209  0.00  0.00    +0.000 C 
ATOM     17  C   UNL     1       3.883   2.032  20.812  0.00  0.00    +0.000 C 
ENDBRANCH   5  15
BRANCH   1  18
ATOM     18  C   UNL     1       7.372   5.960  16.433  0.00  0.00    +0.000 C 
BRANCH  18  20
ATOM     19  C   UNL     1       7.859   6.221  18.930  0.00  0.00    +0.000 C 
ATOM     20  C   UNL     1       7.226   6.865  17.696  0.00  0.00    +0.000 C 
ATOM     21  C   UNL     1       7.781   8.267  17.457  0.00  0.00    +0.000 C 
ENDBRANCH  18  20
ENDBRANCH   1  18
TORSDOF 3
ENDMDL
