MODEL 1
REMARK VINA RESULT:      -8.1      0.000      0.000
REMARK  Name = 
REMARK  8 active torsions:
REMARK  status: ('A' for Active; 'I' for Inactive)
REMARK    1  A    between atoms: C_1  and  C_2
REMARK    2  A    between atoms: C_7  and  O_8
REMARK    3  A    between atoms: O_8  and  C_9
REMARK    4  A    between atoms: C_9  and  C_10
REMARK    5  A    between atoms: C_10  and  C_11
REMARK    6  A    between atoms: C_11  and  C_12
REMARK    7  A    between atoms: CA_13  and  C_14
REMARK    8  A    between atoms: C_14  and  OXT_16
REMARK                            x       y       z     vdW  Elec       q    Type
REMARK                         _______ _______ _______ _____ _____    ______ ____
ROOT
ATOM      1  C   UNL     1       5.658   4.980  15.714  0.00  0.00    +0.000 A 
ATOM      2  CA  UNL     1       6.839   5.653  16.050  0.00  0.00    +0.000 A 
ATOM      3  N   UNL     1       7.680   5.537  14.961  0.00  0.00    +0.000 N 
ATOM      4  C   UNL     1       7.110   4.805  13.955  0.00  0.00    +0.000 A 
ATOM      5  C   UNL     1       7.610   4.458  12.694  0.00  0.00    +0.000 A 
ATOM      6  C   UNL     1       6.771   3.733  11.843  0.00  0.00    +0.000 A 
ATOM      7  C   UNL     1       5.487   3.372  12.239  0.00  0.00    +0.000 A 
ATOM      8  C   UNL     1       5.009   3.723  13.507  0.00  0.00    +0.000 A 
ATOM      9  C   UNL     1       5.838   4.448  14.389  0.00  0.00    +0.000 A 
ATOM     10  H   UNL     1       8.594   5.972  14.912  0.00  0.00    +0.000 HD
ENDROOT
BRANCH   2  11
ATOM     11  C   UNL     1       7.270   6.446  17.179  0.00  0.00    +0.000 C 
ATOM     12  O   UNL     1       7.493   7.649  17.133  0.00  0.00    +0.000 OA
BRANCH  11  13
ATOM     13  OXT UNL     1       7.456   5.724  18.304  0.00  0.00    +0.000 OA
ATOM     14  HXT UNL     1       7.384   4.770  18.137  0.00  0.00    +0.000 HD
ENDBRANCH  11  13
ENDBRANCH   2  11
BRANCH   1  15
ATOM     15  C   UNL     1       4.361   4.854  16.467  0.00  0.00    +0.000 C 
BRANCH  15  16
ATOM     16  C   UNL     1       4.190   3.505  17.171  0.00  0.00    +0.000 C 
BRANCH  16  17
ATOM     17  C   UNL     1       2.799   2.918  16.946  0.00  0.00    +0.000 C 
BRANCH  17  18
ATOM     18  O   UNL     1       1.832   3.772  17.545  0.00  0.00    +0.000 OA
BRANCH  18  25
ATOM     19  C   UNL     1       2.475   6.295  19.246  0.00  0.00    +0.000 C 
ATOM     20  C   UNL     1       2.122   4.921  19.739  0.00  0.00    +0.000 A 
ATOM     21  C   UNL     1       2.142   4.729  21.136  0.00  0.00    +0.000 A 
ATOM     22  C   UNL     1       1.872   3.487  21.705  0.00  0.00    +0.000 A 
ATOM     23  C   UNL     1       1.566   2.407  20.888  0.00  0.00    +0.000 A 
ATOM     24  C   UNL     1       1.543   2.576  19.504  0.00  0.00    +0.000 A 
ATOM     25  C   UNL     1       1.814   3.822  18.916  0.00  0.00    +0.000 A 
ENDBRANCH  18  25
ENDBRANCH  17  18
ENDBRANCH  16  17
ENDBRANCH  15  16
ENDBRANCH   1  15
TORSDOF 7
ENDMDL
MODEL 2
REMARK VINA RESULT:      -8.0      1.284      1.822
REMARK  Name = 
REMARK  8 active torsions:
REMARK  status: ('A' for Active; 'I' for Inactive)
REMARK    1  A    between atoms: C_1  and  C_2
REMARK    2  A    between atoms: C_7  and  O_8
REMARK    3  A    between atoms: O_8  and  C_9
REMARK    4  A    between atoms: C_9  and  C_10
REMARK    5  A    between atoms: C_10  and  C_11
REMARK    6  A    between atoms: C_11  and  C_12
REMARK    7  A    between atoms: CA_13  and  C_14
REMARK    8  A    between atoms: C_14  and  OXT_16
REMARK                            x       y       z     vdW  Elec       q    Type
REMARK                         _______ _______ _______ _____ _____    ______ ____
ROOT
ATOM      1  C   UNL     1       6.046   4.270  15.955  0.00  0.00    +0.000 A 
ATOM      2  CA  UNL     1       7.014   5.183  16.389  0.00  0.00    +0.000 A 
ATOM      3  N   UNL     1       7.719   5.570  15.265  0.00  0.00    +0.000 N 
ATOM      4  C   UNL     1       7.270   4.934  14.140  0.00  0.00    +0.000 A 
ATOM      5  C   UNL     1       7.697   5.038  12.811  0.00  0.00    +0.000 A 
ATOM      6  C   UNL     1       7.009   4.293  11.850  0.00  0.00    +0.000 A 
ATOM      7  C   UNL     1       5.938   3.479  12.207  0.00  0.00    +0.000 A 
ATOM      8  C   UNL     1       5.532   3.384  13.542  0.00  0.00    +0.000 A 
ATOM      9  C   UNL     1       6.215   4.119  14.534  0.00  0.00    +0.000 A 
ATOM     10  H   UNL     1       8.457   6.264  15.281  0.00  0.00    +0.000 HD
ENDROOT
BRANCH   2  11
ATOM     11  C   UNL     1       7.329   5.807  17.655  0.00  0.00    +0.000 C 
ATOM     12  O   UNL     1       7.610   6.991  17.790  0.00  0.00    +0.000 OA
BRANCH  11  13
ATOM     13  OXT UNL     1       7.332   4.945  18.692  0.00  0.00    +0.000 OA
ATOM     14  HXT UNL     1       7.506   4.033  18.405  0.00  0.00    +0.000 HD
ENDBRANCH  11  13
ENDBRANCH   2  11
BRANCH   1  15
ATOM     15  C   UNL     1       4.938   3.593  16.715  0.00  0.00    +0.000 C 
BRANCH  15  16
ATOM     16  C   UNL     1       3.670   4.442  16.834  0.00  0.00    +0.000 C 
BRANCH  16  17
ATOM     17  C   UNL     1       3.837   5.579  17.839  0.00  0.00    +0.000 C 
BRANCH  17  18
ATOM     18  O   UNL     1       4.239   5.037  19.091  0.00  0.00    +0.000 OA
BRANCH  18  25
ATOM     19  C   UNL     1       4.597   2.121  20.112  0.00  0.00    +0.000 C 
ATOM     20  C   UNL     1       3.388   3.001  20.251  0.00  0.00    +0.000 A 
ATOM     21  C   UNL     1       2.257   2.423  20.863  0.00  0.00    +0.000 A 
ATOM     22  C   UNL     1       1.065   3.130  21.009  0.00  0.00    +0.000 A 
ATOM     23  C   UNL     1       0.982   4.438  20.554  0.00  0.00    +0.000 A 
ATOM     24  C   UNL     1       2.090   5.028  19.945  0.00  0.00    +0.000 A 
ATOM     25  C   UNL     1       3.296   4.326  19.790  0.00  0.00    +0.000 A 
ENDBRANCH  18  25
ENDBRANCH  17  18
ENDBRANCH  16  17
ENDBRANCH  15  16
ENDBRANCH   1  15
TORSDOF 7
ENDMDL
MODEL 3
REMARK VINA RESULT:      -7.9      3.051      6.936
REMARK  Name = 
REMARK  8 active torsions:
REMARK  status: ('A' for Active; 'I' for Inactive)
REMARK    1  A    between atoms: C_1  and  C_2
REMARK    2  A    between atoms: C_7  and  O_8
REMARK    3  A    between atoms: O_8  and  C_9
REMARK    4  A    between atoms: C_9  and  C_10
REMARK    5  A    between atoms: C_10  and  C_11
REMARK    6  A    between atoms: C_11  and  C_12
REMARK    7  A    between atoms: CA_13  and  C_14
REMARK    8  A    between atoms: C_14  and  OXT_16
REMARK                            x       y       z     vdW  Elec       q    Type
REMARK                         _______ _______ _______ _____ _____    ______ ____
ROOT
ATOM      1  C   UNL     1       2.399   5.145  19.182  0.00  0.00    +0.000 A 
ATOM      2  CA  UNL     1       1.948   4.879  20.480  0.00  0.00    +0.000 A 
ATOM      3  N   UNL     1       1.553   6.091  21.013  0.00  0.00    +0.000 N 
ATOM      4  C   UNL     1       1.749   7.121  20.133  0.00  0.00    +0.000 A 
ATOM      5  C   UNL     1       1.484   8.489  20.268  0.00  0.00    +0.000 A 
ATOM      6  C   UNL     1       1.746   9.310  19.168  0.00  0.00    +0.000 A 
ATOM      7  C   UNL     1       2.253   8.782  17.984  0.00  0.00    +0.000 A 
ATOM      8  C   UNL     1       2.518   7.413  17.873  0.00  0.00    +0.000 A 
ATOM      9  C   UNL     1       2.270   6.562  18.971  0.00  0.00    +0.000 A 
ATOM     10  H   UNL     1       1.139   6.188  21.933  0.00  0.00    +0.000 HD
ENDROOT
BRANCH   2  11
ATOM     11  C   UNL     1       1.752   3.680  21.264  0.00  0.00    +0.000 C 
ATOM     12  O   UNL     1       2.479   3.332  22.185  0.00  0.00    +0.000 OA
BRANCH  11  13
ATOM     13  OXT UNL     1       0.704   2.936  20.855  0.00  0.00    +0.000 OA
ATOM     14  HXT UNL     1      -0.124   3.445  20.858  0.00  0.00    +0.000 HD
ENDBRANCH  11  13
ENDBRANCH   2  11
BRANCH   1  15
ATOM     15  C   UNL     1       2.859   4.204  18.100  0.00  0.00    +0.000 C 
BRANCH  15  16
ATOM     16  C   UNL     1       3.877   3.168  18.582  0.00  0.00    +0.000 C 
BRANCH  16  17
ATOM     17  C   UNL     1       5.091   3.824  19.235  0.00  0.00    +0.000 C 
BRANCH  17  18
ATOM     18  O   UNL     1       6.108   3.998  18.256  0.00  0.00    +0.000 OA
BRANCH  18  25
ATOM     19  C   UNL     1       5.229   5.856  15.922  0.00  0.00    +0.000 C 
ATOM     20  C   UNL     1       6.226   6.152  17.006  0.00  0.00    +0.000 A 
ATOM     21  C   UNL     1       6.889   7.394  16.929  0.00  0.00    +0.000 A 
ATOM     22  C   UNL     1       7.863   7.760  17.856  0.00  0.00    +0.000 A 
ATOM     23  C   UNL     1       8.189   6.892  18.889  0.00  0.00    +0.000 A 
ATOM     24  C   UNL     1       7.545   5.659  18.983  0.00  0.00    +0.000 A 
ATOM     25  C   UNL     1       6.562   5.277  18.055  0.00  0.00    +0.000 A 
ENDBRANCH  18  25
ENDBRANCH  17  18
ENDBRANCH  16  17
ENDBRANCH  15  16
ENDBRANCH   1  15
TORSDOF 7
ENDMDL
MODEL 4
REMARK VINA RESULT:      -7.8      2.600      4.615
REMARK  Name = 
REMARK  8 active torsions:
REMARK  status: ('A' for Active; 'I' for Inactive)
REMARK    1  A    between atoms: C_1  and  C_2
REMARK    2  A    between atoms: C_7  and  O_8
REMARK    3  A    between atoms: O_8  and  C_9
REMARK    4  A    between atoms: C_9  and  C_10
REMARK    5  A    between atoms: C_10  and  C_11
REMARK    6  A    between atoms: C_11  and  C_12
REMARK    7  A    between atoms: CA_13  and  C_14
REMARK    8  A    between atoms: C_14  and  OXT_16
REMARK                            x       y       z     vdW  Elec       q    Type
REMARK                         _______ _______ _______ _____ _____    ______ ____
ROOT
ATOM      1  C   UNL     1       5.002   4.440  17.250  0.00  0.00    +0.000 A 
ATOM      2  CA  UNL     1       6.082   4.241  18.119  0.00  0.00    +0.000 A 
ATOM      3  N   UNL     1       5.615   3.446  19.148  0.00  0.00    +0.000 N 
ATOM      4  C   UNL     1       4.289   3.145  18.996  0.00  0.00    +0.000 A 
ATOM      5  C   UNL     1       3.439   2.374  19.797  0.00  0.00    +0.000 A 
ATOM      6  C   UNL     1       2.123   2.197  19.361  0.00  0.00    +0.000 A 
ATOM      7  C   UNL     1       1.679   2.769  18.172  0.00  0.00    +0.000 A 
ATOM      8  C   UNL     1       2.544   3.543  17.390  0.00  0.00    +0.000 A 
ATOM      9  C   UNL     1       3.875   3.744  17.811  0.00  0.00    +0.000 A 
ATOM     10  H   UNL     1       6.202   3.107  19.901  0.00  0.00    +0.000 HD
ENDROOT
BRANCH   2  11
ATOM     11  C   UNL     1       7.482   4.602  18.101  0.00  0.00    +0.000 C 
ATOM     12  O   UNL     1       8.132   4.896  19.095  0.00  0.00    +0.000 OA
BRANCH  11  13
ATOM     13  OXT UNL     1       8.012   4.634  16.861  0.00  0.00    +0.000 OA
ATOM     14  HXT UNL     1       7.410   4.254  16.200  0.00  0.00    +0.000 HD
ENDBRANCH  11  13
ENDBRANCH   2  11
BRANCH   1  15
ATOM     15  C   UNL     1       4.941   5.140  15.919  0.00  0.00    +0.000 C 
BRANCH  15  16
ATOM     16  C   UNL     1       5.023   6.665  16.026  0.00  0.00    +0.000 C 
BRANCH  16  17
ATOM     17  C   UNL     1       4.478   7.173  17.358  0.00  0.00    +0.000 C 
BRANCH  17  18
ATOM     18  O   UNL     1       3.058   7.082  17.345  0.00  0.00    +0.000 OA
BRANCH  18  25
ATOM     19  C   UNL     1       1.812   9.858  17.985  0.00  0.00    +0.000 C 
ATOM     20  C   UNL     1       1.849   8.644  18.867  0.00  0.00    +0.000 A 
ATOM     21  C   UNL     1       1.311   8.789  20.162  0.00  0.00    +0.000 A 
ATOM     22  C   UNL     1       1.328   7.742  21.082  0.00  0.00    +0.000 A 
ATOM     23  C   UNL     1       1.877   6.520  20.721  0.00  0.00    +0.000 A 
ATOM     24  C   UNL     1       2.416   6.355  19.445  0.00  0.00    +0.000 A 
ATOM     25  C   UNL     1       2.406   7.402  18.509  0.00  0.00    +0.000 A 
ENDBRANCH  18  25
ENDBRANCH  17  18
ENDBRANCH  16  17
ENDBRANCH  15  16
ENDBRANCH   1  15
TORSDOF 7
ENDMDL
MODEL 5
REMARK VINA RESULT:      -7.7      1.146      1.608
REMARK  Name = 
REMARK  8 active torsions:
REMARK  status: ('A' for Active; 'I' for Inactive)
REMARK    1  A    between atoms: C_1  and  C_2
REMARK    2  A    between atoms: C_7  and  O_8
REMARK    3  A    between atoms: O_8  and  C_9
REMARK    4  A    between atoms: C_9  and  C_10
REMARK    5  A    between atoms: C_10  and  C_11
REMARK    6  A    between atoms: C_11  and  C_12
REMARK    7  A    between atoms: CA_13  and  C_14
REMARK    8  A    between atoms: C_14  and  OXT_16
REMARK                            x       y       z     vdW  Elec       q    Type
REMARK                         _______ _______ _______ _____ _____    ______ ____
ROOT
ATOM      1  C   UNL     1       6.182   4.388  15.872  0.00  0.00    +0.000 A 
ATOM      2  CA  UNL     1       7.043   5.439  16.211  0.00  0.00    +0.000 A 
ATOM      3  N   UNL     1       7.677   5.817  15.043  0.00  0.00    +0.000 N 
ATOM      4  C   UNL     1       7.285   5.050  13.981  0.00  0.00    +0.000 A 
ATOM      5  C   UNL     1       7.673   5.101  12.637  0.00  0.00    +0.000 A 
ATOM      6  C   UNL     1       7.061   4.209  11.752  0.00  0.00    +0.000 A 
ATOM      7  C   UNL     1       6.100   3.305  12.197  0.00  0.00    +0.000 A 
ATOM      8  C   UNL     1       5.733   3.266  13.546  0.00  0.00    +0.000 A 
ATOM      9  C   UNL     1       6.342   4.149  14.462  0.00  0.00    +0.000 A 
ATOM     10  H   UNL     1       8.327   6.592  14.988  0.00  0.00    +0.000 HD
ENDROOT
BRANCH   2  11
ATOM     11  C   UNL     1       7.304   6.190  17.418  0.00  0.00    +0.000 C 
ATOM     12  O   UNL     1       7.202   5.734  18.550  0.00  0.00    +0.000 OA
BRANCH  11  13
ATOM     13  OXT UNL     1       7.634   7.478  17.189  0.00  0.00    +0.000 OA
ATOM     14  HXT UNL     1       7.226   7.816  16.375  0.00  0.00    +0.000 HD
ENDBRANCH  11  13
ENDBRANCH   2  11
BRANCH   1  15
ATOM     15  C   UNL     1       5.175   3.646  16.709  0.00  0.00    +0.000 C 
BRANCH  15  16
ATOM     16  C   UNL     1       3.920   4.464  17.025  0.00  0.00    +0.000 C 
BRANCH  16  17
ATOM     17  C   UNL     1       2.646   3.642  16.849  0.00  0.00    +0.000 C 
BRANCH  17  18
ATOM     18  O   UNL     1       2.708   2.501  17.696  0.00  0.00    +0.000 OA
BRANCH  18  25
ATOM     19  C   UNL     1       4.708   2.071  20.039  0.00  0.00    +0.000 C 
ATOM     20  C   UNL     1       3.269   2.492  20.125  0.00  0.00    +0.000 A 
ATOM     21  C   UNL     1       2.738   2.655  21.421  0.00  0.00    +0.000 A 
ATOM     22  C   UNL     1       1.404   3.002  21.624  0.00  0.00    +0.000 A 
ATOM     23  C   UNL     1       0.572   3.205  20.532  0.00  0.00    +0.000 A 
ATOM     24  C   UNL     1       1.078   3.047  19.242  0.00  0.00    +0.000 A 
ATOM     25  C   UNL     1       2.420   2.696  19.023  0.00  0.00    +0.000 A 
ENDBRANCH  18  25
ENDBRANCH  17  18
ENDBRANCH  16  17
ENDBRANCH  15  16
ENDBRANCH   1  15
TORSDOF 7
ENDMDL
MODEL 6
REMARK VINA RESULT:      -7.7      3.641      5.172
REMARK  Name = 
REMARK  8 active torsions:
REMARK  status: ('A' for Active; 'I' for Inactive)
REMARK    1  A    between atoms: C_1  and  C_2
REMARK    2  A    between atoms: C_7  and  O_8
REMARK    3  A    between atoms: O_8  and  C_9
REMARK    4  A    between atoms: C_9  and  C_10
REMARK    5  A    between atoms: C_10  and  C_11
REMARK    6  A    between atoms: C_11  and  C_12
REMARK    7  A    between atoms: CA_13  and  C_14
REMARK    8  A    between atoms: C_14  and  OXT_16
REMARK                            x       y       z     vdW  Elec       q    Type
REMARK                         _______ _______ _______ _____ _____    ______ ____
ROOT
ATOM      1  C   UNL     1       3.969   4.590  18.230  0.00  0.00    +0.000 A 
ATOM      2  CA  UNL     1       4.562   3.497  18.871  0.00  0.00    +0.000 A 
ATOM      3  N   UNL     1       5.916   3.763  18.928  0.00  0.00    +0.000 N 
ATOM      4  C   UNL     1       6.224   4.958  18.337  0.00  0.00    +0.000 A 
ATOM      5  C   UNL     1       7.459   5.599  18.182  0.00  0.00    +0.000 A 
ATOM      6  C   UNL     1       7.464   6.855  17.570  0.00  0.00    +0.000 A 
ATOM      7  C   UNL     1       6.281   7.443  17.131  0.00  0.00    +0.000 A 
ATOM      8  C   UNL     1       5.058   6.781  17.288  0.00  0.00    +0.000 A 
ATOM      9  C   UNL     1       5.026   5.508  17.896  0.00  0.00    +0.000 A 
ATOM     10  H   UNL     1       6.586   3.154  19.384  0.00  0.00    +0.000 HD
ENDROOT
BRANCH   2  11
ATOM     11  C   UNL     1       4.064   2.296  19.504  0.00  0.00    +0.000 C 
ATOM     12  O   UNL     1       3.751   2.217  20.684  0.00  0.00    +0.000 OA
BRANCH  11  13
ATOM     13  OXT UNL     1       4.015   1.233  18.675  0.00  0.00    +0.000 OA
ATOM     14  HXT UNL     1       3.149   0.792  18.702  0.00  0.00    +0.000 HD
ENDBRANCH  11  13
ENDBRANCH   2  11
BRANCH   1  15
ATOM     15  C   UNL     1       2.518   4.899  17.972  0.00  0.00    +0.000 C 
BRANCH  15  16
ATOM     16  C   UNL     1       1.643   4.808  19.225  0.00  0.00    +0.000 C 
BRANCH  16  17
ATOM     17  C   UNL     1       2.061   5.821  20.287  0.00  0.00    +0.000 C 
BRANCH  17  18
ATOM     18  O   UNL     1       2.371   7.057  19.655  0.00  0.00    +0.000 OA
BRANCH  18  25
ATOM     19  C   UNL     1       1.877   9.526  17.829  0.00  0.00    +0.000 C 
ATOM     20  C   UNL     1       1.351   9.289  19.216  0.00  0.00    +0.000 A 
ATOM     21  C   UNL     1       0.591  10.331  19.787  0.00  0.00    +0.000 A 
ATOM     22  C   UNL     1       0.087  10.240  21.083  0.00  0.00    +0.000 A 
ATOM     23  C   UNL     1       0.323   9.097  21.834  0.00  0.00    +0.000 A 
ATOM     24  C   UNL     1       1.073   8.056  21.287  0.00  0.00    +0.000 A 
ATOM     25  C   UNL     1       1.588   8.135  19.983  0.00  0.00    +0.000 A 
ENDBRANCH  18  25
ENDBRANCH  17  18
ENDBRANCH  16  17
ENDBRANCH  15  16
ENDBRANCH   1  15
TORSDOF 7
ENDMDL
MODEL 7
REMARK VINA RESULT:      -7.6      1.081      1.437
REMARK  Name = 
REMARK  8 active torsions:
REMARK  status: ('A' for Active; 'I' for Inactive)
REMARK    1  A    between atoms: C_1  and  C_2
REMARK    2  A    between atoms: C_7  and  O_8
REMARK    3  A    between atoms: O_8  and  C_9
REMARK    4  A    between atoms: C_9  and  C_10
REMARK    5  A    between atoms: C_10  and  C_11
REMARK    6  A    between atoms: C_11  and  C_12
REMARK    7  A    between atoms: CA_13  and  C_14
REMARK    8  A    between atoms: C_14  and  OXT_16
REMARK                            x       y       z     vdW  Elec       q    Type
REMARK                         _______ _______ _______ _____ _____    ______ ____
ROOT
ATOM      1  C   UNL     1       5.792   4.750  15.564  0.00  0.00    +0.000 A 
ATOM      2  CA  UNL     1       6.863   5.592  15.888  0.00  0.00    +0.000 A 
ATOM      3  N   UNL     1       7.674   5.639  14.771  0.00  0.00    +0.000 N 
ATOM      4  C   UNL     1       7.193   4.854  13.759  0.00  0.00    +0.000 A 
ATOM      5  C   UNL     1       7.699   4.623  12.475  0.00  0.00    +0.000 A 
ATOM      6  C   UNL     1       6.956   3.798  11.626  0.00  0.00    +0.000 A 
ATOM      7  C   UNL     1       5.758   3.229  12.047  0.00  0.00    +0.000 A 
ATOM      8  C   UNL     1       5.275   3.467  13.338  0.00  0.00    +0.000 A 
ATOM      9  C   UNL     1       6.008   4.289  14.219  0.00  0.00    +0.000 A 
ATOM     10  H   UNL     1       8.507   6.215  14.710  0.00  0.00    +0.000 HD
ENDROOT
BRANCH   2  11
ATOM     11  C   UNL     1       7.202   6.414  17.028  0.00  0.00    +0.000 C 
ATOM     12  O   UNL     1       6.849   7.576  17.170  0.00  0.00    +0.000 OA
BRANCH  11  13
ATOM     13  OXT UNL     1       7.998   5.790  17.921  0.00  0.00    +0.000 OA
ATOM     14  HXT UNL     1       8.795   5.424  17.503  0.00  0.00    +0.000 HD
ENDBRANCH  11  13
ENDBRANCH   2  11
BRANCH   1  15
ATOM     15  C   UNL     1       4.556   4.402  16.350  0.00  0.00    +0.000 C 
BRANCH  15  16
ATOM     16  C   UNL     1       4.812   3.402  17.481  0.00  0.00    +0.000 C 
BRANCH  16  17
ATOM     17  C   UNL     1       5.163   4.102  18.791  0.00  0.00    +0.000 C 
BRANCH  17  18
ATOM     18  O   UNL     1       4.035   4.844  19.239  0.00  0.00    +0.000 OA
BRANCH  18  25
ATOM     19  C   UNL     1       1.346   4.443  17.730  0.00  0.00    +0.000 C 
ATOM     20  C   UNL     1       1.720   3.930  19.091  0.00  0.00    +0.000 A 
ATOM     21  C   UNL     1       0.717   3.236  19.800  0.00  0.00    +0.000 A 
ATOM     22  C   UNL     1       0.937   2.752  21.087  0.00  0.00    +0.000 A 
ATOM     23  C   UNL     1       2.171   2.943  21.693  0.00  0.00    +0.000 A 
ATOM     24  C   UNL     1       3.175   3.629  21.009  0.00  0.00    +0.000 A 
ATOM     25  C   UNL     1       2.967   4.123  19.711  0.00  0.00    +0.000 A 
ENDBRANCH  18  25
ENDBRANCH  17  18
ENDBRANCH  16  17
ENDBRANCH  15  16
ENDBRANCH   1  15
TORSDOF 7
ENDMDL
MODEL 8
REMARK VINA RESULT:      -7.6      3.077      6.669
REMARK  Name = 
REMARK  8 active torsions:
REMARK  status: ('A' for Active; 'I' for Inactive)
REMARK    1  A    between atoms: C_1  and  C_2
REMARK    2  A    between atoms: C_7  and  O_8
REMARK    3  A    between atoms: O_8  and  C_9
REMARK    4  A    between atoms: C_9  and  C_10
REMARK    5  A    between atoms: C_10  and  C_11
REMARK    6  A    between atoms: C_11  and  C_12
REMARK    7  A    between atoms: CA_13  and  C_14
REMARK    8  A    between atoms: C_14  and  OXT_16
REMARK                            x       y       z     vdW  Elec       q    Type
REMARK                         _______ _______ _______ _____ _____    ______ ____
ROOT
ATOM      1  C   UNL     1       2.442   4.293  19.215  0.00  0.00    +0.000 A 
ATOM      2  CA  UNL     1       2.305   4.119  20.598  0.00  0.00    +0.000 A 
ATOM      3  N   UNL     1       2.091   5.375  21.132  0.00  0.00    +0.000 N 
ATOM      4  C   UNL     1       2.108   6.346  20.168  0.00  0.00    +0.000 A 
ATOM      5  C   UNL     1       1.931   7.730  20.276  0.00  0.00    +0.000 A 
ATOM      6  C   UNL     1       1.951   8.479  19.096  0.00  0.00    +0.000 A 
ATOM      7  C   UNL     1       2.141   7.865  17.861  0.00  0.00    +0.000 A 
ATOM      8  C   UNL     1       2.324   6.481  17.777  0.00  0.00    +0.000 A 
ATOM      9  C   UNL     1       2.316   5.702  18.953  0.00  0.00    +0.000 A 
ATOM     10  H   UNL     1       1.913   5.540  22.116  0.00  0.00    +0.000 HD
ENDROOT
BRANCH   2  11
ATOM     11  C   UNL     1       2.260   2.973  21.479  0.00  0.00    +0.000 C 
ATOM     12  O   UNL     1       1.265   2.614  22.094  0.00  0.00    +0.000 OA
BRANCH  11  13
ATOM     13  OXT UNL     1       3.448   2.346  21.605  0.00  0.00    +0.000 OA
ATOM     14  HXT UNL     1       3.603   2.043  22.515  0.00  0.00    +0.000 HD
ENDBRANCH  11  13
ENDBRANCH   2  11
BRANCH   1  15
ATOM     15  C   UNL     1       2.596   3.276  18.117  0.00  0.00    +0.000 C 
BRANCH  15  16
ATOM     16  C   UNL     1       4.054   2.935  17.799  0.00  0.00    +0.000 C 
BRANCH  16  17
ATOM     17  C   UNL     1       4.543   3.646  16.539  0.00  0.00    +0.000 C 
BRANCH  17  18
ATOM     18  O   UNL     1       5.958   3.780  16.601  0.00  0.00    +0.000 OA
BRANCH  18  25
ATOM     19  C   UNL     1       5.243   6.625  15.566  0.00  0.00    +0.000 C 
ATOM     20  C   UNL     1       6.185   6.262  16.678  0.00  0.00    +0.000 A 
ATOM     21  C   UNL     1       6.876   7.328  17.291  0.00  0.00    +0.000 A 
ATOM     22  C   UNL     1       7.806   7.107  18.305  0.00  0.00    +0.000 A 
ATOM     23  C   UNL     1       8.058   5.813  18.737  0.00  0.00    +0.000 A 
ATOM     24  C   UNL     1       7.386   4.744  18.143  0.00  0.00    +0.000 A 
ATOM     25  C   UNL     1       6.447   4.952  17.119  0.00  0.00    +0.000 A 
ENDBRANCH  18  25
ENDBRANCH  17  18
ENDBRANCH  16  17
ENDBRANCH  15  16
ENDBRANCH   1  15
TORSDOF 7
ENDMDL
MODEL 9
REMARK VINA RESULT:      -7.5      0.871      1.387
REMARK  Name = 
REMARK  8 active torsions:
REMARK  status: ('A' for Active; 'I' for Inactive)
REMARK    1  A    between atoms: C_1  and  C_2
REMARK    2  A    between atoms: C_7  and  O_8
REMARK    3  A    between atoms: O_8  and  C_9
REMARK    4  A    between atoms: C_9  and  C_10
REMARK    5  A    between atoms: C_10  and  C_11
REMARK    6  A    between atoms: C_11  and  C_12
REMARK    7  A    between atoms: CA_13  and  C_14
REMARK    8  A    between atoms: C_14  and  OXT_16
REMARK                            x       y       z     vdW  Elec       q    Type
REMARK                         _______ _______ _______ _____ _____    ______ ____
ROOT
ATOM      1  C   UNL     1       5.735   4.670  15.544  0.00  0.00    +0.000 A 
ATOM      2  CA  UNL     1       6.835   5.470  15.877  0.00  0.00    +0.000 A 
ATOM      3  N   UNL     1       7.638   5.519  14.754  0.00  0.00    +0.000 N 
ATOM      4  C   UNL     1       7.123   4.773  13.729  0.00  0.00    +0.000 A 
ATOM      5  C   UNL     1       7.610   4.558  12.434  0.00  0.00    +0.000 A 
ATOM      6  C   UNL     1       6.834   3.777  11.573  0.00  0.00    +0.000 A 
ATOM      7  C   UNL     1       5.623   3.236  11.992  0.00  0.00    +0.000 A 
ATOM      8  C   UNL     1       5.158   3.457  13.293  0.00  0.00    +0.000 A 
ATOM      9  C   UNL     1       5.925   4.235  14.186  0.00  0.00    +0.000 A 
ATOM     10  H   UNL     1       8.487   6.069  14.699  0.00  0.00    +0.000 HD
ENDROOT
BRANCH   2  11
ATOM     11  C   UNL     1       7.210   6.252  17.034  0.00  0.00    +0.000 C 
ATOM     12  O   UNL     1       7.860   5.821  17.977  0.00  0.00    +0.000 OA
BRANCH  11  13
ATOM     13  OXT UNL     1       6.733   7.514  17.006  0.00  0.00    +0.000 OA
ATOM     14  HXT UNL     1       6.233   7.694  16.193  0.00  0.00    +0.000 HD
ENDBRANCH  11  13
ENDBRANCH   2  11
BRANCH   1  15
ATOM     15  C   UNL     1       4.496   4.341  16.333  0.00  0.00    +0.000 C 
BRANCH  15  16
ATOM     16  C   UNL     1       4.522   4.882  17.765  0.00  0.00    +0.000 C 
BRANCH  16  17
ATOM     17  C   UNL     1       3.534   6.030  17.958  0.00  0.00    +0.000 C 
BRANCH  17  18
ATOM     18  O   UNL     1       2.210   5.537  17.793  0.00  0.00    +0.000 OA
BRANCH  18  25
ATOM     19  C   UNL     1       1.772   6.060  20.827  0.00  0.00    +0.000 C 
ATOM     20  C   UNL     1       1.591   4.768  20.082  0.00  0.00    +0.000 A 
ATOM     21  C   UNL     1       1.239   3.641  20.853  0.00  0.00    +0.000 A 
ATOM     22  C   UNL     1       1.084   2.382  20.276  0.00  0.00    +0.000 A 
ATOM     23  C   UNL     1       1.270   2.224  18.910  0.00  0.00    +0.000 A 
ATOM     24  C   UNL     1       1.620   3.326  18.130  0.00  0.00    +0.000 A 
ATOM     25  C   UNL     1       1.779   4.601  18.698  0.00  0.00    +0.000 A 
ENDBRANCH  18  25
ENDBRANCH  17  18
ENDBRANCH  16  17
ENDBRANCH  15  16
ENDBRANCH   1  15
TORSDOF 7
ENDMDL
