MODEL 1
REMARK VINA RESULT:      -7.9      0.000      0.000
REMARK  Name = 
REMARK  9 active torsions:
REMARK  status: ('A' for Active; 'I' for Inactive)
REMARK    1  A    between atoms: C_2  and  O_3
REMARK    2  A    between atoms: C_2  and  C_4
REMARK    3  A    between atoms: C_4  and  C_5
REMARK    4  A    between atoms: C_5  and  N_6
REMARK    5  A    between atoms: C_5  and  C_19
REMARK    6  A    between atoms: N_9  and  C_10
REMARK    7  A    between atoms: C_13  and  N_14
REMARK    8  A    between atoms: N_21  and  C_22
REMARK    9  A    between atoms: C_25  and  N_26
REMARK                            x       y       z     vdW  Elec       q    Type
REMARK                         _______ _______ _______ _____ _____    ______ ____
ROOT
ATOM      1  C   UNL     1       1.950   5.262  20.393  0.00  0.00    +0.000 C 
ENDROOT
BRANCH   1   2
ATOM      2  N   UNL     1       2.257   6.632  20.844  0.00  0.00    +0.000 N 
ATOM      3  C   UNL     1       1.209   7.512  20.992  0.00  0.00    +0.000 C 
ATOM      4  O   UNL     1       0.081   7.222  20.605  0.00  0.00    +0.000 OA
ATOM      5  N   UNL     1       1.589   8.727  21.511  0.00  0.00    +0.000 N 
ATOM      6  H   UNL     1       2.956   6.713  21.572  0.00  0.00    +0.000 HD
ATOM      7  H   UNL     1       2.552   8.990  21.348  0.00  0.00    +0.000 HD
BRANCH   5   8
ATOM      8  C   UNL     1       0.681   9.754  21.859  0.00  0.00    +0.000 A 
ATOM      9  C   UNL     1      -0.173   9.646  22.965  0.00  0.00    +0.000 A 
ATOM     10  C   UNL     1      -1.096  10.651  23.264  0.00  0.00    +0.000 A 
ATOM     11  C   UNL     1      -1.157  11.788  22.453  0.00  0.00    +0.000 A 
ATOM     12  C   UNL     1      -0.284  11.930  21.367  0.00  0.00    +0.000 A 
ATOM     13  C   UNL     1       0.641  10.916  21.081  0.00  0.00    +0.000 A 
BRANCH  11  14
ATOM     14  N   UNL     1      -2.146  12.833  22.742  0.00  0.00    +0.000 N 
ATOM     15  O   UNL     1      -2.254  13.765  21.932  0.00  0.00    +0.000 OA
ATOM     16  O   UNL     1      -2.812  12.723  23.782  0.00  0.00    +0.000 OA
ENDBRANCH  11  14
ENDBRANCH   5   8
ENDBRANCH   1   2
BRANCH   1  17
ATOM     17  C   UNL     1       2.668   4.915  19.060  0.00  0.00    +0.000 C 
ATOM     18  O   UNL     1       2.080   4.254  18.200  0.00  0.00    +0.000 OA
ATOM     19  N   UNL     1       3.945   5.420  18.891  0.00  0.00    +0.000 N 
ATOM     20  H   UNL     1       4.400   5.813  19.713  0.00  0.00    +0.000 HD
BRANCH  19  21
ATOM     21  C   UNL     1       4.693   5.317  17.698  0.00  0.00    +0.000 A 
ATOM     22  C   UNL     1       4.656   6.307  16.708  0.00  0.00    +0.000 A 
ATOM     23  C   UNL     1       5.385   6.186  15.524  0.00  0.00    +0.000 A 
ATOM     24  C   UNL     1       6.169   5.053  15.322  0.00  0.00    +0.000 A 
ATOM     25  C   UNL     1       6.238   4.056  16.308  0.00  0.00    +0.000 A 
ATOM     26  C   UNL     1       5.509   4.201  17.499  0.00  0.00    +0.000 A 
BRANCH  24  27
ATOM     27  N   UNL     1       6.935   4.913  14.072  0.00  0.00    +0.000 N 
ATOM     28  O   UNL     1       7.950   5.620  13.936  0.00  0.00    +0.000 OA
ATOM     29  O   UNL     1       6.524   4.094  13.245  0.00  0.00    +0.000 OA
ENDBRANCH  24  27
ENDBRANCH  19  21
ENDBRANCH   1  17
BRANCH   1  30
ATOM     30  C   UNL     1       2.368   4.169  21.383  0.00  0.00    +0.000 C 
BRANCH  30  32
ATOM     31  O   UNL     1       1.379   2.152  22.309  0.00  0.00    +0.000 OA
ATOM     32  C   UNL     1       1.389   3.047  21.483  0.00  0.00    +0.000 C 
BRANCH  32  33
ATOM     33  O   UNL     1       0.453   3.148  20.517  0.00  0.00    +0.000 OA
ATOM     34  H   UNL     1      -0.044   3.974  20.678  0.00  0.00    +0.000 HD
ENDBRANCH  32  33
ENDBRANCH  30  32
ENDBRANCH   1  30
TORSDOF 9
ENDMDL
MODEL 2
REMARK VINA RESULT:      -7.9      0.528      1.346
REMARK  Name = 
REMARK  9 active torsions:
REMARK  status: ('A' for Active; 'I' for Inactive)
REMARK    1  A    between atoms: C_2  and  O_3
REMARK    2  A    between atoms: C_2  and  C_4
REMARK    3  A    between atoms: C_4  and  C_5
REMARK    4  A    between atoms: C_5  and  N_6
REMARK    5  A    between atoms: C_5  and  C_19
REMARK    6  A    between atoms: N_9  and  C_10
REMARK    7  A    between atoms: C_13  and  N_14
REMARK    8  A    between atoms: N_21  and  C_22
REMARK    9  A    between atoms: C_25  and  N_26
REMARK                            x       y       z     vdW  Elec       q    Type
REMARK                         _______ _______ _______ _____ _____    ______ ____
ROOT
ATOM      1  C   UNL     1       1.942   5.281  20.233  0.00  0.00    +0.000 C 
ENDROOT
BRANCH   1   2
ATOM      2  N   UNL     1       2.262   6.613  20.778  0.00  0.00    +0.000 N 
ATOM      3  C   UNL     1       1.233   7.514  20.926  0.00  0.00    +0.000 C 
ATOM      4  O   UNL     1       0.118   7.280  20.468  0.00  0.00    +0.000 OA
ATOM      5  N   UNL     1       1.618   8.685  21.534  0.00  0.00    +0.000 N 
ATOM      6  H   UNL     1       2.926   6.631  21.543  0.00  0.00    +0.000 HD
ATOM      7  H   UNL     1       2.595   8.928  21.434  0.00  0.00    +0.000 HD
BRANCH   5   8
ATOM      8  C   UNL     1       0.722   9.717  21.897  0.00  0.00    +0.000 A 
ATOM      9  C   UNL     1       0.717  10.959  21.249  0.00  0.00    +0.000 A 
ATOM     10  C   UNL     1      -0.143  11.981  21.655  0.00  0.00    +0.000 A 
ATOM     11  C   UNL     1      -1.022  11.755  22.718  0.00  0.00    +0.000 A 
ATOM     12  C   UNL     1      -1.057  10.507  23.353  0.00  0.00    +0.000 A 
ATOM     13  C   UNL     1      -0.192   9.487  22.931  0.00  0.00    +0.000 A 
BRANCH  11  14
ATOM     14  N   UNL     1      -1.906  12.835  23.171  0.00  0.00    +0.000 N 
ATOM     15  O   UNL     1      -3.129  12.651  23.093  0.00  0.00    +0.000 OA
ATOM     16  O   UNL     1      -1.376  13.870  23.602  0.00  0.00    +0.000 OA
ENDBRANCH  11  14
ENDBRANCH   5   8
ENDBRANCH   1   2
BRANCH   1  17
ATOM     17  C   UNL     1       2.549   5.071  18.819  0.00  0.00    +0.000 C 
ATOM     18  O   UNL     1       1.809   5.019  17.834  0.00  0.00    +0.000 OA
ATOM     19  N   UNL     1       3.928   4.997  18.738  0.00  0.00    +0.000 N 
ATOM     20  H   UNL     1       4.438   4.890  19.613  0.00  0.00    +0.000 HD
BRANCH  19  21
ATOM     21  C   UNL     1       4.657   4.940  17.530  0.00  0.00    +0.000 A 
ATOM     22  C   UNL     1       4.965   3.727  16.902  0.00  0.00    +0.000 A 
ATOM     23  C   UNL     1       5.702   3.683  15.718  0.00  0.00    +0.000 A 
ATOM     24  C   UNL     1       6.142   4.874  15.145  0.00  0.00    +0.000 A 
ATOM     25  C   UNL     1       5.829   6.103  15.746  0.00  0.00    +0.000 A 
ATOM     26  C   UNL     1       5.075   6.130  16.930  0.00  0.00    +0.000 A 
BRANCH  24  27
ATOM     27  N   UNL     1       6.927   4.835  13.900  0.00  0.00    +0.000 N 
ATOM     28  O   UNL     1       7.885   5.622  13.798  0.00  0.00    +0.000 OA
ATOM     29  O   UNL     1       6.587   4.014  13.042  0.00  0.00    +0.000 OA
ENDBRANCH  24  27
ENDBRANCH  19  21
ENDBRANCH   1  17
BRANCH   1  30
ATOM     30  C   UNL     1       2.461   4.115  21.082  0.00  0.00    +0.000 C 
BRANCH  30  32
ATOM     31  O   UNL     1       1.385   2.334  22.337  0.00  0.00    +0.000 OA
ATOM     32  C   UNL     1       1.425   3.082  21.376  0.00  0.00    +0.000 C 
BRANCH  32  33
ATOM     33  O   UNL     1       0.474   3.080  20.419  0.00  0.00    +0.000 OA
ATOM     34  H   UNL     1      -0.363   2.803  20.841  0.00  0.00    +0.000 HD
ENDBRANCH  32  33
ENDBRANCH  30  32
ENDBRANCH   1  30
TORSDOF 9
ENDMDL
MODEL 3
REMARK VINA RESULT:      -7.5      1.789      2.226
REMARK  Name = 
REMARK  9 active torsions:
REMARK  status: ('A' for Active; 'I' for Inactive)
REMARK    1  A    between atoms: C_2  and  O_3
REMARK    2  A    between atoms: C_2  and  C_4
REMARK    3  A    between atoms: C_4  and  C_5
REMARK    4  A    between atoms: C_5  and  N_6
REMARK    5  A    between atoms: C_5  and  C_19
REMARK    6  A    between atoms: N_9  and  C_10
REMARK    7  A    between atoms: C_13  and  N_14
REMARK    8  A    between atoms: N_21  and  C_22
REMARK    9  A    between atoms: C_25  and  N_26
REMARK                            x       y       z     vdW  Elec       q    Type
REMARK                         _______ _______ _______ _____ _____    ______ ____
ROOT
ATOM      1  C   UNL     1       2.809   4.356  19.769  0.00  0.00    +0.000 C 
ENDROOT
BRANCH   1   2
ATOM      2  N   UNL     1       2.696   5.624  20.513  0.00  0.00    +0.000 N 
ATOM      3  C   UNL     1       2.040   6.671  19.907  0.00  0.00    +0.000 C 
ATOM      4  O   UNL     1       1.705   6.609  18.727  0.00  0.00    +0.000 OA
ATOM      5  N   UNL     1       1.901   7.770  20.720  0.00  0.00    +0.000 N 
ATOM      6  H   UNL     1       2.495   5.542  21.502  0.00  0.00    +0.000 HD
ATOM      7  H   UNL     1       2.594   7.862  21.452  0.00  0.00    +0.000 HD
BRANCH   5   8
ATOM      8  C   UNL     1       1.167   8.926  20.366  0.00  0.00    +0.000 A 
ATOM      9  C   UNL     1       0.157   9.445  21.187  0.00  0.00    +0.000 A 
ATOM     10  C   UNL     1      -0.589  10.559  20.797  0.00  0.00    +0.000 A 
ATOM     11  C   UNL     1      -0.312  11.173  19.572  0.00  0.00    +0.000 A 
ATOM     12  C   UNL     1       0.719  10.691  18.756  0.00  0.00    +0.000 A 
ATOM     13  C   UNL     1       1.464   9.575  19.163  0.00  0.00    +0.000 A 
BRANCH  11  14
ATOM     14  N   UNL     1      -1.113  12.324  19.141  0.00  0.00    +0.000 N 
ATOM     15  O   UNL     1      -0.650  13.047  18.247  0.00  0.00    +0.000 OA
ATOM     16  O   UNL     1      -2.205  12.508  19.699  0.00  0.00    +0.000 OA
ENDBRANCH  11  14
ENDBRANCH   5   8
ENDBRANCH   1   2
BRANCH   1  17
ATOM     17  C   UNL     1       4.010   4.367  18.784  0.00  0.00    +0.000 C 
ATOM     18  O   UNL     1       5.060   3.794  19.089  0.00  0.00    +0.000 OA
ATOM     19  N   UNL     1       3.814   4.997  17.569  0.00  0.00    +0.000 N 
ATOM     20  H   UNL     1       2.978   5.572  17.475  0.00  0.00    +0.000 HD
BRANCH  19  21
ATOM     21  C   UNL     1       4.743   4.992  16.506  0.00  0.00    +0.000 A 
ATOM     22  C   UNL     1       5.166   3.806  15.891  0.00  0.00    +0.000 A 
ATOM     23  C   UNL     1       6.100   3.812  14.855  0.00  0.00    +0.000 A 
ATOM     24  C   UNL     1       6.625   5.027  14.419  0.00  0.00    +0.000 A 
ATOM     25  C   UNL     1       6.203   6.229  15.007  0.00  0.00    +0.000 A 
ATOM     26  C   UNL     1       5.252   6.206  16.039  0.00  0.00    +0.000 A 
BRANCH  24  27
ATOM     27  N   UNL     1       7.617   5.041  13.331  0.00  0.00    +0.000 N 
ATOM     28  O   UNL     1       8.635   5.737  13.488  0.00  0.00    +0.000 OA
ATOM     29  O   UNL     1       7.375   4.350  12.336  0.00  0.00    +0.000 OA
ENDBRANCH  24  27
ENDBRANCH  19  21
ENDBRANCH   1  17
BRANCH   1  30
ATOM     30  C   UNL     1       3.016   3.125  20.658  0.00  0.00    +0.000 C 
BRANCH  30  32
ATOM     31  O   UNL     1       1.737   2.036  22.415  0.00  0.00    +0.000 OA
ATOM     32  C   UNL     1       1.790   2.715  21.404  0.00  0.00    +0.000 C 
BRANCH  32  33
ATOM     33  O   UNL     1       0.686   3.223  20.817  0.00  0.00    +0.000 OA
ATOM     34  H   UNL     1       0.914   4.117  20.495  0.00  0.00    +0.000 HD
ENDBRANCH  32  33
ENDBRANCH  30  32
ENDBRANCH   1  30
TORSDOF 9
ENDMDL
MODEL 4
REMARK VINA RESULT:      -7.4      0.661      1.275
REMARK  Name = 
REMARK  9 active torsions:
REMARK  status: ('A' for Active; 'I' for Inactive)
REMARK    1  A    between atoms: C_2  and  O_3
REMARK    2  A    between atoms: C_2  and  C_4
REMARK    3  A    between atoms: C_4  and  C_5
REMARK    4  A    between atoms: C_5  and  N_6
REMARK    5  A    between atoms: C_5  and  C_19
REMARK    6  A    between atoms: N_9  and  C_10
REMARK    7  A    between atoms: C_13  and  N_14
REMARK    8  A    between atoms: N_21  and  C_22
REMARK    9  A    between atoms: C_25  and  N_26
REMARK                            x       y       z     vdW  Elec       q    Type
REMARK                         _______ _______ _______ _____ _____    ______ ____
ROOT
ATOM      1  C   UNL     1       2.237   4.764  20.198  0.00  0.00    +0.000 C 
ENDROOT
BRANCH   1   2
ATOM      2  N   UNL     1       2.530   6.103  20.744  0.00  0.00    +0.000 N 
ATOM      3  C   UNL     1       1.496   7.007  20.821  0.00  0.00    +0.000 C 
ATOM      4  O   UNL     1       0.409   6.770  20.302  0.00  0.00    +0.000 OA
ATOM      5  N   UNL     1       1.849   8.186  21.434  0.00  0.00    +0.000 N 
ATOM      6  H   UNL     1       3.149   6.130  21.545  0.00  0.00    +0.000 HD
ATOM      7  H   UNL     1       2.831   8.425  21.388  0.00  0.00    +0.000 HD
BRANCH   5   8
ATOM      8  C   UNL     1       0.936   9.224  21.733  0.00  0.00    +0.000 A 
ATOM      9  C   UNL     1       0.686  10.273  20.838  0.00  0.00    +0.000 A 
ATOM     10  C   UNL     1      -0.183  11.314  21.171  0.00  0.00    +0.000 A 
ATOM     11  C   UNL     1      -0.822  11.300  22.414  0.00  0.00    +0.000 A 
ATOM     12  C   UNL     1      -0.614  10.240  23.305  0.00  0.00    +0.000 A 
ATOM     13  C   UNL     1       0.257   9.198  22.955  0.00  0.00    +0.000 A 
BRANCH  11  14
ATOM     14  N   UNL     1      -1.712  12.407  22.784  0.00  0.00    +0.000 N 
ATOM     15  O   UNL     1      -1.362  13.139  23.722  0.00  0.00    +0.000 OA
ATOM     16  O   UNL     1      -2.762  12.542  22.140  0.00  0.00    +0.000 OA
ENDBRANCH  11  14
ENDBRANCH   5   8
ENDBRANCH   1   2
BRANCH   1  17
ATOM     17  C   UNL     1       3.090   4.453  18.938  0.00  0.00    +0.000 C 
ATOM     18  O   UNL     1       2.781   3.510  18.205  0.00  0.00    +0.000 OA
ATOM     19  N   UNL     1       4.150   5.303  18.677  0.00  0.00    +0.000 N 
ATOM     20  H   UNL     1       4.419   5.948  19.418  0.00  0.00    +0.000 HD
BRANCH  19  21
ATOM     21  C   UNL     1       4.948   5.252  17.513  0.00  0.00    +0.000 A 
ATOM     22  C   UNL     1       4.639   5.992  16.365  0.00  0.00    +0.000 A 
ATOM     23  C   UNL     1       5.424   5.919  15.214  0.00  0.00    +0.000 A 
ATOM     24  C   UNL     1       6.544   5.090  15.206  0.00  0.00    +0.000 A 
ATOM     25  C   UNL     1       6.884   4.353  16.351  0.00  0.00    +0.000 A 
ATOM     26  C   UNL     1       6.090   4.449  17.504  0.00  0.00    +0.000 A 
BRANCH  24  27
ATOM     27  N   UNL     1       7.373   5.001  13.992  0.00  0.00    +0.000 N 
ATOM     28  O   UNL     1       7.004   4.219  13.098  0.00  0.00    +0.000 OA
ATOM     29  O   UNL     1       8.376   5.719  13.939  0.00  0.00    +0.000 OA
ENDBRANCH  24  27
ENDBRANCH  19  21
ENDBRANCH   1  17
BRANCH   1  30
ATOM     30  C   UNL     1       2.513   3.616  21.176  0.00  0.00    +0.000 C 
BRANCH  30  32
ATOM     31  O   UNL     1       1.103   2.206  22.565  0.00  0.00    +0.000 OA
ATOM     32  C   UNL     1       1.293   2.837  21.540  0.00  0.00    +0.000 C 
BRANCH  32  33
ATOM     33  O   UNL     1       0.364   2.929  20.566  0.00  0.00    +0.000 OA
ATOM     34  H   UNL     1       0.663   2.367  19.824  0.00  0.00    +0.000 HD
ENDBRANCH  32  33
ENDBRANCH  30  32
ENDBRANCH   1  30
TORSDOF 9
ENDMDL
MODEL 5
REMARK VINA RESULT:      -7.4      1.942      2.440
REMARK  Name = 
REMARK  9 active torsions:
REMARK  status: ('A' for Active; 'I' for Inactive)
REMARK    1  A    between atoms: C_2  and  O_3
REMARK    2  A    between atoms: C_2  and  C_4
REMARK    3  A    between atoms: C_4  and  C_5
REMARK    4  A    between atoms: C_5  and  N_6
REMARK    5  A    between atoms: C_5  and  C_19
REMARK    6  A    between atoms: N_9  and  C_10
REMARK    7  A    between atoms: C_13  and  N_14
REMARK    8  A    between atoms: N_21  and  C_22
REMARK    9  A    between atoms: C_25  and  N_26
REMARK                            x       y       z     vdW  Elec       q    Type
REMARK                         _______ _______ _______ _____ _____    ______ ____
ROOT
ATOM      1  C   UNL     1       2.887   4.246  19.872  0.00  0.00    +0.000 C 
ENDROOT
BRANCH   1   2
ATOM      2  N   UNL     1       2.598   5.357  20.797  0.00  0.00    +0.000 N 
ATOM      3  C   UNL     1       2.050   6.506  20.273  0.00  0.00    +0.000 C 
ATOM      4  O   UNL     1       1.957   6.666  19.059  0.00  0.00    +0.000 OA
ATOM      5  N   UNL     1       1.726   7.439  21.229  0.00  0.00    +0.000 N 
ATOM      6  H   UNL     1       2.206   5.097  21.694  0.00  0.00    +0.000 HD
ATOM      7  H   UNL     1       2.257   7.386  22.089  0.00  0.00    +0.000 HD
BRANCH   5   8
ATOM      8  C   UNL     1       1.049   8.650  20.953  0.00  0.00    +0.000 A 
ATOM      9  C   UNL     1       1.150   9.290  19.711  0.00  0.00    +0.000 A 
ATOM     10  C   UNL     1       0.513  10.510  19.474  0.00  0.00    +0.000 A 
ATOM     11  C   UNL     1      -0.249  11.092  20.490  0.00  0.00    +0.000 A 
ATOM     12  C   UNL     1      -0.393  10.447  21.725  0.00  0.00    +0.000 A 
ATOM     13  C   UNL     1       0.248   9.220  21.947  0.00  0.00    +0.000 A 
BRANCH  11  14
ATOM     14  N   UNL     1      -0.896  12.389  20.259  0.00  0.00    +0.000 N 
ATOM     15  O   UNL     1      -1.207  12.680  19.095  0.00  0.00    +0.000 OA
ATOM     16  O   UNL     1      -1.089  13.119  21.243  0.00  0.00    +0.000 OA
ENDBRANCH  11  14
ENDBRANCH   5   8
ENDBRANCH   1   2
BRANCH   1  17
ATOM     17  C   UNL     1       4.053   4.585  18.904  0.00  0.00    +0.000 C 
ATOM     18  O   UNL     1       5.181   4.802  19.353  0.00  0.00    +0.000 OA
ATOM     19  N   UNL     1       3.761   4.582  17.552  0.00  0.00    +0.000 N 
ATOM     20  H   UNL     1       2.778   4.550  17.290  0.00  0.00    +0.000 HD
BRANCH  19  21
ATOM     21  C   UNL     1       4.720   4.738  16.527  0.00  0.00    +0.000 A 
ATOM     22  C   UNL     1       5.030   5.989  15.980  0.00  0.00    +0.000 A 
ATOM     23  C   UNL     1       5.966   6.129  14.955  0.00  0.00    +0.000 A 
ATOM     24  C   UNL     1       6.608   4.995  14.461  0.00  0.00    +0.000 A 
ATOM     25  C   UNL     1       6.328   3.732  15.005  0.00  0.00    +0.000 A 
ATOM     26  C   UNL     1       5.394   3.612  16.046  0.00  0.00    +0.000 A 
BRANCH  24  27
ATOM     27  N   UNL     1       7.590   5.133  13.373  0.00  0.00    +0.000 N 
ATOM     28  O   UNL     1       7.370   4.516  12.316  0.00  0.00    +0.000 OA
ATOM     29  O   UNL     1       8.565   5.862  13.580  0.00  0.00    +0.000 OA
ENDBRANCH  24  27
ENDBRANCH  19  21
ENDBRANCH   1  17
BRANCH   1  30
ATOM     30  C   UNL     1       3.294   2.942  20.567  0.00  0.00    +0.000 C 
BRANCH  30  32
ATOM     31  O   UNL     1       3.449   1.441  18.663  0.00  0.00    +0.000 OA
ATOM     32  C   UNL     1       3.938   1.954  19.654  0.00  0.00    +0.000 C 
BRANCH  32  33
ATOM     33  O   UNL     1       5.200   1.690  20.055  0.00  0.00    +0.000 OA
ATOM     34  H   UNL     1       5.771   2.400  19.703  0.00  0.00    +0.000 HD
ENDBRANCH  32  33
ENDBRANCH  30  32
ENDBRANCH   1  30
TORSDOF 9
ENDMDL
MODEL 6
REMARK VINA RESULT:      -7.3      1.192      1.605
REMARK  Name = 
REMARK  9 active torsions:
REMARK  status: ('A' for Active; 'I' for Inactive)
REMARK    1  A    between atoms: C_2  and  O_3
REMARK    2  A    between atoms: C_2  and  C_4
REMARK    3  A    between atoms: C_4  and  C_5
REMARK    4  A    between atoms: C_5  and  N_6
REMARK    5  A    between atoms: C_5  and  C_19
REMARK    6  A    between atoms: N_9  and  C_10
REMARK    7  A    between atoms: C_13  and  N_14
REMARK    8  A    between atoms: N_21  and  C_22
REMARK    9  A    between atoms: C_25  and  N_26
REMARK                            x       y       z     vdW  Elec       q    Type
REMARK                         _______ _______ _______ _____ _____    ______ ____
ROOT
ATOM      1  C   UNL     1       2.500   5.336  19.477  0.00  0.00    +0.000 C 
ENDROOT
BRANCH   1   2
ATOM      2  N   UNL     1       2.605   6.368  20.525  0.00  0.00    +0.000 N 
ATOM      3  C   UNL     1       1.702   7.406  20.500  0.00  0.00    +0.000 C 
ATOM      4  O   UNL     1       0.942   7.560  19.548  0.00  0.00    +0.000 OA
ATOM      5  N   UNL     1       1.821   8.256  21.573  0.00  0.00    +0.000 N 
ATOM      6  H   UNL     1       2.808   6.033  21.460  0.00  0.00    +0.000 HD
ATOM      7  H   UNL     1       2.736   8.290  22.005  0.00  0.00    +0.000 HD
BRANCH   5   8
ATOM      8  C   UNL     1       0.937   9.330  21.831  0.00  0.00    +0.000 A 
ATOM      9  C   UNL     1       0.921  10.485  21.039  0.00  0.00    +0.000 A 
ATOM     10  C   UNL     1       0.074  11.554  21.339  0.00  0.00    +0.000 A 
ATOM     11  C   UNL     1      -0.780  11.462  22.441  0.00  0.00    +0.000 A 
ATOM     12  C   UNL     1      -0.805  10.300  23.222  0.00  0.00    +0.000 A 
ATOM     13  C   UNL     1       0.047   9.231  22.906  0.00  0.00    +0.000 A 
BRANCH  11  14
ATOM     14  N   UNL     1      -1.650  12.594  22.782  0.00  0.00    +0.000 N 
ATOM     15  O   UNL     1      -1.195  13.464  23.539  0.00  0.00    +0.000 OA
ATOM     16  O   UNL     1      -2.790  12.611  22.295  0.00  0.00    +0.000 OA
ENDBRANCH  11  14
ENDBRANCH   5   8
ENDBRANCH   1   2
BRANCH   1  17
ATOM     17  C   UNL     1       3.384   5.669  18.244  0.00  0.00    +0.000 C 
ATOM     18  O   UNL     1       3.500   6.838  17.870  0.00  0.00    +0.000 OA
ATOM     19  N   UNL     1       4.044   4.610  17.647  0.00  0.00    +0.000 N 
ATOM     20  H   UNL     1       3.762   3.672  17.925  0.00  0.00    +0.000 HD
BRANCH  19  21
ATOM     21  C   UNL     1       4.987   4.742  16.604  0.00  0.00    +0.000 A 
ATOM     22  C   UNL     1       6.210   5.401  16.783  0.00  0.00    +0.000 A 
ATOM     23  C   UNL     1       7.125   5.542  15.740  0.00  0.00    +0.000 A 
ATOM     24  C   UNL     1       6.816   5.015  14.488  0.00  0.00    +0.000 A 
ATOM     25  C   UNL     1       5.605   4.334  14.289  0.00  0.00    +0.000 A 
ATOM     26  C   UNL     1       4.702   4.189  15.353  0.00  0.00    +0.000 A 
BRANCH  24  27
ATOM     27  N   UNL     1       7.773   5.167  13.380  0.00  0.00    +0.000 N 
ATOM     28  O   UNL     1       8.776   5.875  13.577  0.00  0.00    +0.000 OA
ATOM     29  O   UNL     1       7.521   4.570  12.328  0.00  0.00    +0.000 OA
ENDBRANCH  24  27
ENDBRANCH  19  21
ENDBRANCH   1  17
BRANCH   1  30
ATOM     30  C   UNL     1       2.935   3.938  19.931  0.00  0.00    +0.000 C 
BRANCH  30  32
ATOM     31  O   UNL     1       2.542   2.870  22.078  0.00  0.00    +0.000 OA
ATOM     32  C   UNL     1       2.125   3.398  21.062  0.00  0.00    +0.000 C 
BRANCH  32  33
ATOM     33  O   UNL     1       0.809   3.588  20.835  0.00  0.00    +0.000 OA
ATOM     34  H   UNL     1       0.614   3.237  19.944  0.00  0.00    +0.000 HD
ENDBRANCH  32  33
ENDBRANCH  30  32
ENDBRANCH   1  30
TORSDOF 9
ENDMDL
MODEL 7
REMARK VINA RESULT:      -7.3      1.751      2.376
REMARK  Name = 
REMARK  9 active torsions:
REMARK  status: ('A' for Active; 'I' for Inactive)
REMARK    1  A    between atoms: C_2  and  O_3
REMARK    2  A    between atoms: C_2  and  C_4
REMARK    3  A    between atoms: C_4  and  C_5
REMARK    4  A    between atoms: C_5  and  N_6
REMARK    5  A    between atoms: C_5  and  C_19
REMARK    6  A    between atoms: N_9  and  C_10
REMARK    7  A    between atoms: C_13  and  N_14
REMARK    8  A    between atoms: N_21  and  C_22
REMARK    9  A    between atoms: C_25  and  N_26
REMARK                            x       y       z     vdW  Elec       q    Type
REMARK                         _______ _______ _______ _____ _____    ______ ____
ROOT
ATOM      1  C   UNL     1       3.107   4.290  19.539  0.00  0.00    +0.000 C 
ENDROOT
BRANCH   1   2
ATOM      2  N   UNL     1       2.963   5.507  20.359  0.00  0.00    +0.000 N 
ATOM      3  C   UNL     1       2.200   6.536  19.856  0.00  0.00    +0.000 C 
ATOM      4  O   UNL     1       1.791   6.513  18.699  0.00  0.00    +0.000 OA
ATOM      5  N   UNL     1       2.046   7.580  20.738  0.00  0.00    +0.000 N 
ATOM      6  H   UNL     1       2.835   5.360  21.353  0.00  0.00    +0.000 HD
ATOM      7  H   UNL     1       2.780   7.681  21.427  0.00  0.00    +0.000 HD
BRANCH   5   8
ATOM      8  C   UNL     1       1.216   8.700  20.497  0.00  0.00    +0.000 A 
ATOM      9  C   UNL     1       1.223   9.380  19.272  0.00  0.00    +0.000 A 
ATOM     10  C   UNL     1       0.431  10.512  19.071  0.00  0.00    +0.000 A 
ATOM     11  C   UNL     1      -0.391  10.965  20.107  0.00  0.00    +0.000 A 
ATOM     12  C   UNL     1      -0.439  10.275  21.325  0.00  0.00    +0.000 A 
ATOM     13  C   UNL     1       0.357   9.136  21.511  0.00  0.00    +0.000 A 
BRANCH  11  14
ATOM     14  N   UNL     1      -1.202  12.173  19.914  0.00  0.00    +0.000 N 
ATOM     15  O   UNL     1      -2.136  12.373  20.704  0.00  0.00    +0.000 OA
ATOM     16  O   UNL     1      -0.906  12.920  18.970  0.00  0.00    +0.000 OA
ENDBRANCH  11  14
ENDBRANCH   5   8
ENDBRANCH   1   2
BRANCH   1  17
ATOM     17  C   UNL     1       4.330   4.375  18.586  0.00  0.00    +0.000 C 
ATOM     18  O   UNL     1       5.413   3.894  18.931  0.00  0.00    +0.000 OA
ATOM     19  N   UNL     1       4.118   4.961  17.351  0.00  0.00    +0.000 N 
ATOM     20  H   UNL     1       3.243   5.466  17.223  0.00  0.00    +0.000 HD
BRANCH  19  21
ATOM     21  C   UNL     1       5.074   5.007  16.313  0.00  0.00    +0.000 A 
ATOM     22  C   UNL     1       6.220   5.809  16.390  0.00  0.00    +0.000 A 
ATOM     23  C   UNL     1       7.148   5.861  15.349  0.00  0.00    +0.000 A 
ATOM     24  C   UNL     1       6.931   5.096  14.206  0.00  0.00    +0.000 A 
ATOM     25  C   UNL     1       5.800   4.269  14.114  0.00  0.00    +0.000 A 
ATOM     26  C   UNL     1       4.884   4.220  15.176  0.00  0.00    +0.000 A 
BRANCH  24  27
ATOM     27  N   UNL     1       7.902   5.151  13.100  0.00  0.00    +0.000 N 
ATOM     28  O   UNL     1       8.925   5.838  13.265  0.00  0.00    +0.000 OA
ATOM     29  O   UNL     1       7.639   4.500  12.083  0.00  0.00    +0.000 OA
ENDBRANCH  24  27
ENDBRANCH  19  21
ENDBRANCH   1  17
BRANCH   1  30
ATOM     30  C   UNL     1       3.307   3.007  20.354  0.00  0.00    +0.000 C 
BRANCH  30  32
ATOM     31  O   UNL     1       1.046   3.099  21.242  0.00  0.00    +0.000 OA
ATOM     32  C   UNL     1       2.208   2.741  21.328  0.00  0.00    +0.000 C 
BRANCH  32  33
ATOM     33  O   UNL     1       2.661   2.001  22.362  0.00  0.00    +0.000 OA
ATOM     34  H   UNL     1       1.881   1.624  22.814  0.00  0.00    +0.000 HD
ENDBRANCH  32  33
ENDBRANCH  30  32
ENDBRANCH   1  30
TORSDOF 9
ENDMDL
MODEL 8
REMARK VINA RESULT:      -7.3      2.104      2.424
REMARK  Name = 
REMARK  9 active torsions:
REMARK  status: ('A' for Active; 'I' for Inactive)
REMARK    1  A    between atoms: C_2  and  O_3
REMARK    2  A    between atoms: C_2  and  C_4
REMARK    3  A    between atoms: C_4  and  C_5
REMARK    4  A    between atoms: C_5  and  N_6
REMARK    5  A    between atoms: C_5  and  C_19
REMARK    6  A    between atoms: N_9  and  C_10
REMARK    7  A    between atoms: C_13  and  N_14
REMARK    8  A    between atoms: N_21  and  C_22
REMARK    9  A    between atoms: C_25  and  N_26
REMARK                            x       y       z     vdW  Elec       q    Type
REMARK                         _______ _______ _______ _____ _____    ______ ____
ROOT
ATOM      1  C   UNL     1       2.965   4.445  19.791  0.00  0.00    +0.000 C 
ENDROOT
BRANCH   1   2
ATOM      2  N   UNL     1       2.660   5.618  20.631  0.00  0.00    +0.000 N 
ATOM      3  C   UNL     1       2.101   6.718  20.023  0.00  0.00    +0.000 C 
ATOM      4  O   UNL     1       2.011   6.788  18.801  0.00  0.00    +0.000 OA
ATOM      5  N   UNL     1       1.763   7.715  20.908  0.00  0.00    +0.000 N 
ATOM      6  H   UNL     1       2.268   5.420  21.544  0.00  0.00    +0.000 HD
ATOM      7  H   UNL     1       2.292   7.731  21.770  0.00  0.00    +0.000 HD
BRANCH   5   8
ATOM      8  C   UNL     1       1.073   8.894  20.541  0.00  0.00    +0.000 A 
ATOM      9  C   UNL     1       0.078   9.455  21.353  0.00  0.00    +0.000 A 
ATOM     10  C   UNL     1      -0.625  10.592  20.951  0.00  0.00    +0.000 A 
ATOM     11  C   UNL     1      -0.320  11.187  19.724  0.00  0.00    +0.000 A 
ATOM     12  C   UNL     1       0.697  10.662  18.916  0.00  0.00    +0.000 A 
ATOM     13  C   UNL     1       1.399   9.523  19.335  0.00  0.00    +0.000 A 
BRANCH  11  14
ATOM     14  N   UNL     1      -1.077  12.363  19.280  0.00  0.00    +0.000 N 
ATOM     15  O   UNL     1      -0.852  12.797  18.140  0.00  0.00    +0.000 OA
ATOM     16  O   UNL     1      -1.893  12.855  20.072  0.00  0.00    +0.000 OA
ENDBRANCH  11  14
ENDBRANCH   5   8
ENDBRANCH   1   2
BRANCH   1  17
ATOM     17  C   UNL     1       4.142   4.721  18.816  0.00  0.00    +0.000 C 
ATOM     18  O   UNL     1       5.286   4.858  19.257  0.00  0.00    +0.000 OA
ATOM     19  N   UNL     1       3.839   4.753  17.467  0.00  0.00    +0.000 N 
ATOM     20  H   UNL     1       2.852   4.789  17.215  0.00  0.00    +0.000 HD
BRANCH  19  21
ATOM     21  C   UNL     1       4.796   4.860  16.434  0.00  0.00    +0.000 A 
ATOM     22  C   UNL     1       5.260   6.099  15.974  0.00  0.00    +0.000 A 
ATOM     23  C   UNL     1       6.192   6.192  14.939  0.00  0.00    +0.000 A 
ATOM     24  C   UNL     1       6.674   5.026  14.350  0.00  0.00    +0.000 A 
ATOM     25  C   UNL     1       6.237   3.772  14.807  0.00  0.00    +0.000 A 
ATOM     26  C   UNL     1       5.310   3.696  15.858  0.00  0.00    +0.000 A 
BRANCH  24  27
ATOM     27  N   UNL     1       7.651   5.116  13.252  0.00  0.00    +0.000 N 
ATOM     28  O   UNL     1       8.639   5.852  13.420  0.00  0.00    +0.000 OA
ATOM     29  O   UNL     1       7.429   4.444  12.240  0.00  0.00    +0.000 OA
ENDBRANCH  24  27
ENDBRANCH  19  21
ENDBRANCH   1  17
BRANCH   1  30
ATOM     30  C   UNL     1       3.370   3.196  20.582  0.00  0.00    +0.000 C 
BRANCH  30  32
ATOM     31  O   UNL     1       3.215   1.501  18.848  0.00  0.00    +0.000 OA
ATOM     32  C   UNL     1       3.843   2.071  19.723  0.00  0.00    +0.000 C 
BRANCH  32  33
ATOM     33  O   UNL     1       5.119   1.751  20.023  0.00  0.00    +0.000 OA
ATOM     34  H   UNL     1       5.232   1.874  20.985  0.00  0.00    +0.000 HD
ENDBRANCH  32  33
ENDBRANCH  30  32
ENDBRANCH   1  30
TORSDOF 9
ENDMDL
MODEL 9
REMARK VINA RESULT:      -7.3      2.016      9.252
REMARK  Name = 
REMARK  9 active torsions:
REMARK  status: ('A' for Active; 'I' for Inactive)
REMARK    1  A    between atoms: C_2  and  O_3
REMARK    2  A    between atoms: C_2  and  C_4
REMARK    3  A    between atoms: C_4  and  C_5
REMARK    4  A    between atoms: C_5  and  N_6
REMARK    5  A    between atoms: C_5  and  C_19
REMARK    6  A    between atoms: N_9  and  C_10
REMARK    7  A    between atoms: C_13  and  N_14
REMARK    8  A    between atoms: N_21  and  C_22
REMARK    9  A    between atoms: C_25  and  N_26
REMARK                            x       y       z     vdW  Elec       q    Type
REMARK                         _______ _______ _______ _____ _____    ______ ____
ROOT
ATOM      1  C   UNL     1       3.180   4.880  20.490  0.00  0.00    +0.000 C 
ENDROOT
BRANCH   1   2
ATOM      2  N   UNL     1       3.688   4.008  19.414  0.00  0.00    +0.000 N 
ATOM      3  C   UNL     1       4.333   4.602  18.354  0.00  0.00    +0.000 C 
ATOM      4  O   UNL     1       4.340   5.822  18.222  0.00  0.00    +0.000 OA
ATOM      5  N   UNL     1       4.855   3.698  17.459  0.00  0.00    +0.000 N 
ATOM      6  H   UNL     1       4.119   3.140  19.712  0.00  0.00    +0.000 HD
ATOM      7  H   UNL     1       4.397   2.796  17.432  0.00  0.00    +0.000 HD
BRANCH   5   8
ATOM      8  C   UNL     1       5.656   4.058  16.350  0.00  0.00    +0.000 A 
ATOM      9  C   UNL     1       6.900   4.684  16.506  0.00  0.00    +0.000 A 
ATOM     10  C   UNL     1       7.654   5.074  15.397  0.00  0.00    +0.000 A 
ATOM     11  C   UNL     1       7.163   4.823  14.113  0.00  0.00    +0.000 A 
ATOM     12  C   UNL     1       5.940   4.164  13.939  0.00  0.00    +0.000 A 
ATOM     13  C   UNL     1       5.195   3.772  15.061  0.00  0.00    +0.000 A 
BRANCH  11  14
ATOM     14  N   UNL     1       7.935   5.260  12.943  0.00  0.00    +0.000 N 
ATOM     15  O   UNL     1       8.900   6.013  13.137  0.00  0.00    +0.000 OA
ATOM     16  O   UNL     1       7.572   4.853  11.830  0.00  0.00    +0.000 OA
ENDBRANCH  11  14
ENDBRANCH   5   8
ENDBRANCH   1   2
BRANCH   1  17
ATOM     17  C   UNL     1       2.171   5.932  19.954  0.00  0.00    +0.000 C 
ATOM     18  O   UNL     1       1.171   5.564  19.332  0.00  0.00    +0.000 OA
ATOM     19  N   UNL     1       2.436   7.257  20.253  0.00  0.00    +0.000 N 
ATOM     20  H   UNL     1       3.358   7.471  20.628  0.00  0.00    +0.000 HD
BRANCH  19  21
ATOM     21  C   UNL     1       1.566   8.331  19.963  0.00  0.00    +0.000 A 
ATOM     22  C   UNL     1       0.674   8.844  20.912  0.00  0.00    +0.000 A 
ATOM     23  C   UNL     1      -0.194   9.894  20.609  0.00  0.00    +0.000 A 
ATOM     24  C   UNL     1      -0.174  10.445  19.329  0.00  0.00    +0.000 A 
ATOM     25  C   UNL     1       0.725   9.959  18.366  0.00  0.00    +0.000 A 
ATOM     26  C   UNL     1       1.601   8.913  18.693  0.00  0.00    +0.000 A 
BRANCH  24  27
ATOM     27  N   UNL     1      -1.092  11.547  18.998  0.00  0.00    +0.000 N 
ATOM     28  O   UNL     1      -1.430  12.312  19.919  0.00  0.00    +0.000 OA
ATOM     29  O   UNL     1      -1.459  11.644  17.823  0.00  0.00    +0.000 OA
ENDBRANCH  24  27
ENDBRANCH  19  21
ENDBRANCH   1  17
BRANCH   1  30
ATOM     30  C   UNL     1       2.442   4.132  21.606  0.00  0.00    +0.000 C 
BRANCH  30  32
ATOM     31  O   UNL     1       1.404   2.170  20.614  0.00  0.00    +0.000 OA
ATOM     32  C   UNL     1       2.253   2.678  21.327  0.00  0.00    +0.000 C 
BRANCH  32  33
ATOM     33  O   UNL     1       3.188   1.947  21.968  0.00  0.00    +0.000 OA
ATOM     34  H   UNL     1       4.039   2.420  21.879  0.00  0.00    +0.000 HD
ENDBRANCH  32  33
ENDBRANCH  30  32
ENDBRANCH   1  30
TORSDOF 9
ENDMDL
