MODEL 1
REMARK VINA RESULT:      -8.0      0.000      0.000
REMARK  Name = 
REMARK  5 active torsions:
REMARK  status: ('A' for Active; 'I' for Inactive)
REMARK    1  A    between atoms: C_2  and  C_3
REMARK    2  A    between atoms: C_3  and  C_4
REMARK    3  A    between atoms: C_4  and  O_5
REMARK    4  A    between atoms: C_7  and  N_8
REMARK    5  A    between atoms: C_18  and  O_19
REMARK                            x       y       z     vdW  Elec       q    Type
REMARK                         _______ _______ _______ _____ _____    ______ ____
ROOT
ATOM      1  C   UNL     1       3.071   3.194  19.634  0.00  0.00    +0.000 C 
ATOM      2  O   UNL     1       3.808   4.386  19.252  0.00  0.00    +0.000 OA
ATOM      3  C   UNL     1       3.432   4.727  17.891  0.00  0.00    +0.000 C 
ATOM      4  C   UNL     1       2.444   3.663  17.393  0.00  0.00    +0.000 C 
ATOM      5  F   UNL     1       1.160   4.063  17.620  0.00  0.00    +0.000 F 
ATOM      6  C   UNL     1       2.759   2.494  18.301  0.00  0.00    +0.000 C 
ENDROOT
BRANCH   3   7
ATOM      7  N   UNL     1       4.611   4.821  17.029  0.00  0.00    +0.000 N 
ATOM      8  C   UNL     1       5.155   3.719  16.402  0.00  0.00    +0.000 A 
ATOM      9  C   UNL     1       6.104   3.853  15.477  0.00  0.00    +0.000 A 
ATOM     10  C   UNL     1       6.537   5.232  15.185  0.00  0.00    +0.000 A 
ATOM     11  N   UNL     1       7.503   5.454  14.245  0.00  0.00    +0.000 N 
ATOM     12  N   UNL     1       6.043   6.269  15.783  0.00  0.00    +0.000 NA
ATOM     13  C   UNL     1       5.038   6.115  16.708  0.00  0.00    +0.000 A 
ATOM     14  O   UNL     1       4.498   7.098  17.217  0.00  0.00    +0.000 OA
ATOM     15  H   UNL     1       8.188   4.726  14.077  0.00  0.00    +0.000 HD
ATOM     16  H   UNL     1       7.896   6.389  14.294  0.00  0.00    +0.000 HD
ENDBRANCH   3   7
BRANCH   1  18
ATOM     17  C   UNL     1       1.321   2.963  21.511  0.00  0.00    +0.000 C 
ATOM     18  C   UNL     1       1.820   3.567  20.422  0.00  0.00    +0.000 C 
ENDBRANCH   1  18
BRANCH   6  19
ATOM     19  O   UNL     1       1.724   1.520  18.353  0.00  0.00    +0.000 OA
ATOM     20  H   UNL     1       1.415   1.488  19.282  0.00  0.00    +0.000 HD
ENDBRANCH   6  19
BRANCH   1  21
ATOM     21  C   UNL     1       3.994   2.322  20.515  0.00  0.00    +0.000 C 
BRANCH  21  22
ATOM     22  O   UNL     1       5.084   1.772  19.768  0.00  0.00    +0.000 OA
ATOM     23  H   UNL     1       4.806   0.878  19.491  0.00  0.00    +0.000 HD
ENDBRANCH  21  22
ENDBRANCH   1  21
TORSDOF 5
ENDMDL
MODEL 2
REMARK VINA RESULT:      -7.6      1.980      2.710
REMARK  Name = 
REMARK  5 active torsions:
REMARK  status: ('A' for Active; 'I' for Inactive)
REMARK    1  A    between atoms: C_2  and  C_3
REMARK    2  A    between atoms: C_3  and  C_4
REMARK    3  A    between atoms: C_4  and  O_5
REMARK    4  A    between atoms: C_7  and  N_8
REMARK    5  A    between atoms: C_18  and  O_19
REMARK                            x       y       z     vdW  Elec       q    Type
REMARK                         _______ _______ _______ _____ _____    ______ ____
ROOT
ATOM      1  C   UNL     1       2.893   3.602  18.855  0.00  0.00    +0.000 C 
ATOM      2  O   UNL     1       4.153   3.048  18.391  0.00  0.00    +0.000 OA
ATOM      3  C   UNL     1       5.139   4.114  18.394  0.00  0.00    +0.000 C 
ATOM      4  C   UNL     1       4.439   5.404  18.843  0.00  0.00    +0.000 C 
ATOM      5  F   UNL     1       4.567   5.571  20.191  0.00  0.00    +0.000 F 
ATOM      6  C   UNL     1       2.991   5.101  18.525  0.00  0.00    +0.000 C 
ENDROOT
BRANCH   3   7
ATOM      7  N   UNL     1       5.758   4.261  17.076  0.00  0.00    +0.000 N 
ATOM      8  C   UNL     1       5.013   4.378  15.921  0.00  0.00    +0.000 A 
ATOM      9  C   UNL     1       5.584   4.700  14.763  0.00  0.00    +0.000 A 
ATOM     10  C   UNL     1       7.044   4.906  14.794  0.00  0.00    +0.000 A 
ATOM     11  N   UNL     1       7.706   5.244  13.648  0.00  0.00    +0.000 N 
ATOM     12  N   UNL     1       7.752   4.780  15.872  0.00  0.00    +0.000 NA
ATOM     13  C   UNL     1       7.140   4.484  17.066  0.00  0.00    +0.000 A 
ATOM     14  O   UNL     1       7.788   4.451  18.112  0.00  0.00    +0.000 OA
ATOM     15  H   UNL     1       7.316   4.946  12.761  0.00  0.00    +0.000 HD
ATOM     16  H   UNL     1       8.712   5.122  13.720  0.00  0.00    +0.000 HD
ENDBRANCH   3   7
BRANCH   1  18
ATOM     17  C   UNL     1       1.577   2.968  20.977  0.00  0.00    +0.000 C 
ATOM     18  C   UNL     1       2.703   3.329  20.343  0.00  0.00    +0.000 C 
ENDBRANCH   1  18
BRANCH   6  19
ATOM     19  O   UNL     1       2.070   5.937  19.215  0.00  0.00    +0.000 OA
ATOM     20  H   UNL     1       1.248   5.948  18.684  0.00  0.00    +0.000 HD
ENDBRANCH   6  19
BRANCH   1  21
ATOM     21  C   UNL     1       1.752   2.932  18.057  0.00  0.00    +0.000 C 
BRANCH  21  22
ATOM     22  O   UNL     1       1.004   3.882  17.292  0.00  0.00    +0.000 OA
ATOM     23  H   UNL     1       0.084   3.838  17.617  0.00  0.00    +0.000 HD
ENDBRANCH  21  22
ENDBRANCH   1  21
TORSDOF 5
ENDMDL
MODEL 3
REMARK VINA RESULT:      -7.6      1.401      1.543
REMARK  Name = 
REMARK  5 active torsions:
REMARK  status: ('A' for Active; 'I' for Inactive)
REMARK    1  A    between atoms: C_2  and  C_3
REMARK    2  A    between atoms: C_3  and  C_4
REMARK    3  A    between atoms: C_4  and  O_5
REMARK    4  A    between atoms: C_7  and  N_8
REMARK    5  A    between atoms: C_18  and  O_19
REMARK                            x       y       z     vdW  Elec       q    Type
REMARK                         _______ _______ _______ _____ _____    ______ ____
ROOT
ATOM      1  C   UNL     1       3.104   3.045  18.796  0.00  0.00    +0.000 C 
ATOM      2  O   UNL     1       4.505   3.427  18.770  0.00  0.00    +0.000 OA
ATOM      3  C   UNL     1       4.599   4.747  18.171  0.00  0.00    +0.000 C 
ATOM      4  C   UNL     1       3.184   5.183  17.765  0.00  0.00    +0.000 C 
ATOM      5  F   UNL     1       2.606   5.911  18.764  0.00  0.00    +0.000 F 
ATOM      6  C   UNL     1       2.467   3.855  17.653  0.00  0.00    +0.000 C 
ENDROOT
BRANCH   3   7
ATOM      7  N   UNL     1       5.515   4.741  17.030  0.00  0.00    +0.000 N 
ATOM      8  C   UNL     1       5.281   3.985  15.901  0.00  0.00    +0.000 A 
ATOM      9  C   UNL     1       6.021   4.138  14.804  0.00  0.00    +0.000 A 
ATOM     10  C   UNL     1       7.097   5.144  14.882  0.00  0.00    +0.000 A 
ATOM     11  N   UNL     1       7.897   5.364  13.798  0.00  0.00    +0.000 N 
ATOM     12  N   UNL     1       7.332   5.845  15.946  0.00  0.00    +0.000 NA
ATOM     13  C   UNL     1       6.535   5.700  17.055  0.00  0.00    +0.000 A 
ATOM     14  O   UNL     1       6.692   6.423  18.040  0.00  0.00    +0.000 OA
ATOM     15  H   UNL     1       8.044   4.604  13.144  0.00  0.00    +0.000 HD
ATOM     16  H   UNL     1       8.741   5.882  14.026  0.00  0.00    +0.000 HD
ENDBRANCH   3   7
BRANCH   1  18
ATOM     17  C   UNL     1       1.546   2.651  20.809  0.00  0.00    +0.000 C 
ATOM     18  C   UNL     1       2.490   3.347  20.158  0.00  0.00    +0.000 C 
ENDBRANCH   1  18
BRANCH   6  19
ATOM     19  O   UNL     1       1.051   3.967  17.703  0.00  0.00    +0.000 OA
ATOM     20  H   UNL     1       0.831   4.878  17.420  0.00  0.00    +0.000 HD
ENDBRANCH   6  19
BRANCH   1  21
ATOM     21  C   UNL     1       3.016   1.528  18.515  0.00  0.00    +0.000 C 
BRANCH  21  22
ATOM     22  O   UNL     1       4.300   0.897  18.575  0.00  0.00    +0.000 OA
ATOM     23  H   UNL     1       4.749   1.103  17.732  0.00  0.00    +0.000 HD
ENDBRANCH  21  22
ENDBRANCH   1  21
TORSDOF 5
ENDMDL
MODEL 4
REMARK VINA RESULT:      -7.4      3.179      5.763
REMARK  Name = 
REMARK  5 active torsions:
REMARK  status: ('A' for Active; 'I' for Inactive)
REMARK    1  A    between atoms: C_2  and  C_3
REMARK    2  A    between atoms: C_3  and  C_4
REMARK    3  A    between atoms: C_4  and  O_5
REMARK    4  A    between atoms: C_7  and  N_8
REMARK    5  A    between atoms: C_18  and  O_19
REMARK                            x       y       z     vdW  Elec       q    Type
REMARK                         _______ _______ _______ _____ _____    ______ ____
ROOT
ATOM      1  C   UNL     1       6.532   5.804  17.070  0.00  0.00    +0.000 C 
ATOM      2  O   UNL     1       5.267   6.235  17.639  0.00  0.00    +0.000 OA
ATOM      3  C   UNL     1       5.169   5.686  18.980  0.00  0.00    +0.000 C 
ATOM      4  C   UNL     1       6.420   4.835  19.234  0.00  0.00    +0.000 C 
ATOM      5  F   UNL     1       7.389   5.581  19.841  0.00  0.00    +0.000 F 
ATOM      6  C   UNL     1       6.868   4.507  17.826  0.00  0.00    +0.000 C 
ENDROOT
BRANCH   3   7
ATOM      7  N   UNL     1       3.940   4.908  19.140  0.00  0.00    +0.000 N 
ATOM      8  C   UNL     1       3.931   3.529  19.112  0.00  0.00    +0.000 A 
ATOM      9  C   UNL     1       2.842   2.841  19.448  0.00  0.00    +0.000 A 
ATOM     10  C   UNL     1       1.663   3.638  19.831  0.00  0.00    +0.000 A 
ATOM     11  N   UNL     1       0.507   3.007  20.194  0.00  0.00    +0.000 N 
ATOM     12  N   UNL     1       1.659   4.933  19.843  0.00  0.00    +0.000 NA
ATOM     13  C   UNL     1       2.803   5.627  19.530  0.00  0.00    +0.000 A 
ATOM     14  O   UNL     1       2.839   6.854  19.624  0.00  0.00    +0.000 OA
ATOM     15  H   UNL     1       0.319   2.088  19.810  0.00  0.00    +0.000 HD
ATOM     16  H   UNL     1      -0.298   3.625  20.200  0.00  0.00    +0.000 HD
ENDBRANCH   3   7
BRANCH   1  18
ATOM     17  C   UNL     1       7.412   8.169  17.585  0.00  0.00    +0.000 C 
ATOM     18  C   UNL     1       7.592   6.886  17.236  0.00  0.00    +0.000 C 
ENDBRANCH   1  18
BRANCH   6  19
ATOM     19  O   UNL     1       8.225   4.090  17.743  0.00  0.00    +0.000 OA
ATOM     20  H   UNL     1       8.248   3.152  18.023  0.00  0.00    +0.000 HD
ENDBRANCH   6  19
BRANCH   1  21
ATOM     21  C   UNL     1       6.310   5.526  15.565  0.00  0.00    +0.000 C 
BRANCH  21  22
ATOM     22  O   UNL     1       7.543   5.309  14.874  0.00  0.00    +0.000 OA
ATOM     23  H   UNL     1       7.621   4.345  14.741  0.00  0.00    +0.000 HD
ENDBRANCH  21  22
ENDBRANCH   1  21
TORSDOF 5
ENDMDL
MODEL 5
REMARK VINA RESULT:      -7.2      2.675      5.698
REMARK  Name = 
REMARK  5 active torsions:
REMARK  status: ('A' for Active; 'I' for Inactive)
REMARK    1  A    between atoms: C_2  and  C_3
REMARK    2  A    between atoms: C_3  and  C_4
REMARK    3  A    between atoms: C_4  and  O_5
REMARK    4  A    between atoms: C_7  and  N_8
REMARK    5  A    between atoms: C_18  and  O_19
REMARK                            x       y       z     vdW  Elec       q    Type
REMARK                         _______ _______ _______ _____ _____    ______ ____
ROOT
ATOM      1  C   UNL     1       6.654   5.043  16.724  0.00  0.00    +0.000 C 
ATOM      2  O   UNL     1       5.507   4.154  16.781  0.00  0.00    +0.000 OA
ATOM      3  C   UNL     1       4.306   4.970  16.786  0.00  0.00    +0.000 C 
ATOM      4  C   UNL     1       4.737   6.443  16.777  0.00  0.00    +0.000 C 
ATOM      5  F   UNL     1       4.795   6.915  15.498  0.00  0.00    +0.000 F 
ATOM      6  C   UNL     1       6.144   6.361  17.330  0.00  0.00    +0.000 C 
ENDROOT
BRANCH   3   7
ATOM      7  N   UNL     1       3.464   4.657  17.941  0.00  0.00    +0.000 N 
ATOM      8  C   UNL     1       3.508   5.391  19.107  0.00  0.00    +0.000 A 
ATOM      9  C   UNL     1       2.606   5.211  20.069  0.00  0.00    +0.000 A 
ATOM     10  C   UNL     1       1.582   4.181  19.814  0.00  0.00    +0.000 A 
ATOM     11  N   UNL     1       0.617   3.939  20.750  0.00  0.00    +0.000 N 
ATOM     12  N   UNL     1       1.545   3.475  18.728  0.00  0.00    +0.000 NA
ATOM     13  C   UNL     1       2.462   3.701  17.730  0.00  0.00    +0.000 A 
ATOM     14  O   UNL     1       2.383   3.101  16.658  0.00  0.00    +0.000 OA
ATOM     15  H   UNL     1       0.832   4.122  21.723  0.00  0.00    +0.000 HD
ATOM     16  H   UNL     1       0.123   3.065  20.593  0.00  0.00    +0.000 HD
ENDBRANCH   3   7
BRANCH   1  18
ATOM     17  C   UNL     1       6.748   4.512  14.205  0.00  0.00    +0.000 C 
ATOM     18  C   UNL     1       7.145   5.195  15.289  0.00  0.00    +0.000 C 
ENDBRANCH   1  18
BRANCH   6  19
ATOM     19  O   UNL     1       6.935   7.508  17.044  0.00  0.00    +0.000 OA
ATOM     20  H   UNL     1       6.435   8.037  16.389  0.00  0.00    +0.000 HD
ENDBRANCH   6  19
BRANCH   1  21
ATOM     21  C   UNL     1       7.777   4.432  17.592  0.00  0.00    +0.000 C 
BRANCH  21  22
ATOM     22  O   UNL     1       7.882   5.079  18.864  0.00  0.00    +0.000 OA
ATOM     23  H   UNL     1       7.112   4.787  19.389  0.00  0.00    +0.000 HD
ENDBRANCH  21  22
ENDBRANCH   1  21
TORSDOF 5
ENDMDL
MODEL 6
REMARK VINA RESULT:      -7.1      1.628      1.654
REMARK  Name = 
REMARK  5 active torsions:
REMARK  status: ('A' for Active; 'I' for Inactive)
REMARK    1  A    between atoms: C_2  and  C_3
REMARK    2  A    between atoms: C_3  and  C_4
REMARK    3  A    between atoms: C_4  and  O_5
REMARK    4  A    between atoms: C_7  and  N_8
REMARK    5  A    between atoms: C_18  and  O_19
REMARK                            x       y       z     vdW  Elec       q    Type
REMARK                         _______ _______ _______ _____ _____    ______ ____
ROOT
ATOM      1  C   UNL     1       3.213   2.859  19.874  0.00  0.00    +0.000 C 
ATOM      2  O   UNL     1       3.571   4.250  20.091  0.00  0.00    +0.000 OA
ATOM      3  C   UNL     1       3.417   4.954  18.829  0.00  0.00    +0.000 C 
ATOM      4  C   UNL     1       2.985   3.933  17.769  0.00  0.00    +0.000 C 
ATOM      5  F   UNL     1       1.624   3.897  17.669  0.00  0.00    +0.000 F 
ATOM      6  C   UNL     1       3.464   2.630  18.374  0.00  0.00    +0.000 C 
ENDROOT
BRANCH   3   7
ATOM      7  N   UNL     1       4.657   5.636  18.455  0.00  0.00    +0.000 N 
ATOM      8  C   UNL     1       5.900   5.131  18.772  0.00  0.00    +0.000 A 
ATOM      9  C   UNL     1       7.009   5.661  18.261  0.00  0.00    +0.000 A 
ATOM     10  C   UNL     1       6.822   6.814  17.360  0.00  0.00    +0.000 A 
ATOM     11  N   UNL     1       7.910   7.412  16.791  0.00  0.00    +0.000 N 
ATOM     12  N   UNL     1       5.658   7.304  17.073  0.00  0.00    +0.000 NA
ATOM     13  C   UNL     1       4.522   6.720  17.580  0.00  0.00    +0.000 A 
ATOM     14  O   UNL     1       3.407   7.120  17.243  0.00  0.00    +0.000 OA
ATOM     15  H   UNL     1       8.796   7.369  17.281  0.00  0.00    +0.000 HD
ATOM     16  H   UNL     1       7.700   8.325  16.397  0.00  0.00    +0.000 HD
ENDBRANCH   3   7
BRANCH   1  18
ATOM     17  C   UNL     1       1.177   2.908  21.451  0.00  0.00    +0.000 C 
ATOM     18  C   UNL     1       1.767   2.606  20.285  0.00  0.00    +0.000 C 
ENDBRANCH   1  18
BRANCH   6  19
ATOM     19  O   UNL     1       2.835   1.481  17.821  0.00  0.00    +0.000 OA
ATOM     20  H   UNL     1       2.600   0.900  18.574  0.00  0.00    +0.000 HD
ENDBRANCH   6  19
BRANCH   1  21
ATOM     21  C   UNL     1       4.154   1.984  20.733  0.00  0.00    +0.000 C 
BRANCH  21  22
ATOM     22  O   UNL     1       5.217   1.421  19.957  0.00  0.00    +0.000 OA
ATOM     23  H   UNL     1       6.047   1.646  20.419  0.00  0.00    +0.000 HD
ENDBRANCH  21  22
ENDBRANCH   1  21
TORSDOF 5
ENDMDL
MODEL 7
REMARK VINA RESULT:      -7.0      2.830      5.812
REMARK  Name = 
REMARK  5 active torsions:
REMARK  status: ('A' for Active; 'I' for Inactive)
REMARK    1  A    between atoms: C_2  and  C_3
REMARK    2  A    between atoms: C_3  and  C_4
REMARK    3  A    between atoms: C_4  and  O_5
REMARK    4  A    between atoms: C_7  and  N_8
REMARK    5  A    between atoms: C_18  and  O_19
REMARK                            x       y       z     vdW  Elec       q    Type
REMARK                         _______ _______ _______ _____ _____    ______ ____
ROOT
ATOM      1  C   UNL     1       6.200   6.451  17.243  0.00  0.00    +0.000 C 
ATOM      2  O   UNL     1       5.366   6.136  18.390  0.00  0.00    +0.000 OA
ATOM      3  C   UNL     1       5.547   4.729  18.702  0.00  0.00    +0.000 C 
ATOM      4  C   UNL     1       6.510   4.135  17.665  0.00  0.00    +0.000 C 
ATOM      5  F   UNL     1       7.794   4.183  18.125  0.00  0.00    +0.000 F 
ATOM      6  C   UNL     1       6.368   5.107  16.514  0.00  0.00    +0.000 C 
ENDROOT
BRANCH   3   7
ATOM      7  N   UNL     1       4.264   4.026  18.719  0.00  0.00    +0.000 N 
ATOM      8  C   UNL     1       3.218   4.381  17.892  0.00  0.00    +0.000 A 
ATOM      9  C   UNL     1       2.134   3.615  17.786  0.00  0.00    +0.000 A 
ATOM     10  C   UNL     1       2.121   2.391  18.609  0.00  0.00    +0.000 A 
ATOM     11  N   UNL     1       1.046   1.550  18.554  0.00  0.00    +0.000 N 
ATOM     12  N   UNL     1       3.091   2.062  19.401  0.00  0.00    +0.000 NA
ATOM     13  C   UNL     1       4.219   2.845  19.469  0.00  0.00    +0.000 A 
ATOM     14  O   UNL     1       5.185   2.496  20.148  0.00  0.00    +0.000 OA
ATOM     15  H   UNL     1       0.140   1.939  18.318  0.00  0.00    +0.000 HD
ATOM     16  H   UNL     1       1.023   0.885  19.321  0.00  0.00    +0.000 HD
ENDBRANCH   3   7
BRANCH   1  18
ATOM     17  C   UNL     1       7.878   8.352  17.694  0.00  0.00    +0.000 C 
ATOM     18  C   UNL     1       7.524   7.058  17.692  0.00  0.00    +0.000 C 
ENDBRANCH   1  18
BRANCH   6  19
ATOM     19  O   UNL     1       7.445   5.050  15.586  0.00  0.00    +0.000 OA
ATOM     20  H   UNL     1       7.065   5.236  14.703  0.00  0.00    +0.000 HD
ENDBRANCH   6  19
BRANCH   1  21
ATOM     21  C   UNL     1       5.438   7.467  16.362  0.00  0.00    +0.000 C 
BRANCH  21  22
ATOM     22  O   UNL     1       5.065   6.907  15.099  0.00  0.00    +0.000 OA
ATOM     23  H   UNL     1       4.943   5.949  15.246  0.00  0.00    +0.000 HD
ENDBRANCH  21  22
ENDBRANCH   1  21
TORSDOF 5
ENDMDL
MODEL 8
REMARK VINA RESULT:      -6.9      2.151      2.349
REMARK  Name = 
REMARK  5 active torsions:
REMARK  status: ('A' for Active; 'I' for Inactive)
REMARK    1  A    between atoms: C_2  and  C_3
REMARK    2  A    between atoms: C_3  and  C_4
REMARK    3  A    between atoms: C_4  and  O_5
REMARK    4  A    between atoms: C_7  and  N_8
REMARK    5  A    between atoms: C_18  and  O_19
REMARK                            x       y       z     vdW  Elec       q    Type
REMARK                         _______ _______ _______ _____ _____    ______ ____
ROOT
ATOM      1  C   UNL     1       2.789   2.838  19.135  0.00  0.00    +0.000 C 
ATOM      2  O   UNL     1       4.012   3.496  19.558  0.00  0.00    +0.000 OA
ATOM      3  C   UNL     1       3.830   4.928  19.398  0.00  0.00    +0.000 C 
ATOM      4  C   UNL     1       2.434   5.162  18.803  0.00  0.00    +0.000 C 
ATOM      5  F   UNL     1       1.523   5.372  19.797  0.00  0.00    +0.000 F 
ATOM      6  C   UNL     1       2.144   3.828  18.150  0.00  0.00    +0.000 C 
ENDROOT
BRANCH   3   7
ATOM      7  N   UNL     1       4.882   5.500  18.558  0.00  0.00    +0.000 N 
ATOM      8  C   UNL     1       4.603   6.268  17.447  0.00  0.00    +0.000 A 
ATOM      9  C   UNL     1       5.564   6.934  16.810  0.00  0.00    +0.000 A 
ATOM     10  C   UNL     1       6.927   6.786  17.356  0.00  0.00    +0.000 A 
ATOM     11  N   UNL     1       7.968   7.441  16.763  0.00  0.00    +0.000 N 
ATOM     12  N   UNL     1       7.198   6.053  18.388  0.00  0.00    +0.000 NA
ATOM     13  C   UNL     1       6.188   5.403  19.055  0.00  0.00    +0.000 A 
ATOM     14  O   UNL     1       6.420   4.776  20.089  0.00  0.00    +0.000 OA
ATOM     15  H   UNL     1       7.904   7.653  15.774  0.00  0.00    +0.000 HD
ATOM     16  H   UNL     1       8.875   7.088  17.052  0.00  0.00    +0.000 HD
ENDBRANCH   3   7
BRANCH   1  18
ATOM     17  C   UNL     1       2.215   2.631  21.638  0.00  0.00    +0.000 C 
ATOM     18  C   UNL     1       1.904   2.528  20.337  0.00  0.00    +0.000 C 
ENDBRANCH   1  18
BRANCH   6  19
ATOM     19  O   UNL     1       0.763   3.612  17.888  0.00  0.00    +0.000 OA
ATOM     20  H   UNL     1       0.402   4.463  17.563  0.00  0.00    +0.000 HD
ENDBRANCH   6  19
BRANCH   1  21
ATOM     21  C   UNL     1       3.174   1.520  18.425  0.00  0.00    +0.000 C 
BRANCH  21  22
ATOM     22  O   UNL     1       4.456   1.042  18.842  0.00  0.00    +0.000 OA
ATOM     23  H   UNL     1       4.354   0.086  19.012  0.00  0.00    +0.000 HD
ENDBRANCH  21  22
ENDBRANCH   1  21
TORSDOF 5
ENDMDL
MODEL 9
REMARK VINA RESULT:      -6.9      2.636      5.563
REMARK  Name = 
REMARK  5 active torsions:
REMARK  status: ('A' for Active; 'I' for Inactive)
REMARK    1  A    between atoms: C_2  and  C_3
REMARK    2  A    between atoms: C_3  and  C_4
REMARK    3  A    between atoms: C_4  and  O_5
REMARK    4  A    between atoms: C_7  and  N_8
REMARK    5  A    between atoms: C_18  and  O_19
REMARK                            x       y       z     vdW  Elec       q    Type
REMARK                         _______ _______ _______ _____ _____    ______ ____
ROOT
ATOM      1  C   UNL     1       6.424   4.903  16.948  0.00  0.00    +0.000 C 
ATOM      2  O   UNL     1       5.429   3.846  16.921  0.00  0.00    +0.000 OA
ATOM      3  C   UNL     1       4.122   4.456  17.095  0.00  0.00    +0.000 C 
ATOM      4  C   UNL     1       4.328   5.965  17.285  0.00  0.00    +0.000 C 
ATOM      5  F   UNL     1       4.234   6.612  16.087  0.00  0.00    +0.000 F 
ATOM      6  C   UNL     1       5.763   6.028  17.762  0.00  0.00    +0.000 C 
ENDROOT
BRANCH   3   7
ATOM      7  N   UNL     1       3.410   3.857  18.224  0.00  0.00    +0.000 N 
ATOM      8  C   UNL     1       4.051   3.492  19.390  0.00  0.00    +0.000 A 
ATOM      9  C   UNL     1       3.362   3.129  20.470  0.00  0.00    +0.000 A 
ATOM     10  C   UNL     1       1.893   3.131  20.334  0.00  0.00    +0.000 A 
ATOM     11  N   UNL     1       1.115   2.775  21.397  0.00  0.00    +0.000 N 
ATOM     12  N   UNL     1       1.286   3.456  19.237  0.00  0.00    +0.000 NA
ATOM     13  C   UNL     1       2.012   3.864  18.144  0.00  0.00    +0.000 A 
ATOM     14  O   UNL     1       1.445   4.261  17.126  0.00  0.00    +0.000 OA
ATOM     15  H   UNL     1       1.498   2.136  22.084  0.00  0.00    +0.000 HD
ATOM     16  H   UNL     1       0.154   2.574  21.136  0.00  0.00    +0.000 HD
ENDBRANCH   3   7
BRANCH   1  18
ATOM     17  C   UNL     1       6.611   4.645  14.393  0.00  0.00    +0.000 C 
ATOM     18  C   UNL     1       6.797   5.326  15.532  0.00  0.00    +0.000 C 
ENDBRANCH   1  18
BRANCH   6  19
ATOM     19  O   UNL     1       6.355   7.313  17.615  0.00  0.00    +0.000 OA
ATOM     20  H   UNL     1       7.150   7.323  18.186  0.00  0.00    +0.000 HD
ENDBRANCH   6  19
BRANCH   1  21
ATOM     21  C   UNL     1       7.678   4.360  17.671  0.00  0.00    +0.000 C 
BRANCH  21  22
ATOM     22  O   UNL     1       7.870   4.978  18.948  0.00  0.00    +0.000 OA
ATOM     23  H   UNL     1       7.752   4.277  19.617  0.00  0.00    +0.000 HD
ENDBRANCH  21  22
ENDBRANCH   1  21
TORSDOF 5
ENDMDL
