MODEL 1
REMARK VINA RESULT:      -7.9      0.000      0.000
REMARK  Name = 
REMARK  6 active torsions:
REMARK  status: ('A' for Active; 'I' for Inactive)
REMARK    1  A    between atoms: C_2  and  C_3
REMARK    2  A    between atoms: C_2  and  C_18
REMARK    3  A    between atoms: C_3  and  C_4
REMARK    4  A    between atoms: C_4  and  N_5
REMARK    5  A    between atoms: C_8  and  C_9
REMARK    6  A    between atoms: C_9  and  C_10
REMARK                            x       y       z     vdW  Elec       q    Type
REMARK                         _______ _______ _______ _____ _____    ______ ____
ROOT
ATOM      1  N   UNL     1       7.251   6.554  17.633  0.00  0.00    +0.000 NA
ATOM      2  C   UNL     1       6.681   5.557  18.574  0.00  0.00    +0.000 C 
ATOM      3  C   UNL     1       5.768   4.560  17.843  0.00  0.00    +0.000 C 
ATOM      4  C   UNL     1       4.623   5.284  17.110  0.00  0.00    +0.000 C 
ATOM      5  C   UNL     1       5.259   6.301  16.153  0.00  0.00    +0.000 C 
ATOM      6  C   UNL     1       6.180   7.276  16.901  0.00  0.00    +0.000 C 
ENDROOT
BRANCH   1   7
ATOM      7  C   UNL     1       8.131   7.486  18.386  0.00  0.00    +0.000 C 
BRANCH   7   8
ATOM      8  C   UNL     1       8.156   8.908  17.782  0.00  0.00    +0.000 C 
BRANCH   8  10
ATOM      9  O   UNL     1       9.024   9.558  19.865  0.00  0.00    +0.000 OA
ATOM     10  C   UNL     1       8.908   9.852  18.683  0.00  0.00    +0.000 C 
BRANCH  10  11
ATOM     11  C   UNL     1       9.494  11.125  18.177  0.00  0.00    +0.000 A 
ATOM     12  C   UNL     1      10.882  11.229  17.976  0.00  0.00    +0.000 A 
ATOM     13  C   UNL     1      11.442  12.416  17.494  0.00  0.00    +0.000 A 
ATOM     14  C   UNL     1      10.624  13.507  17.194  0.00  0.00    +0.000 A 
ATOM     15  C   UNL     1       9.245  13.415  17.380  0.00  0.00    +0.000 A 
ATOM     16  C   UNL     1       8.680  12.238  17.874  0.00  0.00    +0.000 A 
ENDBRANCH  10  11
ENDBRANCH   8  10
ENDBRANCH   7   8
ENDBRANCH   1   7
BRANCH   4  17
ATOM     17  C   UNL     1       3.601   5.969  18.061  0.00  0.00    +0.000 C 
BRANCH  17  18
ATOM     18  C   UNL     1       2.668   4.998  18.742  0.00  0.00    +0.000 A 
ATOM     19  C   UNL     1       2.478   5.064  20.136  0.00  0.00    +0.000 A 
ATOM     20  C   UNL     1       1.600   4.184  20.772  0.00  0.00    +0.000 A 
ATOM     21  C   UNL     1       0.903   3.229  20.027  0.00  0.00    +0.000 A 
ATOM     22  C   UNL     1       1.085   3.155  18.642  0.00  0.00    +0.000 A 
ATOM     23  C   UNL     1       1.962   4.034  18.001  0.00  0.00    +0.000 A 
ENDBRANCH  17  18
ENDBRANCH   4  17
TORSDOF 6
ENDMDL
MODEL 2
REMARK VINA RESULT:      -7.9      0.352      1.061
REMARK  Name = 
REMARK  6 active torsions:
REMARK  status: ('A' for Active; 'I' for Inactive)
REMARK    1  A    between atoms: C_2  and  C_3
REMARK    2  A    between atoms: C_2  and  C_18
REMARK    3  A    between atoms: C_3  and  C_4
REMARK    4  A    between atoms: C_4  and  N_5
REMARK    5  A    between atoms: C_8  and  C_9
REMARK    6  A    between atoms: C_9  and  C_10
REMARK                            x       y       z     vdW  Elec       q    Type
REMARK                         _______ _______ _______ _____ _____    ______ ____
ROOT
ATOM      1  N   UNL     1       7.408   6.743  17.764  0.00  0.00    +0.000 NA
ATOM      2  C   UNL     1       7.035   5.650  18.697  0.00  0.00    +0.000 C 
ATOM      3  C   UNL     1       6.118   4.624  18.015  0.00  0.00    +0.000 C 
ATOM      4  C   UNL     1       4.840   5.290  17.471  0.00  0.00    +0.000 C 
ATOM      5  C   UNL     1       5.275   6.410  16.515  0.00  0.00    +0.000 C 
ATOM      6  C   UNL     1       6.204   7.414  17.212  0.00  0.00    +0.000 C 
ENDROOT
BRANCH   1   7
ATOM      7  C   UNL     1       8.301   7.702  18.467  0.00  0.00    +0.000 C 
BRANCH   7   8
ATOM      8  C   UNL     1       8.232   9.129  17.881  0.00  0.00    +0.000 C 
BRANCH   8  10
ATOM      9  O   UNL     1       9.019   9.866  19.966  0.00  0.00    +0.000 OA
ATOM     10  C   UNL     1       8.965  10.101  18.767  0.00  0.00    +0.000 C 
BRANCH  10  11
ATOM     11  C   UNL     1       9.604  11.333  18.226  0.00  0.00    +0.000 A 
ATOM     12  C   UNL     1       8.861  12.523  18.122  0.00  0.00    +0.000 A 
ATOM     13  C   UNL     1       9.452  13.687  17.623  0.00  0.00    +0.000 A 
ATOM     14  C   UNL     1      10.794  13.683  17.237  0.00  0.00    +0.000 A 
ATOM     15  C   UNL     1      11.545  12.513  17.343  0.00  0.00    +0.000 A 
ATOM     16  C   UNL     1      10.958  11.344  17.827  0.00  0.00    +0.000 A 
ENDBRANCH  10  11
ENDBRANCH   8  10
ENDBRANCH   7   8
ENDBRANCH   1   7
BRANCH   4  17
ATOM     17  C   UNL     1       3.894   5.833  18.579  0.00  0.00    +0.000 C 
BRANCH  17  18
ATOM     18  C   UNL     1       2.804   4.864  18.967  0.00  0.00    +0.000 A 
ATOM     19  C   UNL     1       2.243   4.916  20.258  0.00  0.00    +0.000 A 
ATOM     20  C   UNL     1       1.218   4.037  20.619  0.00  0.00    +0.000 A 
ATOM     21  C   UNL     1       0.744   3.099  19.700  0.00  0.00    +0.000 A 
ATOM     22  C   UNL     1       1.295   3.039  18.415  0.00  0.00    +0.000 A 
ATOM     23  C   UNL     1       2.320   3.916  18.049  0.00  0.00    +0.000 A 
ENDBRANCH  17  18
ENDBRANCH   4  17
TORSDOF 6
ENDMDL
MODEL 3
REMARK VINA RESULT:      -7.8      1.368      1.955
REMARK  Name = 
REMARK  6 active torsions:
REMARK  status: ('A' for Active; 'I' for Inactive)
REMARK    1  A    between atoms: C_2  and  C_3
REMARK    2  A    between atoms: C_2  and  C_18
REMARK    3  A    between atoms: C_3  and  C_4
REMARK    4  A    between atoms: C_4  and  N_5
REMARK    5  A    between atoms: C_8  and  C_9
REMARK    6  A    between atoms: C_9  and  C_10
REMARK                            x       y       z     vdW  Elec       q    Type
REMARK                         _______ _______ _______ _____ _____    ______ ____
ROOT
ATOM      1  N   UNL     1       7.208   6.268  17.392  0.00  0.00    +0.000 NA
ATOM      2  C   UNL     1       6.323   6.164  18.579  0.00  0.00    +0.000 C 
ATOM      3  C   UNL     1       5.936   4.703  18.859  0.00  0.00    +0.000 C 
ATOM      4  C   UNL     1       5.237   4.068  17.643  0.00  0.00    +0.000 C 
ATOM      5  C   UNL     1       6.187   4.199  16.444  0.00  0.00    +0.000 C 
ATOM      6  C   UNL     1       6.574   5.663  16.192  0.00  0.00    +0.000 C 
ENDROOT
BRANCH   1   7
ATOM      7  C   UNL     1       7.561   7.695  17.169  0.00  0.00    +0.000 C 
BRANCH   7   8
ATOM      8  C   UNL     1       8.349   8.310  18.346  0.00  0.00    +0.000 C 
BRANCH   8  10
ATOM      9  O   UNL     1       7.617  10.373  17.496  0.00  0.00    +0.000 OA
ATOM     10  C   UNL     1       8.446   9.805  18.194  0.00  0.00    +0.000 C 
BRANCH  10  11
ATOM     11  C   UNL     1       9.523  10.596  18.854  0.00  0.00    +0.000 A 
ATOM     12  C   UNL     1      10.633  11.030  18.108  0.00  0.00    +0.000 A 
ATOM     13  C   UNL     1      11.646  11.780  18.714  0.00  0.00    +0.000 A 
ATOM     14  C   UNL     1      11.555  12.118  20.066  0.00  0.00    +0.000 A 
ATOM     15  C   UNL     1      10.455  11.702  20.815  0.00  0.00    +0.000 A 
ATOM     16  C   UNL     1       9.448  10.942  20.220  0.00  0.00    +0.000 A 
ENDBRANCH  10  11
ENDBRANCH   8  10
ENDBRANCH   7   8
ENDBRANCH   1   7
BRANCH   4  17
ATOM     17  C   UNL     1       3.843   4.680  17.326  0.00  0.00    +0.000 C 
BRANCH  17  18
ATOM     18  C   UNL     1       2.755   4.216  18.263  0.00  0.00    +0.000 A 
ATOM     19  C   UNL     1       2.044   3.032  17.986  0.00  0.00    +0.000 A 
ATOM     20  C   UNL     1       1.050   2.584  18.858  0.00  0.00    +0.000 A 
ATOM     21  C   UNL     1       0.753   3.310  20.013  0.00  0.00    +0.000 A 
ATOM     22  C   UNL     1       1.452   4.488  20.298  0.00  0.00    +0.000 A 
ATOM     23  C   UNL     1       2.449   4.940  19.428  0.00  0.00    +0.000 A 
ENDBRANCH  17  18
ENDBRANCH   4  17
TORSDOF 6
ENDMDL
MODEL 4
REMARK VINA RESULT:      -7.7      1.357      1.671
REMARK  Name = 
REMARK  6 active torsions:
REMARK  status: ('A' for Active; 'I' for Inactive)
REMARK    1  A    between atoms: C_2  and  C_3
REMARK    2  A    between atoms: C_2  and  C_18
REMARK    3  A    between atoms: C_3  and  C_4
REMARK    4  A    between atoms: C_4  and  N_5
REMARK    5  A    between atoms: C_8  and  C_9
REMARK    6  A    between atoms: C_9  and  C_10
REMARK                            x       y       z     vdW  Elec       q    Type
REMARK                         _______ _______ _______ _____ _____    ______ ____
ROOT
ATOM      1  N   UNL     1       7.347   6.213  17.278  0.00  0.00    +0.000 NA
ATOM      2  C   UNL     1       6.595   6.122  18.554  0.00  0.00    +0.000 C 
ATOM      3  C   UNL     1       6.113   4.686  18.816  0.00  0.00    +0.000 C 
ATOM      4  C   UNL     1       5.229   4.174  17.663  0.00  0.00    +0.000 C 
ATOM      5  C   UNL     1       6.047   4.287  16.369  0.00  0.00    +0.000 C 
ATOM      6  C   UNL     1       6.531   5.726  16.136  0.00  0.00    +0.000 C 
ENDROOT
BRANCH   1   7
ATOM      7  C   UNL     1       7.798   7.615  17.076  0.00  0.00    +0.000 C 
BRANCH   7   8
ATOM      8  C   UNL     1       8.363   8.256  18.362  0.00  0.00    +0.000 C 
BRANCH   8  10
ATOM      9  O   UNL     1       7.585  10.311  17.534  0.00  0.00    +0.000 OA
ATOM     10  C   UNL     1       8.430   9.754  18.221  0.00  0.00    +0.000 C 
BRANCH  10  11
ATOM     11  C   UNL     1       9.495  10.561  18.880  0.00  0.00    +0.000 A 
ATOM     12  C   UNL     1      10.609  10.992  18.138  0.00  0.00    +0.000 A 
ATOM     13  C   UNL     1      11.611  11.757  18.743  0.00  0.00    +0.000 A 
ATOM     14  C   UNL     1      11.507  12.111  20.090  0.00  0.00    +0.000 A 
ATOM     15  C   UNL     1      10.403  11.698  20.835  0.00  0.00    +0.000 A 
ATOM     16  C   UNL     1       9.406  10.923  20.241  0.00  0.00    +0.000 A 
ENDBRANCH  10  11
ENDBRANCH   8  10
ENDBRANCH   7   8
ENDBRANCH   1   7
BRANCH   4  17
ATOM     17  C   UNL     1       3.869   4.916  17.536  0.00  0.00    +0.000 C 
BRANCH  17  18
ATOM     18  C   UNL     1       2.784   4.341  18.414  0.00  0.00    +0.000 A 
ATOM     19  C   UNL     1       2.460   4.965  19.634  0.00  0.00    +0.000 A 
ATOM     20  C   UNL     1       1.443   4.451  20.441  0.00  0.00    +0.000 A 
ATOM     21  C   UNL     1       0.739   3.313  20.043  0.00  0.00    +0.000 A 
ATOM     22  C   UNL     1       1.053   2.685  18.833  0.00  0.00    +0.000 A 
ATOM     23  C   UNL     1       2.070   3.195  18.021  0.00  0.00    +0.000 A 
ENDBRANCH  17  18
ENDBRANCH   4  17
TORSDOF 6
ENDMDL
MODEL 5
REMARK VINA RESULT:      -7.6      4.510      7.078
REMARK  Name = 
REMARK  6 active torsions:
REMARK  status: ('A' for Active; 'I' for Inactive)
REMARK    1  A    between atoms: C_2  and  C_3
REMARK    2  A    between atoms: C_2  and  C_18
REMARK    3  A    between atoms: C_3  and  C_4
REMARK    4  A    between atoms: C_4  and  N_5
REMARK    5  A    between atoms: C_8  and  C_9
REMARK    6  A    between atoms: C_9  and  C_10
REMARK                            x       y       z     vdW  Elec       q    Type
REMARK                         _______ _______ _______ _____ _____    ______ ____
ROOT
ATOM      1  N   UNL     1       6.283   5.471  16.907  0.00  0.00    +0.000 NA
ATOM      2  C   UNL     1       5.366   6.550  16.461  0.00  0.00    +0.000 C 
ATOM      3  C   UNL     1       4.720   7.264  17.659  0.00  0.00    +0.000 C 
ATOM      4  C   UNL     1       3.948   6.273  18.550  0.00  0.00    +0.000 C 
ATOM      5  C   UNL     1       4.933   5.179  18.985  0.00  0.00    +0.000 C 
ATOM      6  C   UNL     1       5.579   4.491  17.773  0.00  0.00    +0.000 C 
ENDROOT
BRANCH   1   7
ATOM      7  C   UNL     1       6.887   4.820  15.715  0.00  0.00    +0.000 C 
BRANCH   7   8
ATOM      8  C   UNL     1       6.110   5.111  14.412  0.00  0.00    +0.000 C 
BRANCH   8  10
ATOM      9  O   UNL     1       7.898   5.458  12.931  0.00  0.00    +0.000 OA
ATOM     10  C   UNL     1       6.940   4.750  13.209  0.00  0.00    +0.000 C 
BRANCH  10  11
ATOM     11  C   UNL     1       6.617   3.574  12.353  0.00  0.00    +0.000 A 
ATOM     12  C   UNL     1       7.654   2.811  11.788  0.00  0.00    +0.000 A 
ATOM     13  C   UNL     1       7.364   1.700  10.990  0.00  0.00    +0.000 A 
ATOM     14  C   UNL     1       6.037   1.330  10.758  0.00  0.00    +0.000 A 
ATOM     15  C   UNL     1       4.999   2.073  11.319  0.00  0.00    +0.000 A 
ATOM     16  C   UNL     1       5.281   3.190  12.106  0.00  0.00    +0.000 A 
ENDBRANCH  10  11
ENDBRANCH   8  10
ENDBRANCH   7   8
ENDBRANCH   1   7
BRANCH   4  17
ATOM     17  C   UNL     1       2.693   5.660  17.868  0.00  0.00    +0.000 C 
BRANCH  17  18
ATOM     18  C   UNL     1       2.046   4.559  18.673  0.00  0.00    +0.000 A 
ATOM     19  C   UNL     1       1.778   3.313  18.074  0.00  0.00    +0.000 A 
ATOM     20  C   UNL     1       1.201   2.281  18.818  0.00  0.00    +0.000 A 
ATOM     21  C   UNL     1       0.884   2.480  20.163  0.00  0.00    +0.000 A 
ATOM     22  C   UNL     1       1.146   3.714  20.767  0.00  0.00    +0.000 A 
ATOM     23  C   UNL     1       1.724   4.750  20.028  0.00  0.00    +0.000 A 
ENDBRANCH  17  18
ENDBRANCH   4  17
TORSDOF 6
ENDMDL
MODEL 6
REMARK VINA RESULT:      -7.6      4.739      7.168
REMARK  Name = 
REMARK  6 active torsions:
REMARK  status: ('A' for Active; 'I' for Inactive)
REMARK    1  A    between atoms: C_2  and  C_3
REMARK    2  A    between atoms: C_2  and  C_18
REMARK    3  A    between atoms: C_3  and  C_4
REMARK    4  A    between atoms: C_4  and  N_5
REMARK    5  A    between atoms: C_8  and  C_9
REMARK    6  A    between atoms: C_9  and  C_10
REMARK                            x       y       z     vdW  Elec       q    Type
REMARK                         _______ _______ _______ _____ _____    ______ ____
ROOT
ATOM      1  N   UNL     1       6.752   5.592  16.827  0.00  0.00    +0.000 NA
ATOM      2  C   UNL     1       5.275   5.448  16.778  0.00  0.00    +0.000 C 
ATOM      3  C   UNL     1       4.620   5.980  18.062  0.00  0.00    +0.000 C 
ATOM      4  C   UNL     1       5.162   5.256  19.308  0.00  0.00    +0.000 C 
ATOM      5  C   UNL     1       6.687   5.431  19.316  0.00  0.00    +0.000 C 
ATOM      6  C   UNL     1       7.319   4.908  18.018  0.00  0.00    +0.000 C 
ENDROOT
BRANCH   1   7
ATOM      7  C   UNL     1       7.336   5.072  15.562  0.00  0.00    +0.000 C 
BRANCH   7   8
ATOM      8  C   UNL     1       6.372   5.193  14.362  0.00  0.00    +0.000 C 
BRANCH   8  10
ATOM      9  O   UNL     1       7.971   5.530  12.676  0.00  0.00    +0.000 OA
ATOM     10  C   UNL     1       7.069   4.810  13.083  0.00  0.00    +0.000 C 
BRANCH  10  11
ATOM     11  C   UNL     1       6.682   3.599  12.306  0.00  0.00    +0.000 A 
ATOM     12  C   UNL     1       5.324   3.284  12.127  0.00  0.00    +0.000 A 
ATOM     13  C   UNL     1       4.948   2.155  11.393  0.00  0.00    +0.000 A 
ATOM     14  C   UNL     1       5.922   1.336  10.817  0.00  0.00    +0.000 A 
ATOM     15  C   UNL     1       7.273   1.642  10.979  0.00  0.00    +0.000 A 
ATOM     16  C   UNL     1       7.655   2.760  11.722  0.00  0.00    +0.000 A 
ENDBRANCH  10  11
ENDBRANCH   8  10
ENDBRANCH   7   8
ENDBRANCH   1   7
BRANCH   4  17
ATOM     17  C   UNL     1       4.768   3.754  19.384  0.00  0.00    +0.000 C 
BRANCH  17  18
ATOM     18  C   UNL     1       3.287   3.528  19.560  0.00  0.00    +0.000 A 
ATOM     19  C   UNL     1       2.629   2.543  18.798  0.00  0.00    +0.000 A 
ATOM     20  C   UNL     1       1.262   2.312  18.970  0.00  0.00    +0.000 A 
ATOM     21  C   UNL     1       0.537   3.060  19.901  0.00  0.00    +0.000 A 
ATOM     22  C   UNL     1       1.181   4.040  20.663  0.00  0.00    +0.000 A 
ATOM     23  C   UNL     1       2.549   4.275  20.495  0.00  0.00    +0.000 A 
ENDBRANCH  17  18
ENDBRANCH   4  17
TORSDOF 6
ENDMDL
MODEL 7
REMARK VINA RESULT:      -7.6      1.112      1.413
REMARK  Name = 
REMARK  6 active torsions:
REMARK  status: ('A' for Active; 'I' for Inactive)
REMARK    1  A    between atoms: C_2  and  C_3
REMARK    2  A    between atoms: C_2  and  C_18
REMARK    3  A    between atoms: C_3  and  C_4
REMARK    4  A    between atoms: C_4  and  N_5
REMARK    5  A    between atoms: C_8  and  C_9
REMARK    6  A    between atoms: C_9  and  C_10
REMARK                            x       y       z     vdW  Elec       q    Type
REMARK                         _______ _______ _______ _____ _____    ______ ____
ROOT
ATOM      1  N   UNL     1       7.525   7.559  17.399  0.00  0.00    +0.000 NA
ATOM      2  C   UNL     1       7.864   6.577  18.460  0.00  0.00    +0.000 C 
ATOM      3  C   UNL     1       7.568   5.140  18.004  0.00  0.00    +0.000 C 
ATOM      4  C   UNL     1       6.090   4.973  17.606  0.00  0.00    +0.000 C 
ATOM      5  C   UNL     1       5.787   6.005  16.511  0.00  0.00    +0.000 C 
ATOM      6  C   UNL     1       6.106   7.432  16.981  0.00  0.00    +0.000 C 
ENDROOT
BRANCH   1   7
ATOM      7  C   UNL     1       7.838   8.929  17.884  0.00  0.00    +0.000 C 
BRANCH   7   8
ATOM      8  C   UNL     1       9.053   8.967  18.836  0.00  0.00    +0.000 C 
BRANCH   8  10
ATOM      9  O   UNL     1       8.905  10.570  20.546  0.00  0.00    +0.000 OA
ATOM     10  C   UNL     1       9.247  10.354  19.391  0.00  0.00    +0.000 C 
BRANCH  10  11
ATOM     11  C   UNL     1       9.825  11.456  18.573  0.00  0.00    +0.000 A 
ATOM     12  C   UNL     1      11.189  11.436  18.231  0.00  0.00    +0.000 A 
ATOM     13  C   UNL     1      11.741  12.461  17.457  0.00  0.00    +0.000 A 
ATOM     14  C   UNL     1      10.938  13.509  17.003  0.00  0.00    +0.000 A 
ATOM     15  C   UNL     1       9.582  13.537  17.327  0.00  0.00    +0.000 A 
ATOM     16  C   UNL     1       9.027  12.525  18.111  0.00  0.00    +0.000 A 
ENDBRANCH  10  11
ENDBRANCH   8  10
ENDBRANCH   7   8
ENDBRANCH   1   7
BRANCH   4  17
ATOM     17  C   UNL     1       5.098   5.109  18.796  0.00  0.00    +0.000 C 
BRANCH  17  18
ATOM     18  C   UNL     1       3.847   4.281  18.635  0.00  0.00    +0.000 A 
ATOM     19  C   UNL     1       3.842   2.928  19.025  0.00  0.00    +0.000 A 
ATOM     20  C   UNL     1       2.682   2.161  18.899  0.00  0.00    +0.000 A 
ATOM     21  C   UNL     1       1.516   2.732  18.384  0.00  0.00    +0.000 A 
ATOM     22  C   UNL     1       1.510   4.075  17.994  0.00  0.00    +0.000 A 
ATOM     23  C   UNL     1       2.669   4.848  18.118  0.00  0.00    +0.000 A 
ENDBRANCH  17  18
ENDBRANCH   4  17
TORSDOF 6
ENDMDL
MODEL 8
REMARK VINA RESULT:      -7.6      1.465      2.106
REMARK  Name = 
REMARK  6 active torsions:
REMARK  status: ('A' for Active; 'I' for Inactive)
REMARK    1  A    between atoms: C_2  and  C_3
REMARK    2  A    between atoms: C_2  and  C_18
REMARK    3  A    between atoms: C_3  and  C_4
REMARK    4  A    between atoms: C_4  and  N_5
REMARK    5  A    between atoms: C_8  and  C_9
REMARK    6  A    between atoms: C_9  and  C_10
REMARK                            x       y       z     vdW  Elec       q    Type
REMARK                         _______ _______ _______ _____ _____    ______ ____
ROOT
ATOM      1  N   UNL     1       7.119   6.434  17.547  0.00  0.00    +0.000 NA
ATOM      2  C   UNL     1       6.100   6.048  18.555  0.00  0.00    +0.000 C 
ATOM      3  C   UNL     1       5.959   4.521  18.649  0.00  0.00    +0.000 C 
ATOM      4  C   UNL     1       5.586   3.909  17.285  0.00  0.00    +0.000 C 
ATOM      5  C   UNL     1       6.665   4.334  16.279  0.00  0.00    +0.000 C 
ATOM      6  C   UNL     1       6.801   5.862  16.213  0.00  0.00    +0.000 C 
ENDROOT
BRANCH   1   7
ATOM      7  C   UNL     1       7.224   7.916  17.501  0.00  0.00    +0.000 C 
BRANCH   7   8
ATOM      8  C   UNL     1       8.422   8.459  18.310  0.00  0.00    +0.000 C 
BRANCH   8  10
ATOM      9  O   UNL     1       7.694  10.529  17.473  0.00  0.00    +0.000 OA
ATOM     10  C   UNL     1       8.529   9.954  18.158  0.00  0.00    +0.000 C 
BRANCH  10  11
ATOM     11  C   UNL     1       9.621  10.735  18.803  0.00  0.00    +0.000 A 
ATOM     12  C   UNL     1       9.539  11.062  20.168  0.00  0.00    +0.000 A 
ATOM     13  C   UNL     1      10.562  11.788  20.786  0.00  0.00    +0.000 A 
ATOM     14  C   UNL     1      11.684  12.183  20.055  0.00  0.00    +0.000 A 
ATOM     15  C   UNL     1      11.783  11.858  18.702  0.00  0.00    +0.000 A 
ATOM     16  C   UNL     1      10.759  11.145  18.075  0.00  0.00    +0.000 A 
ENDBRANCH  10  11
ENDBRANCH   8  10
ENDBRANCH   7   8
ENDBRANCH   1   7
BRANCH   4  17
ATOM     17  C   UNL     1       4.167   4.300  16.787  0.00  0.00    +0.000 C 
BRANCH  17  18
ATOM     18  C   UNL     1       3.060   3.856  17.711  0.00  0.00    +0.000 A 
ATOM     19  C   UNL     1       2.740   2.489  17.822  0.00  0.00    +0.000 A 
ATOM     20  C   UNL     1       1.732   2.067  18.691  0.00  0.00    +0.000 A 
ATOM     21  C   UNL     1       1.032   3.001  19.458  0.00  0.00    +0.000 A 
ATOM     22  C   UNL     1       1.342   4.361  19.356  0.00  0.00    +0.000 A 
ATOM     23  C   UNL     1       2.351   4.789  18.488  0.00  0.00    +0.000 A 
ENDBRANCH  17  18
ENDBRANCH   4  17
TORSDOF 6
ENDMDL
MODEL 9
REMARK VINA RESULT:      -7.5      4.521      8.490
REMARK  Name = 
REMARK  6 active torsions:
REMARK  status: ('A' for Active; 'I' for Inactive)
REMARK    1  A    between atoms: C_2  and  C_3
REMARK    2  A    between atoms: C_2  and  C_18
REMARK    3  A    between atoms: C_3  and  C_4
REMARK    4  A    between atoms: C_4  and  N_5
REMARK    5  A    between atoms: C_8  and  C_9
REMARK    6  A    between atoms: C_9  and  C_10
REMARK                            x       y       z     vdW  Elec       q    Type
REMARK                         _______ _______ _______ _____ _____    ______ ____
ROOT
ATOM      1  N   UNL     1       4.533   6.500  18.478  0.00  0.00    +0.000 NA
ATOM      2  C   UNL     1       5.380   5.340  18.853  0.00  0.00    +0.000 C 
ATOM      3  C   UNL     1       6.800   5.479  18.281  0.00  0.00    +0.000 C 
ATOM      4  C   UNL     1       6.773   5.617  16.748  0.00  0.00    +0.000 C 
ATOM      5  C   UNL     1       5.888   6.825  16.409  0.00  0.00    +0.000 C 
ATOM      6  C   UNL     1       4.481   6.673  17.004  0.00  0.00    +0.000 C 
ENDROOT
BRANCH   1   7
ATOM      7  C   UNL     1       3.177   6.323  19.062  0.00  0.00    +0.000 C 
BRANCH   7   8
ATOM      8  C   UNL     1       2.111   5.958  18.005  0.00  0.00    +0.000 C 
BRANCH   8  10
ATOM      9  O   UNL     1       1.130   3.984  17.198  0.00  0.00    +0.000 OA
ATOM     10  C   UNL     1       1.710   4.512  18.136  0.00  0.00    +0.000 C 
BRANCH  10  11
ATOM     11  C   UNL     1       1.988   3.725  19.370  0.00  0.00    +0.000 A 
ATOM     12  C   UNL     1       3.183   2.993  19.481  0.00  0.00    +0.000 A 
ATOM     13  C   UNL     1       3.459   2.257  20.638  0.00  0.00    +0.000 A 
ATOM     14  C   UNL     1       2.554   2.255  21.702  0.00  0.00    +0.000 A 
ATOM     15  C   UNL     1       1.369   2.985  21.608  0.00  0.00    +0.000 A 
ATOM     16  C   UNL     1       1.081   3.710  20.451  0.00  0.00    +0.000 A 
ENDBRANCH  10  11
ENDBRANCH   8  10
ENDBRANCH   7   8
ENDBRANCH   1   7
BRANCH   4  17
ATOM     17  C   UNL     1       6.288   4.339  16.009  0.00  0.00    +0.000 C 
BRANCH  17  18
ATOM     18  C   UNL     1       6.584   4.349  14.529  0.00  0.00    +0.000 A 
ATOM     19  C   UNL     1       7.564   5.219  14.013  0.00  0.00    +0.000 A 
ATOM     20  C   UNL     1       7.860   5.220  12.648  0.00  0.00    +0.000 A 
ATOM     21  C   UNL     1       7.184   4.356  11.784  0.00  0.00    +0.000 A 
ATOM     22  C   UNL     1       6.210   3.487  12.286  0.00  0.00    +0.000 A 
ATOM     23  C   UNL     1       5.910   3.482  13.652  0.00  0.00    +0.000 A 
ENDBRANCH  17  18
ENDBRANCH   4  17
TORSDOF 6
ENDMDL
