MODEL 1
REMARK VINA RESULT:      -8.1      0.000      0.000
REMARK  Name = 
REMARK  5 active torsions:
REMARK  status: ('A' for Active; 'I' for Inactive)
REMARK    1  A    between atoms: C_1  and  N_2
REMARK    2  A    between atoms: C_4  and  C_5
REMARK    3  A    between atoms: C_5  and  N_6
REMARK    4  A    between atoms: C_16  and  C_17
REMARK    5  A    between atoms: N_19  and  O_20
REMARK                            x       y       z     vdW  Elec       q    Type
REMARK                         _______ _______ _______ _____ _____    ______ ____
ROOT
ATOM      1  N   UNL     1      -0.882  12.391  21.227  0.00  0.00    +0.000 NA
ATOM      2  C   UNL     1       0.570  12.554  21.070  0.00  0.00    +0.000 C 
ATOM      3  C   UNL     1       1.172  11.220  21.434  0.00  0.00    +0.000 C 
ATOM      4  C   UNL     1       0.161  10.183  20.916  0.00  0.00    +0.000 C 
ATOM      5  C   UNL     1       0.250   8.883  21.772  0.00  0.00    +0.000 C 
ATOM      6  C   UNL     1       1.596   8.172  21.538  0.00  0.00    +0.000 C 
ATOM      7  N   UNL     1       1.754   7.881  20.116  0.00  0.00    +0.000 N 
ATOM      8  C   UNL     1       2.030   6.552  19.645  0.00  0.00    +0.000 A 
ATOM      9  N   UNL     1       2.045   5.500  20.506  0.00  0.00    +0.000 NA
ATOM     10  C   UNL     1       2.380   4.248  20.096  0.00  0.00    +0.000 A 
ATOM     11  C   UNL     1       2.740   4.006  18.768  0.00  0.00    +0.000 A 
ATOM     12  C   UNL     1       2.709   5.106  17.887  0.00  0.00    +0.000 A 
ATOM     13  N   UNL     1       2.360   6.336  18.344  0.00  0.00    +0.000 NA
ATOM     14  C   UNL     1       1.657   9.008  19.194  0.00  0.00    +0.000 C 
ATOM     15  C   UNL     1       0.335   9.761  19.424  0.00  0.00    +0.000 C 
ATOM     16  C   UNL     1      -1.182  10.946  21.079  0.00  0.00    +0.000 C 
ENDROOT
BRANCH  11  17
ATOM     17  C   UNL     1       3.160   2.632  18.356  0.00  0.00    +0.000 C 
ATOM     18  O   UNL     1       2.597   2.107  17.405  0.00  0.00    +0.000 OA
ATOM     19  N   UNL     1       4.132   1.928  19.002  0.00  0.00    +0.000 N 
ATOM     20  H   UNL     1       4.640   2.318  19.804  0.00  0.00    +0.000 HD
BRANCH  19  21
ATOM     21  O   UNL     1       4.422   0.669  18.628  0.00  0.00    +0.000 OA
ATOM     22  H   UNL     1       4.420   0.130  19.462  0.00  0.00    +0.000 HD
ENDBRANCH  19  21
ENDBRANCH  11  17
BRANCH   1  23
ATOM     23  C   UNL     1      -1.624  13.323  20.344  0.00  0.00    +0.000 C 
BRANCH  23  27
ATOM     24  C   UNL     1      -6.437  11.875  19.826  0.00  0.00    +0.000 C 
ATOM     25  N   UNL     1      -5.015  12.066  19.570  0.00  0.00    +0.000 N 
ATOM     26  C   UNL     1      -4.134  12.727  20.355  0.00  0.00    +0.000 A 
ATOM     27  C   UNL     1      -2.872  12.708  19.769  0.00  0.00    +0.000 A 
ATOM     28  C   UNL     1      -3.018  12.020  18.569  0.00  0.00    +0.000 A 
ATOM     29  C   UNL     1      -2.119  11.708  17.542  0.00  0.00    +0.000 A 
ATOM     30  C   UNL     1      -2.619  10.975  16.446  0.00  0.00    +0.000 A 
ATOM     31  N   UNL     1      -3.932  10.584  16.410  0.00  0.00    +0.000 NA
ATOM     32  C   UNL     1      -4.804  10.895  17.411  0.00  0.00    +0.000 A 
ATOM     33  C   UNL     1      -4.330  11.631  18.496  0.00  0.00    +0.000 A 
ENDBRANCH  23  27
ENDBRANCH   1  23
TORSDOF 4
ENDMDL
MODEL 2
REMARK VINA RESULT:      -8.1      0.576      1.815
REMARK  Name = 
REMARK  5 active torsions:
REMARK  status: ('A' for Active; 'I' for Inactive)
REMARK    1  A    between atoms: C_1  and  N_2
REMARK    2  A    between atoms: C_4  and  C_5
REMARK    3  A    between atoms: C_5  and  N_6
REMARK    4  A    between atoms: C_16  and  C_17
REMARK    5  A    between atoms: N_19  and  O_20
REMARK                            x       y       z     vdW  Elec       q    Type
REMARK                         _______ _______ _______ _____ _____    ______ ____
ROOT
ATOM      1  N   UNL     1      -0.818  12.401  21.111  0.00  0.00    +0.000 NA
ATOM      2  C   UNL     1       0.613  12.583  20.826  0.00  0.00    +0.000 C 
ATOM      3  C   UNL     1       1.273  11.279  21.201  0.00  0.00    +0.000 C 
ATOM      4  C   UNL     1       0.245  10.200  20.819  0.00  0.00    +0.000 C 
ATOM      5  C   UNL     1       0.433   8.946  21.726  0.00  0.00    +0.000 C 
ATOM      6  C   UNL     1       1.771   8.248  21.414  0.00  0.00    +0.000 C 
ATOM      7  N   UNL     1       1.817   7.891  20.000  0.00  0.00    +0.000 N 
ATOM      8  C   UNL     1       2.082   6.546  19.571  0.00  0.00    +0.000 A 
ATOM      9  N   UNL     1       2.192   5.537  20.477  0.00  0.00    +0.000 NA
ATOM     10  C   UNL     1       2.520   4.274  20.100  0.00  0.00    +0.000 A 
ATOM     11  C   UNL     1       2.775   3.973  18.760  0.00  0.00    +0.000 A 
ATOM     12  C   UNL     1       2.647   5.027  17.833  0.00  0.00    +0.000 A 
ATOM     13  N   UNL     1       2.309   6.272  18.259  0.00  0.00    +0.000 NA
ATOM     14  C   UNL     1       1.619   8.970  19.036  0.00  0.00    +0.000 C 
ATOM     15  C   UNL     1       0.305   9.708  19.340  0.00  0.00    +0.000 C 
ATOM     16  C   UNL     1      -1.096  10.946  21.057  0.00  0.00    +0.000 C 
ENDROOT
BRANCH  11  17
ATOM     17  C   UNL     1       3.189   2.588  18.380  0.00  0.00    +0.000 C 
ATOM     18  O   UNL     1       2.632   2.048  17.434  0.00  0.00    +0.000 OA
ATOM     19  N   UNL     1       4.150   1.891  19.050  0.00  0.00    +0.000 N 
ATOM     20  H   UNL     1       4.653   2.294  19.849  0.00  0.00    +0.000 HD
BRANCH  19  21
ATOM     21  O   UNL     1       4.435   0.623  18.704  0.00  0.00    +0.000 OA
ATOM     22  H   UNL     1       4.217   0.069  19.499  0.00  0.00    +0.000 HD
ENDBRANCH  19  21
ENDBRANCH  11  17
BRANCH   1  23
ATOM     23  C   UNL     1      -1.650  13.276  20.250  0.00  0.00    +0.000 C 
BRANCH  23  27
ATOM     24  C   UNL     1      -2.566  10.718  15.990  0.00  0.00    +0.000 C 
ATOM     25  N   UNL     1      -2.760  11.386  17.270  0.00  0.00    +0.000 N 
ATOM     26  C   UNL     1      -1.811  12.004  18.011  0.00  0.00    +0.000 A 
ATOM     27  C   UNL     1      -2.378  12.510  19.177  0.00  0.00    +0.000 A 
ATOM     28  C   UNL     1      -3.723  12.156  19.134  0.00  0.00    +0.000 A 
ATOM     29  C   UNL     1      -4.782  12.355  20.026  0.00  0.00    +0.000 A 
ATOM     30  C   UNL     1      -6.046  11.854  19.652  0.00  0.00    +0.000 A 
ATOM     31  N   UNL     1      -6.212  11.211  18.453  0.00  0.00    +0.000 NA
ATOM     32  C   UNL     1      -5.175  11.016  17.590  0.00  0.00    +0.000 A 
ATOM     33  C   UNL     1      -3.916  11.492  17.951  0.00  0.00    +0.000 A 
ENDBRANCH  23  27
ENDBRANCH   1  23
TORSDOF 4
ENDMDL
MODEL 3
REMARK VINA RESULT:      -8.0      0.893      1.208
REMARK  Name = 
REMARK  5 active torsions:
REMARK  status: ('A' for Active; 'I' for Inactive)
REMARK    1  A    between atoms: C_1  and  N_2
REMARK    2  A    between atoms: C_4  and  C_5
REMARK    3  A    between atoms: C_5  and  N_6
REMARK    4  A    between atoms: C_16  and  C_17
REMARK    5  A    between atoms: N_19  and  O_20
REMARK                            x       y       z     vdW  Elec       q    Type
REMARK                         _______ _______ _______ _____ _____    ______ ____
ROOT
ATOM      1  N   UNL     1      -0.965  12.348  21.042  0.00  0.00    +0.000 NA
ATOM      2  C   UNL     1       0.464  12.548  20.767  0.00  0.00    +0.000 C 
ATOM      3  C   UNL     1       1.140  11.257  21.159  0.00  0.00    +0.000 C 
ATOM      4  C   UNL     1       0.131  10.160  20.779  0.00  0.00    +0.000 C 
ATOM      5  C   UNL     1       0.330   8.917  21.698  0.00  0.00    +0.000 C 
ATOM      6  C   UNL     1       1.680   8.236  21.403  0.00  0.00    +0.000 C 
ATOM      7  N   UNL     1       1.743   7.867  19.993  0.00  0.00    +0.000 N 
ATOM      8  C   UNL     1       2.032   6.522  19.578  0.00  0.00    +0.000 A 
ATOM      9  N   UNL     1       2.149   5.523  20.493  0.00  0.00    +0.000 NA
ATOM     10  C   UNL     1       2.498   4.261  20.131  0.00  0.00    +0.000 A 
ATOM     11  C   UNL     1       2.768   3.953  18.795  0.00  0.00    +0.000 A 
ATOM     12  C   UNL     1       2.632   4.996  17.858  0.00  0.00    +0.000 A 
ATOM     13  N   UNL     1       2.273   6.240  18.270  0.00  0.00    +0.000 NA
ATOM     14  C   UNL     1       1.538   8.934  19.018  0.00  0.00    +0.000 C 
ATOM     15  C   UNL     1       0.210   9.656  19.304  0.00  0.00    +0.000 C 
ATOM     16  C   UNL     1      -1.223  10.888  20.999  0.00  0.00    +0.000 C 
ENDROOT
BRANCH  11  17
ATOM     17  C   UNL     1       3.205   2.570  18.431  0.00  0.00    +0.000 C 
ATOM     18  O   UNL     1       2.651   2.007  17.497  0.00  0.00    +0.000 OA
ATOM     19  N   UNL     1       4.184   1.901  19.103  0.00  0.00    +0.000 N 
ATOM     20  H   UNL     1       4.685   2.324  19.892  0.00  0.00    +0.000 HD
BRANCH  19  21
ATOM     21  O   UNL     1       4.491   0.634  18.772  0.00  0.00    +0.000 OA
ATOM     22  H   UNL     1       3.908   0.405  18.002  0.00  0.00    +0.000 HD
ENDBRANCH  19  21
ENDBRANCH  11  17
BRANCH   1  23
ATOM     23  C   UNL     1      -1.803  13.202  20.167  0.00  0.00    +0.000 C 
BRANCH  23  27
ATOM     24  C   UNL     1      -6.459  13.061  22.125  0.00  0.00    +0.000 C 
ATOM     25  N   UNL     1      -5.332  12.865  21.222  0.00  0.00    +0.000 N 
ATOM     26  C   UNL     1      -4.061  13.288  21.412  0.00  0.00    +0.000 A 
ATOM     27  C   UNL     1      -3.275  12.925  20.322  0.00  0.00    +0.000 A 
ATOM     28  C   UNL     1      -4.127  12.274  19.436  0.00  0.00    +0.000 A 
ATOM     29  C   UNL     1      -3.925  11.715  18.169  0.00  0.00    +0.000 A 
ATOM     30  C   UNL     1      -5.038  11.117  17.542  0.00  0.00    +0.000 A 
ATOM     31  N   UNL     1      -6.255  11.084  18.168  0.00  0.00    +0.000 NA
ATOM     32  C   UNL     1      -6.447  11.635  19.401  0.00  0.00    +0.000 A 
ATOM     33  C   UNL     1      -5.361  12.243  20.029  0.00  0.00    +0.000 A 
ENDBRANCH  23  27
ENDBRANCH   1  23
TORSDOF 4
ENDMDL
MODEL 4
REMARK VINA RESULT:      -8.0      1.266      2.531
REMARK  Name = 
REMARK  5 active torsions:
REMARK  status: ('A' for Active; 'I' for Inactive)
REMARK    1  A    between atoms: C_1  and  N_2
REMARK    2  A    between atoms: C_4  and  C_5
REMARK    3  A    between atoms: C_5  and  N_6
REMARK    4  A    between atoms: C_16  and  C_17
REMARK    5  A    between atoms: N_19  and  O_20
REMARK                            x       y       z     vdW  Elec       q    Type
REMARK                         _______ _______ _______ _____ _____    ______ ____
ROOT
ATOM      1  N   UNL     1      -1.511  12.218  21.081  0.00  0.00    +0.000 NA
ATOM      2  C   UNL     1      -0.088  12.571  20.983  0.00  0.00    +0.000 C 
ATOM      3  C   UNL     1       0.669  11.317  21.344  0.00  0.00    +0.000 C 
ATOM      4  C   UNL     1      -0.181  10.171  20.768  0.00  0.00    +0.000 C 
ATOM      5  C   UNL     1       0.045   8.874  21.603  0.00  0.00    +0.000 C 
ATOM      6  C   UNL     1       1.480   8.347  21.407  0.00  0.00    +0.000 C 
ATOM      7  N   UNL     1       1.724   8.113  19.987  0.00  0.00    +0.000 N 
ATOM      8  C   UNL     1       2.186   6.842  19.502  0.00  0.00    +0.000 A 
ATOM      9  N   UNL     1       2.307   5.780  20.344  0.00  0.00    +0.000 NA
ATOM     10  C   UNL     1       2.815   4.592  19.923  0.00  0.00    +0.000 A 
ATOM     11  C   UNL     1       3.251   4.430  18.606  0.00  0.00    +0.000 A 
ATOM     12  C   UNL     1       3.109   5.536  17.745  0.00  0.00    +0.000 A 
ATOM     13  N   UNL     1       2.587   6.701  18.211  0.00  0.00    +0.000 NA
ATOM     14  C   UNL     1       1.515   9.240  19.083  0.00  0.00    +0.000 C 
ATOM     15  C   UNL     1       0.099   9.810  19.277  0.00  0.00    +0.000 C 
ATOM     16  C   UNL     1      -1.616  10.751  20.894  0.00  0.00    +0.000 C 
ENDROOT
BRANCH  11  17
ATOM     17  C   UNL     1       3.859   3.130  18.184  0.00  0.00    +0.000 C 
ATOM     18  O   UNL     1       4.375   3.056  17.078  0.00  0.00    +0.000 OA
ATOM     19  N   UNL     1       3.851   2.018  18.972  0.00  0.00    +0.000 N 
ATOM     20  H   UNL     1       3.435   2.022  19.910  0.00  0.00    +0.000 HD
BRANCH  19  21
ATOM     21  O   UNL     1       4.355   0.858  18.515  0.00  0.00    +0.000 OA
ATOM     22  H   UNL     1       5.025   1.106  17.825  0.00  0.00    +0.000 HD
ENDBRANCH  19  21
ENDBRANCH  11  17
BRANCH   1  23
ATOM     23  C   UNL     1      -2.335  13.069  20.187  0.00  0.00    +0.000 C 
BRANCH  23  27
ATOM     24  C   UNL     1      -6.689  11.241  18.388  0.00  0.00    +0.000 C 
ATOM     25  N   UNL     1      -5.696  11.812  19.289  0.00  0.00    +0.000 N 
ATOM     26  C   UNL     1      -4.406  12.097  18.995  0.00  0.00    +0.000 A 
ATOM     27  C   UNL     1      -3.770  12.616  20.118  0.00  0.00    +0.000 A 
ATOM     28  C   UNL     1      -4.723  12.619  21.132  0.00  0.00    +0.000 A 
ATOM     29  C   UNL     1      -4.670  12.993  22.479  0.00  0.00    +0.000 A 
ATOM     30  C   UNL     1      -5.854  12.865  23.233  0.00  0.00    +0.000 A 
ATOM     31  N   UNL     1      -7.004  12.402  22.649  0.00  0.00    +0.000 NA
ATOM     32  C   UNL     1      -7.049  12.034  21.337  0.00  0.00    +0.000 A 
ATOM     33  C   UNL     1      -5.882  12.141  20.581  0.00  0.00    +0.000 A 
ENDBRANCH  23  27
ENDBRANCH   1  23
TORSDOF 4
ENDMDL
MODEL 5
REMARK VINA RESULT:      -7.5      2.215      3.602
REMARK  Name = 
REMARK  5 active torsions:
REMARK  status: ('A' for Active; 'I' for Inactive)
REMARK    1  A    between atoms: C_1  and  N_2
REMARK    2  A    between atoms: C_4  and  C_5
REMARK    3  A    between atoms: C_5  and  N_6
REMARK    4  A    between atoms: C_16  and  C_17
REMARK    5  A    between atoms: N_19  and  O_20
REMARK                            x       y       z     vdW  Elec       q    Type
REMARK                         _______ _______ _______ _____ _____    ______ ____
ROOT
ATOM      1  N   UNL     1      -2.494  13.426  22.128  0.00  0.00    +0.000 NA
ATOM      2  C   UNL     1      -1.154  13.958  21.844  0.00  0.00    +0.000 C 
ATOM      3  C   UNL     1      -0.207  12.798  22.028  0.00  0.00    +0.000 C 
ATOM      4  C   UNL     1      -0.989  11.574  21.522  0.00  0.00    +0.000 C 
ATOM      5  C   UNL     1      -0.488  10.289  22.248  0.00  0.00    +0.000 C 
ATOM      6  C   UNL     1       0.954   9.954  21.821  0.00  0.00    +0.000 C 
ATOM      7  N   UNL     1       1.011   9.799  20.371  0.00  0.00    +0.000 N 
ATOM      8  C   UNL     1       1.544   8.614  19.760  0.00  0.00    +0.000 A 
ATOM      9  N   UNL     1       1.916   7.549  20.519  0.00  0.00    +0.000 NA
ATOM     10  C   UNL     1       2.495   6.449  19.969  0.00  0.00    +0.000 A 
ATOM     11  C   UNL     1       2.745   6.387  18.597  0.00  0.00    +0.000 A 
ATOM     12  C   UNL     1       2.346   7.495  17.823  0.00  0.00    +0.000 A 
ATOM     13  N   UNL     1       1.763   8.568  18.419  0.00  0.00    +0.000 NA
ATOM     14  C   UNL     1       0.536  10.921  19.565  0.00  0.00    +0.000 C 
ATOM     15  C   UNL     1      -0.893  11.301  19.989  0.00  0.00    +0.000 C 
ATOM     16  C   UNL     1      -2.449  11.964  21.882  0.00  0.00    +0.000 C 
ENDROOT
BRANCH  11  17
ATOM     17  C   UNL     1       3.435   5.189  18.026  0.00  0.00    +0.000 C 
ATOM     18  O   UNL     1       2.771   4.368  17.410  0.00  0.00    +0.000 OA
ATOM     19  N   UNL     1       4.771   4.963  18.173  0.00  0.00    +0.000 N 
ATOM     20  H   UNL     1       5.379   5.619  18.678  0.00  0.00    +0.000 HD
BRANCH  19  21
ATOM     21  O   UNL     1       5.326   3.835  17.694  0.00  0.00    +0.000 OA
ATOM     22  H   UNL     1       5.643   4.055  16.779  0.00  0.00    +0.000 HD
ENDBRANCH  19  21
ENDBRANCH  11  17
BRANCH   1  23
ATOM     23  C   UNL     1      -3.538  14.194  21.407  0.00  0.00    +0.000 C 
BRANCH  23  27
ATOM     24  C   UNL     1      -7.308  11.586  19.282  0.00  0.00    +0.000 C 
ATOM     25  N   UNL     1      -6.488  12.274  20.271  0.00  0.00    +0.000 N 
ATOM     26  C   UNL     1      -5.305  12.893  20.051  0.00  0.00    +0.000 A 
ATOM     27  C   UNL     1      -4.819  13.420  21.243  0.00  0.00    +0.000 A 
ATOM     28  C   UNL     1      -5.749  13.077  22.220  0.00  0.00    +0.000 A 
ATOM     29  C   UNL     1      -5.794  13.299  23.601  0.00  0.00    +0.000 A 
ATOM     30  C   UNL     1      -6.915  12.804  24.299  0.00  0.00    +0.000 A 
ATOM     31  N   UNL     1      -7.915  12.146  23.632  0.00  0.00    +0.000 NA
ATOM     32  C   UNL     1      -7.863  11.929  22.287  0.00  0.00    +0.000 A 
ATOM     33  C   UNL     1      -6.754  12.399  21.584  0.00  0.00    +0.000 A 
ENDBRANCH  23  27
ENDBRANCH   1  23
TORSDOF 4
ENDMDL
MODEL 6
REMARK VINA RESULT:      -7.4      2.745      4.125
REMARK  Name = 
REMARK  5 active torsions:
REMARK  status: ('A' for Active; 'I' for Inactive)
REMARK    1  A    between atoms: C_1  and  N_2
REMARK    2  A    between atoms: C_4  and  C_5
REMARK    3  A    between atoms: C_5  and  N_6
REMARK    4  A    between atoms: C_16  and  C_17
REMARK    5  A    between atoms: N_19  and  O_20
REMARK                            x       y       z     vdW  Elec       q    Type
REMARK                         _______ _______ _______ _____ _____    ______ ____
ROOT
ATOM      1  N   UNL     1      -0.468  12.674  20.040  0.00  0.00    +0.000 NA
ATOM      2  C   UNL     1       0.957  12.646  20.398  0.00  0.00    +0.000 C 
ATOM      3  C   UNL     1       1.204  11.277  20.981  0.00  0.00    +0.000 C 
ATOM      4  C   UNL     1       0.297  10.338  20.166  0.00  0.00    +0.000 C 
ATOM      5  C   UNL     1      -0.097   9.102  21.030  0.00  0.00    +0.000 C 
ATOM      6  C   UNL     1       1.133   8.215  21.299  0.00  0.00    +0.000 C 
ATOM      7  N   UNL     1       1.728   7.806  20.030  0.00  0.00    +0.000 N 
ATOM      8  C   UNL     1       1.959   6.423  19.717  0.00  0.00    +0.000 A 
ATOM      9  N   UNL     1       1.530   5.441  20.554  0.00  0.00    +0.000 NA
ATOM     10  C   UNL     1       1.806   4.132  20.317  0.00  0.00    +0.000 A 
ATOM     11  C   UNL     1       2.563   3.754  19.206  0.00  0.00    +0.000 A 
ATOM     12  C   UNL     1       2.992   4.782  18.344  0.00  0.00    +0.000 A 
ATOM     13  N   UNL     1       2.683   6.076  18.620  0.00  0.00    +0.000 NA
ATOM     14  C   UNL     1       2.113   8.868  19.106  0.00  0.00    +0.000 C 
ATOM     15  C   UNL     1       0.912   9.793  18.840  0.00  0.00    +0.000 C 
ATOM     16  C   UNL     1      -0.898  11.270  19.830  0.00  0.00    +0.000 C 
ENDROOT
BRANCH  11  17
ATOM     17  C   UNL     1       2.901   2.312  18.999  0.00  0.00    +0.000 C 
ATOM     18  O   UNL     1       2.049   1.469  19.243  0.00  0.00    +0.000 OA
ATOM     19  N   UNL     1       4.123   1.891  18.565  0.00  0.00    +0.000 N 
ATOM     20  H   UNL     1       4.875   2.553  18.343  0.00  0.00    +0.000 HD
BRANCH  19  21
ATOM     21  O   UNL     1       4.392   0.578  18.460  0.00  0.00    +0.000 OA
ATOM     22  H   UNL     1       4.011   0.156  19.275  0.00  0.00    +0.000 HD
ENDBRANCH  19  21
ENDBRANCH  11  17
BRANCH   1  23
ATOM     23  C   UNL     1      -0.722  13.626  18.931  0.00  0.00    +0.000 C 
BRANCH  23  27
ATOM     24  C   UNL     1      -1.401  18.222  20.916  0.00  0.00    +0.000 C 
ATOM     25  N   UNL     1      -0.806  17.096  20.208  0.00  0.00    +0.000 N 
ATOM     26  C   UNL     1      -1.347  15.866  20.046  0.00  0.00    +0.000 A 
ATOM     27  C   UNL     1      -0.474  15.057  19.327  0.00  0.00    +0.000 A 
ATOM     28  C   UNL     1       0.647  15.840  19.068  0.00  0.00    +0.000 A 
ATOM     29  C   UNL     1       1.857  15.572  18.416  0.00  0.00    +0.000 A 
ATOM     30  C   UNL     1       2.791  16.625  18.331  0.00  0.00    +0.000 A 
ATOM     31  N   UNL     1       2.503  17.856  18.859  0.00  0.00    +0.000 NA
ATOM     32  C   UNL     1       1.325  18.109  19.497  0.00  0.00    +0.000 A 
ATOM     33  C   UNL     1       0.396  17.075  19.603  0.00  0.00    +0.000 A 
ENDBRANCH  23  27
ENDBRANCH   1  23
TORSDOF 4
ENDMDL
MODEL 7
REMARK VINA RESULT:      -7.3      1.281      2.411
REMARK  Name = 
REMARK  5 active torsions:
REMARK  status: ('A' for Active; 'I' for Inactive)
REMARK    1  A    between atoms: C_1  and  N_2
REMARK    2  A    between atoms: C_4  and  C_5
REMARK    3  A    between atoms: C_5  and  N_6
REMARK    4  A    between atoms: C_16  and  C_17
REMARK    5  A    between atoms: N_19  and  O_20
REMARK                            x       y       z     vdW  Elec       q    Type
REMARK                         _______ _______ _______ _____ _____    ______ ____
ROOT
ATOM      1  N   UNL     1      -1.211  12.027  19.877  0.00  0.00    +0.000 NA
ATOM      2  C   UNL     1       0.199  12.327  19.591  0.00  0.00    +0.000 C 
ATOM      3  C   UNL     1       0.991  11.216  20.235  0.00  0.00    +0.000 C 
ATOM      4  C   UNL     1       0.117   9.963  20.057  0.00  0.00    +0.000 C 
ATOM      5  C   UNL     1       0.411   8.946  21.201  0.00  0.00    +0.000 C 
ATOM      6  C   UNL     1       1.835   8.374  21.064  0.00  0.00    +0.000 C 
ATOM      7  N   UNL     1       1.987   7.753  19.753  0.00  0.00    +0.000 N 
ATOM      8  C   UNL     1       2.429   6.393  19.609  0.00  0.00    +0.000 A 
ATOM      9  N   UNL     1       2.617   5.606  20.702  0.00  0.00    +0.000 NA
ATOM     10  C   UNL     1       3.109   4.344  20.595  0.00  0.00    +0.000 A 
ATOM     11  C   UNL     1       3.458   3.819  19.348  0.00  0.00    +0.000 A 
ATOM     12  C   UNL     1       3.248   4.644  18.225  0.00  0.00    +0.000 A 
ATOM     13  N   UNL     1       2.746   5.897  18.384  0.00  0.00    +0.000 NA
ATOM     14  C   UNL     1       1.707   8.586  18.587  0.00  0.00    +0.000 C 
ATOM     15  C   UNL     1       0.301   9.200  18.709  0.00  0.00    +0.000 C 
ATOM     16  C   UNL     1      -1.313  10.567  20.112  0.00  0.00    +0.000 C 
ENDROOT
BRANCH  11  17
ATOM     17  C   UNL     1       4.050   2.449  19.264  0.00  0.00    +0.000 C 
ATOM     18  O   UNL     1       4.826   2.090  20.139  0.00  0.00    +0.000 OA
ATOM     19  N   UNL     1       3.777   1.584  18.246  0.00  0.00    +0.000 N 
ATOM     20  H   UNL     1       3.132   1.829  17.486  0.00  0.00    +0.000 HD
BRANCH  19  21
ATOM     21  O   UNL     1       4.390   0.388  18.187  0.00  0.00    +0.000 OA
ATOM     22  H   UNL     1       4.505   0.095  19.129  0.00  0.00    +0.000 HD
ENDBRANCH  19  21
ENDBRANCH  11  17
BRANCH   1  23
ATOM     23  C   UNL     1      -2.102  12.603  18.840  0.00  0.00    +0.000 C 
BRANCH  23  27
ATOM     24  C   UNL     1      -6.922  11.267  18.129  0.00  0.00    +0.000 C 
ATOM     25  N   UNL     1      -5.697  11.739  18.761  0.00  0.00    +0.000 N 
ATOM     26  C   UNL     1      -4.480  11.856  18.179  0.00  0.00    +0.000 A 
ATOM     27  C   UNL     1      -3.557  12.327  19.108  0.00  0.00    +0.000 A 
ATOM     28  C   UNL     1      -4.256  12.476  20.302  0.00  0.00    +0.000 A 
ATOM     29  C   UNL     1      -3.865  12.881  21.582  0.00  0.00    +0.000 A 
ATOM     30  C   UNL     1      -4.860  12.921  22.581  0.00  0.00    +0.000 A 
ATOM     31  N   UNL     1      -6.155  12.584  22.286  0.00  0.00    +0.000 NA
ATOM     32  C   UNL     1      -6.530  12.185  21.037  0.00  0.00    +0.000 A 
ATOM     33  C   UNL     1      -5.555  12.126  20.042  0.00  0.00    +0.000 A 
ENDBRANCH  23  27
ENDBRANCH   1  23
TORSDOF 4
ENDMDL
MODEL 8
REMARK VINA RESULT:      -7.3      1.743      2.893
REMARK  Name = 
REMARK  5 active torsions:
REMARK  status: ('A' for Active; 'I' for Inactive)
REMARK    1  A    between atoms: C_1  and  N_2
REMARK    2  A    between atoms: C_4  and  C_5
REMARK    3  A    between atoms: C_5  and  N_6
REMARK    4  A    between atoms: C_16  and  C_17
REMARK    5  A    between atoms: N_19  and  O_20
REMARK                            x       y       z     vdW  Elec       q    Type
REMARK                         _______ _______ _______ _____ _____    ______ ____
ROOT
ATOM      1  N   UNL     1      -1.882  12.364  21.262  0.00  0.00    +0.000 NA
ATOM      2  C   UNL     1      -0.487  12.825  21.295  0.00  0.00    +0.000 C 
ATOM      3  C   UNL     1       0.345  11.591  21.541  0.00  0.00    +0.000 C 
ATOM      4  C   UNL     1      -0.384  10.472  20.777  0.00  0.00    +0.000 C 
ATOM      5  C   UNL     1      -0.101   9.097  21.454  0.00  0.00    +0.000 C 
ATOM      6  C   UNL     1       1.378   8.702  21.281  0.00  0.00    +0.000 C 
ATOM      7  N   UNL     1       1.711   8.670  19.860  0.00  0.00    +0.000 N 
ATOM      8  C   UNL     1       2.293   7.508  19.248  0.00  0.00    +0.000 A 
ATOM      9  N   UNL     1       2.453   6.358  19.956  0.00  0.00    +0.000 NA
ATOM     10  C   UNL     1       3.072   5.273  19.422  0.00  0.00    +0.000 A 
ATOM     11  C   UNL     1       3.585   5.313  18.123  0.00  0.00    +0.000 A 
ATOM     12  C   UNL     1       3.402   6.509  17.400  0.00  0.00    +0.000 A 
ATOM     13  N   UNL     1       2.769   7.564  17.976  0.00  0.00    +0.000 NA
ATOM     14  C   UNL     1       1.462   9.887  19.093  0.00  0.00    +0.000 C 
ATOM     15  C   UNL     1      -0.002  10.328  19.271  0.00  0.00    +0.000 C 
ATOM     16  C   UNL     1      -1.864  10.929  20.887  0.00  0.00    +0.000 C 
ENDROOT
BRANCH  11  17
ATOM     17  C   UNL     1       4.312   4.124  17.579  0.00  0.00    +0.000 C 
ATOM     18  O   UNL     1       4.122   3.033  18.098  0.00  0.00    +0.000 OA
ATOM     19  N   UNL     1       5.190   4.204  16.540  0.00  0.00    +0.000 N 
ATOM     20  H   UNL     1       5.386   5.092  16.064  0.00  0.00    +0.000 HD
BRANCH  19  21
ATOM     21  O   UNL     1       5.864   3.113  16.135  0.00  0.00    +0.000 OA
ATOM     22  H   UNL     1       5.310   2.335  16.406  0.00  0.00    +0.000 HD
ENDBRANCH  19  21
ENDBRANCH  11  17
BRANCH   1  23
ATOM     23  C   UNL     1      -2.723  13.263  20.435  0.00  0.00    +0.000 C 
BRANCH  23  27
ATOM     24  C   UNL     1      -6.858  11.263  18.329  0.00  0.00    +0.000 C 
ATOM     25  N   UNL     1      -5.955  11.868  19.300  0.00  0.00    +0.000 N 
ATOM     26  C   UNL     1      -4.662  12.213  19.097  0.00  0.00    +0.000 A 
ATOM     27  C   UNL     1      -4.127  12.748  20.264  0.00  0.00    +0.000 A 
ATOM     28  C   UNL     1      -5.147  12.698  21.210  0.00  0.00    +0.000 A 
ATOM     29  C   UNL     1      -5.201  13.061  22.561  0.00  0.00    +0.000 A 
ATOM     30  C   UNL     1      -6.428  12.872  23.231  0.00  0.00    +0.000 A 
ATOM     31  N   UNL     1      -7.513  12.365  22.567  0.00  0.00    +0.000 NA
ATOM     32  C   UNL     1      -7.452  12.009  21.253  0.00  0.00    +0.000 A 
ATOM     33  C   UNL     1      -6.243  12.174  20.578  0.00  0.00    +0.000 A 
ENDBRANCH  23  27
ENDBRANCH   1  23
TORSDOF 4
ENDMDL
MODEL 9
REMARK VINA RESULT:      -7.3      2.963      4.454
REMARK  Name = 
REMARK  5 active torsions:
REMARK  status: ('A' for Active; 'I' for Inactive)
REMARK    1  A    between atoms: C_1  and  N_2
REMARK    2  A    between atoms: C_4  and  C_5
REMARK    3  A    between atoms: C_5  and  N_6
REMARK    4  A    between atoms: C_16  and  C_17
REMARK    5  A    between atoms: N_19  and  O_20
REMARK                            x       y       z     vdW  Elec       q    Type
REMARK                         _______ _______ _______ _____ _____    ______ ____
ROOT
ATOM      1  N   UNL     1      -0.890  13.078  21.550  0.00  0.00    +0.000 NA
ATOM      2  C   UNL     1      -1.835  12.036  21.124  0.00  0.00    +0.000 C 
ATOM      3  C   UNL     1      -1.152  11.302  19.997  0.00  0.00    +0.000 C 
ATOM      4  C   UNL     1       0.336  11.287  20.388  0.00  0.00    +0.000 C 
ATOM      5  C   UNL     1       1.219  11.219  19.105  0.00  0.00    +0.000 C 
ATOM      6  C   UNL     1       1.052   9.857  18.405  0.00  0.00    +0.000 C 
ATOM      7  N   UNL     1       1.387   8.785  19.337  0.00  0.00    +0.000 N 
ATOM      8  C   UNL     1       2.366   7.784  19.013  0.00  0.00    +0.000 A 
ATOM      9  N   UNL     1       3.091   7.867  17.865  0.00  0.00    +0.000 NA
ATOM     10  C   UNL     1       3.964   6.892  17.502  0.00  0.00    +0.000 A 
ATOM     11  C   UNL     1       4.131   5.754  18.294  0.00  0.00    +0.000 A 
ATOM     12  C   UNL     1       3.380   5.687  19.484  0.00  0.00    +0.000 A 
ATOM     13  N   UNL     1       2.525   6.693  19.808  0.00  0.00    +0.000 NA
ATOM     14  C   UNL     1       0.657   8.751  20.601  0.00  0.00    +0.000 C 
ATOM     15  C   UNL     1       0.777  10.110  21.311  0.00  0.00    +0.000 C 
ATOM     16  C   UNL     1       0.469  12.625  21.166  0.00  0.00    +0.000 C 
ENDROOT
BRANCH  11  17
ATOM     17  C   UNL     1       5.056   4.669  17.842  0.00  0.00    +0.000 C 
ATOM     18  O   UNL     1       5.816   4.168  18.659  0.00  0.00    +0.000 OA
ATOM     19  N   UNL     1       5.103   4.223  16.555  0.00  0.00    +0.000 N 
ATOM     20  H   UNL     1       4.487   4.605  15.827  0.00  0.00    +0.000 HD
BRANCH  19  21
ATOM     21  O   UNL     1       6.001   3.291  16.191  0.00  0.00    +0.000 OA
ATOM     22  H   UNL     1       5.619   2.842  15.392  0.00  0.00    +0.000 HD
ENDBRANCH  19  21
ENDBRANCH  11  17
BRANCH   1  23
ATOM     23  C   UNL     1      -1.099  13.441  22.973  0.00  0.00    +0.000 C 
BRANCH  23  27
ATOM     24  C   UNL     1      -3.328  17.960  23.334  0.00  0.00    +0.000 C 
ATOM     25  N   UNL     1      -3.121  16.518  23.321  0.00  0.00    +0.000 N 
ATOM     26  C   UNL     1      -1.952  15.871  23.100  0.00  0.00    +0.000 A 
ATOM     27  C   UNL     1      -2.157  14.496  23.153  0.00  0.00    +0.000 A 
ATOM     28  C   UNL     1      -3.515  14.320  23.397  0.00  0.00    +0.000 A 
ATOM     29  C   UNL     1      -4.313  13.177  23.523  0.00  0.00    +0.000 A 
ATOM     30  C   UNL     1      -5.686  13.372  23.779  0.00  0.00    +0.000 A 
ATOM     31  N   UNL     1      -6.197  14.637  23.907  0.00  0.00    +0.000 NA
ATOM     32  C   UNL     1      -5.416  15.747  23.778  0.00  0.00    +0.000 A 
ATOM     33  C   UNL     1      -4.059  15.572  23.511  0.00  0.00    +0.000 A 
ENDBRANCH  23  27
ENDBRANCH   1  23
TORSDOF 4
ENDMDL
