MODEL 1
REMARK VINA RESULT:      -8.9      0.000      0.000
REMARK  Name = 
REMARK  7 active torsions:
REMARK  status: ('A' for Active; 'I' for Inactive)
REMARK    1  A    between atoms: C_1  and  O_2
REMARK    2  A    between atoms: O_2  and  C_3
REMARK    3  A    between atoms: C_6  and  C_7
REMARK    4  A    between atoms: C_15  and  N_16
REMARK    5  A    between atoms: N_16  and  C_17
REMARK    6  A    between atoms: C_27  and  O_28
REMARK    7  A    between atoms: O_28  and  C_29
REMARK                            x       y       z     vdW  Elec       q    Type
REMARK                         _______ _______ _______ _____ _____    ______ ____
ROOT
ATOM      1  C   UNL     1       4.421   4.077  18.441  0.00  0.00    +0.000 A 
ATOM      2  N   UNL     1       4.736   3.147  19.418  0.00  0.00    +0.000 NA
ATOM      3  C   UNL     1       3.645   3.054  20.146  0.00  0.00    +0.000 A 
ATOM      4  C   UNL     1       3.387   2.213  21.280  0.00  0.00    +0.000 A 
ATOM      5  N   UNL     1       2.249   2.240  21.923  0.00  0.00    +0.000 NA
ATOM      6  C   UNL     1       1.285   3.118  21.466  0.00  0.00    +0.000 A 
ATOM      7  C   UNL     1       1.451   3.945  20.419  0.00  0.00    +0.000 A 
ATOM      8  N   UNL     1       2.650   3.895  19.724  0.00  0.00    +0.000 N 
ATOM      9  C   UNL     1       3.123   4.558  18.607  0.00  0.00    +0.000 A 
ENDROOT
BRANCH   1  13
ATOM     10  C   UNL     1       7.009   5.154  15.200  0.00  0.00    +0.000 A 
ATOM     11  C   UNL     1       6.217   3.996  15.144  0.00  0.00    +0.000 A 
ATOM     12  C   UNL     1       5.388   3.640  16.213  0.00  0.00    +0.000 A 
ATOM     13  C   UNL     1       5.357   4.414  17.376  0.00  0.00    +0.000 A 
ATOM     14  C   UNL     1       6.194   5.534  17.448  0.00  0.00    +0.000 A 
ATOM     15  C   UNL     1       7.037   5.903  16.386  0.00  0.00    +0.000 A 
BRANCH  10  17
ATOM     16  C   UNL     1       7.488   4.868  12.902  0.00  0.00    +0.000 C 
ATOM     17  O   UNL     1       7.760   5.551  14.126  0.00  0.00    +0.000 OA
ENDBRANCH  10  17
BRANCH  15  18
ATOM     18  O   UNL     1       7.774   7.018  16.687  0.00  0.00    +0.000 OA
ATOM     19  C   UNL     1       7.794   7.498  18.021  0.00  0.00    +0.000 C 
ENDBRANCH  15  18
ENDBRANCH   1  13
BRANCH   9  20
ATOM     20  N   UNL     1       2.378   5.503  17.964  0.00  0.00    +0.000 N 
ATOM     21  H   UNL     1       1.513   5.174  17.528  0.00  0.00    +0.000 HD
BRANCH  20  22
ATOM     22  C   UNL     1       2.149   6.813  18.475  0.00  0.00    +0.000 A 
ATOM     23  C   UNL     1       2.100   7.885  17.547  0.00  0.00    +0.000 A 
ATOM     24  C   UNL     1       1.827   9.195  17.956  0.00  0.00    +0.000 A 
ATOM     25  C   UNL     1       1.588   9.401  19.295  0.00  0.00    +0.000 A 
ATOM     26  C   UNL     1       1.689   8.382  20.212  0.00  0.00    +0.000 A 
ATOM     27  C   UNL     1       1.996   7.090  19.843  0.00  0.00    +0.000 A 
ATOM     28  O   UNL     1       1.373   8.792  21.472  0.00  0.00    +0.000 OA
ATOM     29  C   UNL     1       0.756  10.056  21.156  0.00  0.00    +0.000 C 
ATOM     30  O   UNL     1       1.173  10.563  19.870  0.00  0.00    +0.000 OA
ENDBRANCH  20  22
ENDBRANCH   9  20
TORSDOF 5
ENDMDL
MODEL 2
REMARK VINA RESULT:      -8.7      1.321      1.354
REMARK  Name = 
REMARK  7 active torsions:
REMARK  status: ('A' for Active; 'I' for Inactive)
REMARK    1  A    between atoms: C_1  and  O_2
REMARK    2  A    between atoms: O_2  and  C_3
REMARK    3  A    between atoms: C_6  and  C_7
REMARK    4  A    between atoms: C_15  and  N_16
REMARK    5  A    between atoms: N_16  and  C_17
REMARK    6  A    between atoms: C_27  and  O_28
REMARK    7  A    between atoms: O_28  and  C_29
REMARK                            x       y       z     vdW  Elec       q    Type
REMARK                         _______ _______ _______ _____ _____    ______ ____
ROOT
ATOM      1  C   UNL     1       3.948   4.040  17.576  0.00  0.00    +0.000 A 
ATOM      2  N   UNL     1       3.264   2.846  17.421  0.00  0.00    +0.000 NA
ATOM      3  C   UNL     1       2.291   2.909  18.303  0.00  0.00    +0.000 A 
ATOM      4  C   UNL     1       1.248   1.958  18.563  0.00  0.00    +0.000 A 
ATOM      5  N   UNL     1       0.348   2.148  19.492  0.00  0.00    +0.000 NA
ATOM      6  C   UNL     1       0.434   3.317  20.226  0.00  0.00    +0.000 A 
ATOM      7  C   UNL     1       1.383   4.251  20.050  0.00  0.00    +0.000 A 
ATOM      8  N   UNL     1       2.321   4.058  19.047  0.00  0.00    +0.000 N 
ATOM      9  C   UNL     1       3.378   4.817  18.582  0.00  0.00    +0.000 A 
ENDROOT
BRANCH   1  13
ATOM     10  C   UNL     1       7.117   5.182  14.927  0.00  0.00    +0.000 A 
ATOM     11  C   UNL     1       6.298   4.077  14.646  0.00  0.00    +0.000 A 
ATOM     12  C   UNL     1       5.277   3.698  15.524  0.00  0.00    +0.000 A 
ATOM     13  C   UNL     1       5.073   4.393  16.718  0.00  0.00    +0.000 A 
ATOM     14  C   UNL     1       5.932   5.457  17.020  0.00  0.00    +0.000 A 
ATOM     15  C   UNL     1       6.967   5.847  16.153  0.00  0.00    +0.000 A 
BRANCH  10  17
ATOM     16  C   UNL     1       7.825   5.252  12.671  0.00  0.00    +0.000 C 
ATOM     17  O   UNL     1       8.064   5.606  14.033  0.00  0.00    +0.000 OA
ENDBRANCH  10  17
BRANCH  15  18
ATOM     18  O   UNL     1       7.687   6.896  16.660  0.00  0.00    +0.000 OA
ATOM     19  C   UNL     1       7.734   7.091  18.064  0.00  0.00    +0.000 C 
ENDBRANCH  15  18
ENDBRANCH   1  13
BRANCH   9  20
ATOM     20  N   UNL     1       3.703   6.016  19.147  0.00  0.00    +0.000 N 
ATOM     21  H   UNL     1       4.680   6.306  19.055  0.00  0.00    +0.000 HD
BRANCH  20  22
ATOM     22  C   UNL     1       2.884   7.178  19.064  0.00  0.00    +0.000 A 
ATOM     23  C   UNL     1       2.883   7.901  17.842  0.00  0.00    +0.000 A 
ATOM     24  C   UNL     1       2.068   9.023  17.656  0.00  0.00    +0.000 A 
ATOM     25  C   UNL     1       1.250   9.388  18.701  0.00  0.00    +0.000 A 
ATOM     26  C   UNL     1       1.283   8.733  19.908  0.00  0.00    +0.000 A 
ATOM     27  C   UNL     1       2.106   7.649  20.133  0.00  0.00    +0.000 A 
ATOM     28  O   UNL     1       0.367   9.228  20.787  0.00  0.00    +0.000 OA
ATOM     29  C   UNL     1      -0.431  10.007  19.874  0.00  0.00    +0.000 C 
ATOM     30  O   UNL     1       0.292  10.355  18.674  0.00  0.00    +0.000 OA
ENDBRANCH  20  22
ENDBRANCH   9  20
TORSDOF 5
ENDMDL
MODEL 3
REMARK VINA RESULT:      -8.7      2.755      5.356
REMARK  Name = 
REMARK  7 active torsions:
REMARK  status: ('A' for Active; 'I' for Inactive)
REMARK    1  A    between atoms: C_1  and  O_2
REMARK    2  A    between atoms: O_2  and  C_3
REMARK    3  A    between atoms: C_6  and  C_7
REMARK    4  A    between atoms: C_15  and  N_16
REMARK    5  A    between atoms: N_16  and  C_17
REMARK    6  A    between atoms: C_27  and  O_28
REMARK    7  A    between atoms: O_28  and  C_29
REMARK                            x       y       z     vdW  Elec       q    Type
REMARK                         _______ _______ _______ _____ _____    ______ ____
ROOT
ATOM      1  C   UNL     1       2.752   7.636  18.389  0.00  0.00    +0.000 A 
ATOM      2  N   UNL     1       2.274   8.780  17.770  0.00  0.00    +0.000 NA
ATOM      3  C   UNL     1       1.473   9.324  18.660  0.00  0.00    +0.000 A 
ATOM      4  C   UNL     1       0.727  10.546  18.572  0.00  0.00    +0.000 A 
ATOM      5  N   UNL     1      -0.050  10.960  19.539  0.00  0.00    +0.000 NA
ATOM      6  C   UNL     1      -0.128  10.168  20.669  0.00  0.00    +0.000 A 
ATOM      7  C   UNL     1       0.531   9.007  20.826  0.00  0.00    +0.000 A 
ATOM      8  N   UNL     1       1.373   8.585  19.808  0.00  0.00    +0.000 N 
ATOM      9  C   UNL     1       2.208   7.492  19.664  0.00  0.00    +0.000 A 
ENDROOT
BRANCH   1  13
ATOM     10  C   UNL     1       5.562   5.151  16.318  0.00  0.00    +0.000 A 
ATOM     11  C   UNL     1       4.285   4.678  16.658  0.00  0.00    +0.000 A 
ATOM     12  C   UNL     1       3.378   5.487  17.350  0.00  0.00    +0.000 A 
ATOM     13  C   UNL     1       3.739   6.776  17.749  0.00  0.00    +0.000 A 
ATOM     14  C   UNL     1       5.035   7.220  17.459  0.00  0.00    +0.000 A 
ATOM     15  C   UNL     1       5.960   6.418  16.770  0.00  0.00    +0.000 A 
BRANCH  10  17
ATOM     16  C   UNL     1       6.065   4.231  14.198  0.00  0.00    +0.000 C 
ATOM     17  O   UNL     1       6.423   4.393  15.570  0.00  0.00    +0.000 OA
ENDBRANCH  10  17
BRANCH  15  18
ATOM     18  O   UNL     1       7.165   7.052  16.615  0.00  0.00    +0.000 OA
ATOM     19  C   UNL     1       7.749   7.715  17.724  0.00  0.00    +0.000 C 
ENDBRANCH  15  18
ENDBRANCH   1  13
BRANCH   9  20
ATOM     20  N   UNL     1       2.307   6.533  20.629  0.00  0.00    +0.000 N 
ATOM     21  H   UNL     1       1.771   6.698  21.485  0.00  0.00    +0.000 HD
BRANCH  20  22
ATOM     22  C   UNL     1       2.296   5.135  20.360  0.00  0.00    +0.000 A 
ATOM     23  C   UNL     1       1.037   4.507  20.175  0.00  0.00    +0.000 A 
ATOM     24  C   UNL     1       0.936   3.149  19.854  0.00  0.00    +0.000 A 
ATOM     25  C   UNL     1       2.111   2.447  19.706  0.00  0.00    +0.000 A 
ATOM     26  C   UNL     1       3.335   3.028  19.939  0.00  0.00    +0.000 A 
ATOM     27  C   UNL     1       3.461   4.354  20.296  0.00  0.00    +0.000 A 
ATOM     28  O   UNL     1       4.365   2.171  19.696  0.00  0.00    +0.000 OA
ATOM     29  C   UNL     1       3.648   1.146  18.979  0.00  0.00    +0.000 C 
ATOM     30  O   UNL     1       2.233   1.165  19.266  0.00  0.00    +0.000 OA
ENDBRANCH  20  22
ENDBRANCH   9  20
TORSDOF 5
ENDMDL
MODEL 4
REMARK VINA RESULT:      -8.3      1.569      6.893
REMARK  Name = 
REMARK  7 active torsions:
REMARK  status: ('A' for Active; 'I' for Inactive)
REMARK    1  A    between atoms: C_1  and  O_2
REMARK    2  A    between atoms: O_2  and  C_3
REMARK    3  A    between atoms: C_6  and  C_7
REMARK    4  A    between atoms: C_15  and  N_16
REMARK    5  A    between atoms: N_16  and  C_17
REMARK    6  A    between atoms: C_27  and  O_28
REMARK    7  A    between atoms: O_28  and  C_29
REMARK                            x       y       z     vdW  Elec       q    Type
REMARK                         _______ _______ _______ _____ _____    ______ ____
ROOT
ATOM      1  C   UNL     1       2.034   6.132  19.817  0.00  0.00    +0.000 A 
ATOM      2  N   UNL     1       1.020   5.188  19.806  0.00  0.00    +0.000 NA
ATOM      3  C   UNL     1       1.645   4.037  19.692  0.00  0.00    +0.000 A 
ATOM      4  C   UNL     1       1.094   2.712  19.661  0.00  0.00    +0.000 A 
ATOM      5  N   UNL     1       1.843   1.649  19.524  0.00  0.00    +0.000 NA
ATOM      6  C   UNL     1       3.206   1.847  19.411  0.00  0.00    +0.000 A 
ATOM      7  C   UNL     1       3.798   3.053  19.421  0.00  0.00    +0.000 A 
ATOM      8  N   UNL     1       3.003   4.176  19.591  0.00  0.00    +0.000 N 
ATOM      9  C   UNL     1       3.282   5.526  19.688  0.00  0.00    +0.000 A 
ENDROOT
BRANCH   1  13
ATOM     10  C   UNL     1       1.016  10.267  20.294  0.00  0.00    +0.000 A 
ATOM     11  C   UNL     1       1.390   9.749  19.043  0.00  0.00    +0.000 A 
ATOM     12  C   UNL     1       1.739   8.403  18.897  0.00  0.00    +0.000 A 
ATOM     13  C   UNL     1       1.755   7.550  20.004  0.00  0.00    +0.000 A 
ATOM     14  C   UNL     1       1.440   8.087  21.258  0.00  0.00    +0.000 A 
ATOM     15  C   UNL     1       1.094   9.439  21.423  0.00  0.00    +0.000 A 
BRANCH  10  17
ATOM     16  C   UNL     1       0.533  12.315  19.214  0.00  0.00    +0.000 C 
ATOM     17  O   UNL     1       0.597  11.564  20.426  0.00  0.00    +0.000 OA
ENDBRANCH  10  17
BRANCH  15  18
ATOM     18  O   UNL     1       0.843   9.742  22.735  0.00  0.00    +0.000 OA
ATOM     19  C   UNL     1      -0.500   9.809  23.188  0.00  0.00    +0.000 C 
ENDBRANCH  15  18
ENDBRANCH   1  13
BRANCH   9  20
ATOM     20  N   UNL     1       4.556   6.005  19.587  0.00  0.00    +0.000 N 
ATOM     21  H   UNL     1       5.123   5.957  20.437  0.00  0.00    +0.000 HD
BRANCH  20  22
ATOM     22  C   UNL     1       5.407   5.762  18.470  0.00  0.00    +0.000 A 
ATOM     23  C   UNL     1       6.694   5.223  18.725  0.00  0.00    +0.000 A 
ATOM     24  C   UNL     1       7.574   4.904  17.684  0.00  0.00    +0.000 A 
ATOM     25  C   UNL     1       7.132   5.118  16.398  0.00  0.00    +0.000 A 
ATOM     26  C   UNL     1       5.911   5.693  16.139  0.00  0.00    +0.000 A 
ATOM     27  C   UNL     1       5.041   6.054  17.147  0.00  0.00    +0.000 A 
ATOM     28  O   UNL     1       5.655   5.775  14.804  0.00  0.00    +0.000 OA
ATOM     29  C   UNL     1       6.685   4.893  14.316  0.00  0.00    +0.000 C 
ATOM     30  O   UNL     1       7.773   4.750  15.255  0.00  0.00    +0.000 OA
ENDBRANCH  20  22
ENDBRANCH   9  20
TORSDOF 5
ENDMDL
MODEL 5
REMARK VINA RESULT:      -8.1      1.376      6.808
REMARK  Name = 
REMARK  7 active torsions:
REMARK  status: ('A' for Active; 'I' for Inactive)
REMARK    1  A    between atoms: C_1  and  O_2
REMARK    2  A    between atoms: O_2  and  C_3
REMARK    3  A    between atoms: C_6  and  C_7
REMARK    4  A    between atoms: C_15  and  N_16
REMARK    5  A    between atoms: N_16  and  C_17
REMARK    6  A    between atoms: C_27  and  O_28
REMARK    7  A    between atoms: O_28  and  C_29
REMARK                            x       y       z     vdW  Elec       q    Type
REMARK                         _______ _______ _______ _____ _____    ______ ____
ROOT
ATOM      1  C   UNL     1       2.563   6.255  19.683  0.00  0.00    +0.000 A 
ATOM      2  N   UNL     1       1.833   5.339  20.421  0.00  0.00    +0.000 NA
ATOM      3  C   UNL     1       2.605   4.277  20.482  0.00  0.00    +0.000 A 
ATOM      4  C   UNL     1       2.371   3.029  21.152  0.00  0.00    +0.000 A 
ATOM      5  N   UNL     1       3.230   2.045  21.113  0.00  0.00    +0.000 NA
ATOM      6  C   UNL     1       4.393   2.250  20.394  0.00  0.00    +0.000 A 
ATOM      7  C   UNL     1       4.683   3.382  19.733  0.00  0.00    +0.000 A 
ATOM      8  N   UNL     1       3.781   4.433  19.798  0.00  0.00    +0.000 N 
ATOM      9  C   UNL     1       3.785   5.716  19.284  0.00  0.00    +0.000 A 
ENDROOT
BRANCH   1  13
ATOM     10  C   UNL     1       0.953  10.149  18.903  0.00  0.00    +0.000 A 
ATOM     11  C   UNL     1       1.593   9.412  17.895  0.00  0.00    +0.000 A 
ATOM     12  C   UNL     1       2.133   8.149  18.159  0.00  0.00    +0.000 A 
ATOM     13  C   UNL     1       2.076   7.608  19.447  0.00  0.00    +0.000 A 
ATOM     14  C   UNL     1       1.490   8.376  20.461  0.00  0.00    +0.000 A 
ATOM     15  C   UNL     1       0.948   9.648  20.213  0.00  0.00    +0.000 A 
BRANCH  10  17
ATOM     16  C   UNL     1      -1.048  11.287  18.358  0.00  0.00    +0.000 C 
ATOM     17  O   UNL     1       0.352  11.349  18.630  0.00  0.00    +0.000 OA
ENDBRANCH  10  17
BRANCH  15  18
ATOM     18  O   UNL     1       0.446  10.217  21.354  0.00  0.00    +0.000 OA
ATOM     19  C   UNL     1      -0.022   9.380  22.399  0.00  0.00    +0.000 C 
ENDBRANCH  15  18
ENDBRANCH   1  13
BRANCH   9  20
ATOM     20  N   UNL     1       4.812   6.177  18.512  0.00  0.00    +0.000 N 
ATOM     21  H   UNL     1       5.641   6.502  19.014  0.00  0.00    +0.000 HD
BRANCH  20  22
ATOM     22  C   UNL     1       5.239   5.550  17.307  0.00  0.00    +0.000 A 
ATOM     23  C   UNL     1       4.355   4.624  16.695  0.00  0.00    +0.000 A 
ATOM     24  C   UNL     1       4.671   4.002  15.481  0.00  0.00    +0.000 A 
ATOM     25  C   UNL     1       5.869   4.339  14.894  0.00  0.00    +0.000 A 
ATOM     26  C   UNL     1       6.759   5.190  15.503  0.00  0.00    +0.000 A 
ATOM     27  C   UNL     1       6.491   5.786  16.718  0.00  0.00    +0.000 A 
ATOM     28  O   UNL     1       7.859   5.420  14.734  0.00  0.00    +0.000 OA
ATOM     29  C   UNL     1       7.378   4.896  13.480  0.00  0.00    +0.000 C 
ATOM     30  O   UNL     1       6.296   3.956  13.659  0.00  0.00    +0.000 OA
ENDBRANCH  20  22
ENDBRANCH   9  20
TORSDOF 5
ENDMDL
MODEL 6
REMARK VINA RESULT:      -8.1      1.387      1.843
REMARK  Name = 
REMARK  7 active torsions:
REMARK  status: ('A' for Active; 'I' for Inactive)
REMARK    1  A    between atoms: C_1  and  O_2
REMARK    2  A    between atoms: O_2  and  C_3
REMARK    3  A    between atoms: C_6  and  C_7
REMARK    4  A    between atoms: C_15  and  N_16
REMARK    5  A    between atoms: N_16  and  C_17
REMARK    6  A    between atoms: C_27  and  O_28
REMARK    7  A    between atoms: O_28  and  C_29
REMARK                            x       y       z     vdW  Elec       q    Type
REMARK                         _______ _______ _______ _____ _____    ______ ____
ROOT
ATOM      1  C   UNL     1       3.951   3.986  17.518  0.00  0.00    +0.000 A 
ATOM      2  N   UNL     1       3.250   2.803  17.352  0.00  0.00    +0.000 NA
ATOM      3  C   UNL     1       2.290   2.862  18.248  0.00  0.00    +0.000 A 
ATOM      4  C   UNL     1       1.240   1.918  18.506  0.00  0.00    +0.000 A 
ATOM      5  N   UNL     1       0.355   2.101  19.451  0.00  0.00    +0.000 NA
ATOM      6  C   UNL     1       0.465   3.255  20.204  0.00  0.00    +0.000 A 
ATOM      7  C   UNL     1       1.423   4.181  20.033  0.00  0.00    +0.000 A 
ATOM      8  N   UNL     1       2.344   3.995  19.013  0.00  0.00    +0.000 N 
ATOM      9  C   UNL     1       3.404   4.751  18.547  0.00  0.00    +0.000 A 
ENDROOT
BRANCH   1  13
ATOM     10  C   UNL     1       7.097   5.146  14.850  0.00  0.00    +0.000 A 
ATOM     11  C   UNL     1       6.238   4.079  14.542  0.00  0.00    +0.000 A 
ATOM     12  C   UNL     1       5.225   3.693  15.425  0.00  0.00    +0.000 A 
ATOM     13  C   UNL     1       5.067   4.342  16.652  0.00  0.00    +0.000 A 
ATOM     14  C   UNL     1       5.965   5.366  16.979  0.00  0.00    +0.000 A 
ATOM     15  C   UNL     1       6.992   5.762  16.106  0.00  0.00    +0.000 A 
BRANCH  10  17
ATOM     16  C   UNL     1       7.822   5.184  12.599  0.00  0.00    +0.000 C 
ATOM     17  O   UNL     1       8.038   5.579  13.954  0.00  0.00    +0.000 OA
ENDBRANCH  10  17
BRANCH  15  18
ATOM     18  O   UNL     1       7.755   6.767  16.642  0.00  0.00    +0.000 OA
ATOM     19  C   UNL     1       7.462   7.240  17.946  0.00  0.00    +0.000 C 
ENDBRANCH  15  18
ENDBRANCH   1  13
BRANCH   9  20
ATOM     20  N   UNL     1       3.751   5.936  19.129  0.00  0.00    +0.000 N 
ATOM     21  H   UNL     1       4.708   6.256  18.961  0.00  0.00    +0.000 HD
BRANCH  20  22
ATOM     22  C   UNL     1       2.900   7.077  19.169  0.00  0.00    +0.000 A 
ATOM     23  C   UNL     1       2.112   7.273  20.333  0.00  0.00    +0.000 A 
ATOM     24  C   UNL     1       1.289   8.396  20.480  0.00  0.00    +0.000 A 
ATOM     25  C   UNL     1       1.288   9.314  19.455  0.00  0.00    +0.000 A 
ATOM     26  C   UNL     1       2.001   9.108  18.298  0.00  0.00    +0.000 A 
ATOM     27  C   UNL     1       2.789   7.992  18.111  0.00  0.00    +0.000 A 
ATOM     28  O   UNL     1       1.893  10.156  17.435  0.00  0.00    +0.000 OA
ATOM     29  C   UNL     1       1.328  11.135  18.329  0.00  0.00    +0.000 C 
ATOM     30  O   UNL     1       0.670  10.527  19.462  0.00  0.00    +0.000 OA
ENDBRANCH  20  22
ENDBRANCH   9  20
TORSDOF 5
ENDMDL
MODEL 7
REMARK VINA RESULT:      -8.0      0.601      1.330
REMARK  Name = 
REMARK  7 active torsions:
REMARK  status: ('A' for Active; 'I' for Inactive)
REMARK    1  A    between atoms: C_1  and  O_2
REMARK    2  A    between atoms: O_2  and  C_3
REMARK    3  A    between atoms: C_6  and  C_7
REMARK    4  A    between atoms: C_15  and  N_16
REMARK    5  A    between atoms: N_16  and  C_17
REMARK    6  A    between atoms: C_27  and  O_28
REMARK    7  A    between atoms: O_28  and  C_29
REMARK                            x       y       z     vdW  Elec       q    Type
REMARK                         _______ _______ _______ _____ _____    ______ ____
ROOT
ATOM      1  C   UNL     1       4.425   4.065  18.456  0.00  0.00    +0.000 A 
ATOM      2  N   UNL     1       4.756   3.171  19.462  0.00  0.00    +0.000 NA
ATOM      3  C   UNL     1       3.657   3.058  20.174  0.00  0.00    +0.000 A 
ATOM      4  C   UNL     1       3.410   2.237  21.326  0.00  0.00    +0.000 A 
ATOM      5  N   UNL     1       2.261   2.240  21.949  0.00  0.00    +0.000 NA
ATOM      6  C   UNL     1       1.274   3.071  21.453  0.00  0.00    +0.000 A 
ATOM      7  C   UNL     1       1.428   3.875  20.388  0.00  0.00    +0.000 A 
ATOM      8  N   UNL     1       2.640   3.851  19.715  0.00  0.00    +0.000 N 
ATOM      9  C   UNL     1       3.109   4.502  18.589  0.00  0.00    +0.000 A 
ENDROOT
BRANCH   1  13
ATOM     10  C   UNL     1       7.031   5.160  15.236  0.00  0.00    +0.000 A 
ATOM     11  C   UNL     1       6.244   3.999  15.171  0.00  0.00    +0.000 A 
ATOM     12  C   UNL     1       5.409   3.637  16.234  0.00  0.00    +0.000 A 
ATOM     13  C   UNL     1       5.367   4.407  17.398  0.00  0.00    +0.000 A 
ATOM     14  C   UNL     1       6.200   5.530  17.479  0.00  0.00    +0.000 A 
ATOM     15  C   UNL     1       7.049   5.905  16.424  0.00  0.00    +0.000 A 
BRANCH  10  17
ATOM     16  C   UNL     1       7.489   4.920  12.927  0.00  0.00    +0.000 C 
ATOM     17  O   UNL     1       7.788   5.561  14.167  0.00  0.00    +0.000 OA
ENDBRANCH  10  17
BRANCH  15  18
ATOM     18  O   UNL     1       7.780   7.022  16.732  0.00  0.00    +0.000 OA
ATOM     19  C   UNL     1       7.848   7.457  18.080  0.00  0.00    +0.000 C 
ENDBRANCH  15  18
ENDBRANCH   1  13
BRANCH   9  20
ATOM     20  N   UNL     1       2.342   5.404  17.909  0.00  0.00    +0.000 N 
ATOM     21  H   UNL     1       1.499   5.032  17.464  0.00  0.00    +0.000 HD
BRANCH  20  22
ATOM     22  C   UNL     1       2.052   6.714  18.385  0.00  0.00    +0.000 A 
ATOM     23  C   UNL     1       1.870   6.885  19.782  0.00  0.00    +0.000 A 
ATOM     24  C   UNL     1       1.635   8.147  20.341  0.00  0.00    +0.000 A 
ATOM     25  C   UNL     1       1.607   9.221  19.482  0.00  0.00    +0.000 A 
ATOM     26  C   UNL     1       1.725   9.063  18.121  0.00  0.00    +0.000 A 
ATOM     27  C   UNL     1       1.916   7.827  17.540  0.00  0.00    +0.000 A 
ATOM     28  O   UNL     1       1.711  10.255  17.462  0.00  0.00    +0.000 OA
ATOM     29  C   UNL     1       1.913  11.140  18.582  0.00  0.00    +0.000 C 
ATOM     30  O   UNL     1       1.531  10.534  19.835  0.00  0.00    +0.000 OA
ENDBRANCH  20  22
ENDBRANCH   9  20
TORSDOF 5
ENDMDL
MODEL 8
REMARK VINA RESULT:      -8.0      1.537      6.595
REMARK  Name = 
REMARK  7 active torsions:
REMARK  status: ('A' for Active; 'I' for Inactive)
REMARK    1  A    between atoms: C_1  and  O_2
REMARK    2  A    between atoms: O_2  and  C_3
REMARK    3  A    between atoms: C_6  and  C_7
REMARK    4  A    between atoms: C_15  and  N_16
REMARK    5  A    between atoms: N_16  and  C_17
REMARK    6  A    between atoms: C_27  and  O_28
REMARK    7  A    between atoms: O_28  and  C_29
REMARK                            x       y       z     vdW  Elec       q    Type
REMARK                         _______ _______ _______ _____ _____    ______ ____
ROOT
ATOM      1  C   UNL     1       2.117   6.267  20.081  0.00  0.00    +0.000 A 
ATOM      2  N   UNL     1       1.162   5.433  20.638  0.00  0.00    +0.000 NA
ATOM      3  C   UNL     1       1.781   4.283  20.790  0.00  0.00    +0.000 A 
ATOM      4  C   UNL     1       1.284   3.060  21.354  0.00  0.00    +0.000 A 
ATOM      5  N   UNL     1       2.015   1.978  21.427  0.00  0.00    +0.000 NA
ATOM      6  C   UNL     1       3.305   2.053  20.936  0.00  0.00    +0.000 A 
ATOM      7  C   UNL     1       3.842   3.155  20.386  0.00  0.00    +0.000 A 
ATOM      8  N   UNL     1       3.072   4.307  20.334  0.00  0.00    +0.000 N 
ATOM      9  C   UNL     1       3.320   5.591  19.884  0.00  0.00    +0.000 A 
ENDROOT
BRANCH   1  13
ATOM     10  C   UNL     1       1.121  10.348  19.231  0.00  0.00    +0.000 A 
ATOM     11  C   UNL     1       1.620   9.498  18.232  0.00  0.00    +0.000 A 
ATOM     12  C   UNL     1       1.961   8.172  18.519  0.00  0.00    +0.000 A 
ATOM     13  C   UNL     1       1.844   7.675  19.820  0.00  0.00    +0.000 A 
ATOM     14  C   UNL     1       1.402   8.545  20.823  0.00  0.00    +0.000 A 
ATOM     15  C   UNL     1       1.061   9.881  20.553  0.00  0.00    +0.000 A 
BRANCH  10  17
ATOM     16  C   UNL     1      -0.678  11.763  18.633  0.00  0.00    +0.000 C 
ATOM     17  O   UNL     1       0.710  11.621  18.938  0.00  0.00    +0.000 OA
ENDBRANCH  10  17
BRANCH  15  18
ATOM     18  O   UNL     1       0.673  10.546  21.687  0.00  0.00    +0.000 OA
ATOM     19  C   UNL     1      -0.040   9.845  22.693  0.00  0.00    +0.000 C 
ENDBRANCH  15  18
ENDBRANCH   1  13
BRANCH   9  20
ATOM     20  N   UNL     1       4.517   5.937  19.327  0.00  0.00    +0.000 N 
ATOM     21  H   UNL     1       5.350   5.717  19.878  0.00  0.00    +0.000 HD
BRANCH  20  22
ATOM     22  C   UNL     1       4.832   5.754  17.950  0.00  0.00    +0.000 A 
ATOM     23  C   UNL     1       4.766   6.889  17.101  0.00  0.00    +0.000 A 
ATOM     24  C   UNL     1       5.111   6.810  15.747  0.00  0.00    +0.000 A 
ATOM     25  C   UNL     1       5.535   5.590  15.274  0.00  0.00    +0.000 A 
ATOM     26  C   UNL     1       5.549   4.470  16.071  0.00  0.00    +0.000 A 
ATOM     27  C   UNL     1       5.176   4.510  17.399  0.00  0.00    +0.000 A 
ATOM     28  O   UNL     1       6.042   3.381  15.419  0.00  0.00    +0.000 OA
ATOM     29  C   UNL     1       6.627   4.039  14.278  0.00  0.00    +0.000 C 
ATOM     30  O   UNL     1       6.042   5.337  14.035  0.00  0.00    +0.000 OA
ENDBRANCH  20  22
ENDBRANCH   9  20
TORSDOF 5
ENDMDL
MODEL 9
REMARK VINA RESULT:      -7.8      2.091      2.572
REMARK  Name = 
REMARK  7 active torsions:
REMARK  status: ('A' for Active; 'I' for Inactive)
REMARK    1  A    between atoms: C_1  and  O_2
REMARK    2  A    between atoms: O_2  and  C_3
REMARK    3  A    between atoms: C_6  and  C_7
REMARK    4  A    between atoms: C_15  and  N_16
REMARK    5  A    between atoms: N_16  and  C_17
REMARK    6  A    between atoms: C_27  and  O_28
REMARK    7  A    between atoms: O_28  and  C_29
REMARK                            x       y       z     vdW  Elec       q    Type
REMARK                         _______ _______ _______ _____ _____    ______ ____
ROOT
ATOM      1  C   UNL     1       4.003   4.898  18.500  0.00  0.00    +0.000 A 
ATOM      2  N   UNL     1       3.759   3.659  17.931  0.00  0.00    +0.000 NA
ATOM      3  C   UNL     1       2.621   3.272  18.465  0.00  0.00    +0.000 A 
ATOM      4  C   UNL     1       1.870   2.075  18.217  0.00  0.00    +0.000 A 
ATOM      5  N   UNL     1       0.751   1.812  18.840  0.00  0.00    +0.000 NA
ATOM      6  C   UNL     1       0.306   2.743  19.760  0.00  0.00    +0.000 A 
ATOM      7  C   UNL     1       0.954   3.882  20.056  0.00  0.00    +0.000 A 
ATOM      8  N   UNL     1       2.127   4.169  19.375  0.00  0.00    +0.000 N 
ATOM      9  C   UNL     1       2.999   5.242  19.402  0.00  0.00    +0.000 A 
ENDROOT
BRANCH   1  13
ATOM     10  C   UNL     1       7.293   7.436  17.452  0.00  0.00    +0.000 A 
ATOM     11  C   UNL     1       6.105   7.439  16.704  0.00  0.00    +0.000 A 
ATOM     12  C   UNL     1       5.041   6.595  17.039  0.00  0.00    +0.000 A 
ATOM     13  C   UNL     1       5.153   5.704  18.110  0.00  0.00    +0.000 A 
ATOM     14  C   UNL     1       6.363   5.664  18.814  0.00  0.00    +0.000 A 
ATOM     15  C   UNL     1       7.443   6.501  18.487  0.00  0.00    +0.000 A 
BRANCH  10  17
ATOM     16  C   UNL     1       8.349   9.479  18.006  0.00  0.00    +0.000 C 
ATOM     17  O   UNL     1       8.305   8.317  17.177  0.00  0.00    +0.000 OA
ENDBRANCH  10  17
BRANCH  15  18
ATOM     18  O   UNL     1       8.524   6.276  19.298  0.00  0.00    +0.000 OA
ATOM     19  C   UNL     1       8.437   5.288  20.311  0.00  0.00    +0.000 C 
ENDBRANCH  15  18
ENDBRANCH   1  13
BRANCH   9  20
ATOM     20  N   UNL     1       2.808   6.300  20.244  0.00  0.00    +0.000 N 
ATOM     21  H   UNL     1       3.600   6.547  20.841  0.00  0.00    +0.000 HD
BRANCH  20  22
ATOM     22  C   UNL     1       2.141   7.500  19.867  0.00  0.00    +0.000 A 
ATOM     23  C   UNL     1       2.257   7.925  18.518  0.00  0.00    +0.000 A 
ATOM     24  C   UNL     1       1.591   9.064  18.050  0.00  0.00    +0.000 A 
ATOM     25  C   UNL     1       0.803   9.747  18.947  0.00  0.00    +0.000 A 
ATOM     26  C   UNL     1       0.728   9.380  20.270  0.00  0.00    +0.000 A 
ATOM     27  C   UNL     1       1.405   8.286  20.767  0.00  0.00    +0.000 A 
ATOM     28  O   UNL     1      -0.137  10.163  20.972  0.00  0.00    +0.000 OA
ATOM     29  C   UNL     1      -0.814  10.804  19.872  0.00  0.00    +0.000 C 
ATOM     30  O   UNL     1      -0.027  10.788  18.661  0.00  0.00    +0.000 OA
ENDBRANCH  20  22
ENDBRANCH   9  20
TORSDOF 5
ENDMDL
