MODEL 1
REMARK VINA RESULT:      -8.1      0.000      0.000
REMARK  Name = 
REMARK  7 active torsions:
REMARK  status: ('A' for Active; 'I' for Inactive)
REMARK    1  A    between atoms: C_1  and  C_2
REMARK    2  A    between atoms: N_4  and  C_5
REMARK    3  A    between atoms: N_10  and  C_11
REMARK    4  A    between atoms: C_11  and  C_12
REMARK    5  A    between atoms: C_11  and  C_13
REMARK    6  A    between atoms: C_13  and  C_14
REMARK    7  A    between atoms: C_19  and  C_20
REMARK                            x       y       z     vdW  Elec       q    Type
REMARK                         _______ _______ _______ _____ _____    ______ ____
ROOT
ATOM      1  C   UNL     1       6.111   4.047  13.273  0.00  0.00    +0.000 C 
ATOM      2  C   UNL     1       5.365   3.772  14.597  0.00  0.00    +0.000 C 
ATOM      3  N   UNL     1       6.169   4.837  15.154  0.00  0.00    +0.000 N 
ATOM      4  C   UNL     1       6.037   5.689  16.204  0.00  0.00    +0.000 C 
ATOM      5  O   UNL     1       6.834   6.593  16.429  0.00  0.00    +0.000 OA
ATOM      6  N   UNL     1       4.949   5.426  16.993  0.00  0.00    +0.000 N 
ATOM      7  C   UNL     1       7.181   4.770  14.117  0.00  0.00    +0.000 C 
ATOM      8  H   UNL     1       4.274   4.767  16.640  0.00  0.00    +0.000 HD
ENDROOT
BRANCH   1  12
ATOM      9  C   UNL     1       6.402   1.075  10.902  0.00  0.00    +0.000 C 
ATOM     10  C   UNL     1       5.757   2.242  11.596  0.00  0.00    +0.000 C 
ATOM     11  O   UNL     1       4.615   2.613  11.348  0.00  0.00    +0.000 OA
ATOM     12  N   UNL     1       6.562   2.842  12.541  0.00  0.00    +0.000 N 
ATOM     13  H   UNL     1       7.502   2.485  12.670  0.00  0.00    +0.000 HD
ENDBRANCH   1  12
BRANCH   6  14
ATOM     14  C   UNL     1       4.596   6.236  18.152  0.00  0.00    +0.000 C 
ATOM     15  C   UNL     1       3.252   6.926  17.908  0.00  0.00    +0.000 C 
BRANCH  14  16
ATOM     16  C   UNL     1       4.511   5.371  19.427  0.00  0.00    +0.000 C 
BRANCH  16  17
ATOM     17  C   UNL     1       3.175   4.693  19.666  0.00  0.00    +0.000 A 
ATOM     18  C   UNL     1       2.138   5.474  20.220  0.00  0.00    +0.000 A 
ATOM     19  C   UNL     1       0.905   4.916  20.553  0.00  0.00    +0.000 A 
ATOM     20  C   UNL     1       0.681   3.563  20.347  0.00  0.00    +0.000 A 
ATOM     21  C   UNL     1       1.679   2.780  19.769  0.00  0.00    +0.000 A 
ATOM     22  C   UNL     1       2.928   3.327  19.399  0.00  0.00    +0.000 A 
BRANCH  22  23
ATOM     23  C   UNL     1       3.914   2.378  18.752  0.00  0.00    +0.000 C 
ATOM     24  F   UNL     1       4.296   2.702  17.487  0.00  0.00    +0.000 F 
ATOM     25  F   UNL     1       5.071   2.276  19.468  0.00  0.00    +0.000 F 
ATOM     26  F   UNL     1       3.424   1.107  18.669  0.00  0.00    +0.000 F 
ENDBRANCH  22  23
ENDBRANCH  16  17
ENDBRANCH  14  16
ENDBRANCH   6  14
TORSDOF 5
ENDMDL
MODEL 2
REMARK VINA RESULT:      -8.1      1.839      2.449
REMARK  Name = 
REMARK  7 active torsions:
REMARK  status: ('A' for Active; 'I' for Inactive)
REMARK    1  A    between atoms: C_1  and  C_2
REMARK    2  A    between atoms: N_4  and  C_5
REMARK    3  A    between atoms: N_10  and  C_11
REMARK    4  A    between atoms: C_11  and  C_12
REMARK    5  A    between atoms: C_11  and  C_13
REMARK    6  A    between atoms: C_13  and  C_14
REMARK    7  A    between atoms: C_19  and  C_20
REMARK                            x       y       z     vdW  Elec       q    Type
REMARK                         _______ _______ _______ _____ _____    ______ ____
ROOT
ATOM      1  C   UNL     1       6.140   4.013  13.189  0.00  0.00    +0.000 C 
ATOM      2  C   UNL     1       5.490   3.732  14.561  0.00  0.00    +0.000 C 
ATOM      3  N   UNL     1       6.286   4.835  15.052  0.00  0.00    +0.000 N 
ATOM      4  C   UNL     1       6.188   5.698  16.096  0.00  0.00    +0.000 C 
ATOM      5  O   UNL     1       6.962   6.635  16.257  0.00  0.00    +0.000 OA
ATOM      6  N   UNL     1       5.161   5.408  16.955  0.00  0.00    +0.000 N 
ATOM      7  C   UNL     1       7.233   4.788  13.954  0.00  0.00    +0.000 C 
ATOM      8  H   UNL     1       4.491   4.718  16.655  0.00  0.00    +0.000 HD
ENDROOT
BRANCH   1  12
ATOM      9  C   UNL     1       6.408   1.032  10.826  0.00  0.00    +0.000 C 
ATOM     10  C   UNL     1       5.764   2.189  11.538  0.00  0.00    +0.000 C 
ATOM     11  O   UNL     1       4.604   2.531  11.334  0.00  0.00    +0.000 OA
ATOM     12  N   UNL     1       6.591   2.813  12.447  0.00  0.00    +0.000 N 
ATOM     13  H   UNL     1       7.543   2.479  12.540  0.00  0.00    +0.000 HD
ENDBRANCH   1  12
BRANCH   6  14
ATOM     14  C   UNL     1       4.851   6.223  18.123  0.00  0.00    +0.000 C 
ATOM     15  C   UNL     1       3.665   7.139  17.812  0.00  0.00    +0.000 C 
BRANCH  14  16
ATOM     16  C   UNL     1       4.518   5.339  19.343  0.00  0.00    +0.000 C 
BRANCH  16  17
ATOM     17  C   UNL     1       3.647   4.130  19.052  0.00  0.00    +0.000 A 
ATOM     18  C   UNL     1       4.184   3.127  18.217  0.00  0.00    +0.000 A 
ATOM     19  C   UNL     1       3.427   2.024  17.826  0.00  0.00    +0.000 A 
ATOM     20  C   UNL     1       2.114   1.901  18.255  0.00  0.00    +0.000 A 
ATOM     21  C   UNL     1       1.575   2.862  19.108  0.00  0.00    +0.000 A 
ATOM     22  C   UNL     1       2.330   3.976  19.539  0.00  0.00    +0.000 A 
BRANCH  22  23
ATOM     23  C   UNL     1       1.639   4.931  20.490  0.00  0.00    +0.000 C 
ATOM     24  F   UNL     1       0.334   4.653  20.755  0.00  0.00    +0.000 F 
ATOM     25  F   UNL     1       2.258   4.980  21.705  0.00  0.00    +0.000 F 
ATOM     26  F   UNL     1       1.648   6.214  20.024  0.00  0.00    +0.000 F 
ENDBRANCH  22  23
ENDBRANCH  16  17
ENDBRANCH  14  16
ENDBRANCH   6  14
TORSDOF 5
ENDMDL
MODEL 3
REMARK VINA RESULT:      -8.0      3.158      5.044
REMARK  Name = 
REMARK  7 active torsions:
REMARK  status: ('A' for Active; 'I' for Inactive)
REMARK    1  A    between atoms: C_1  and  C_2
REMARK    2  A    between atoms: N_4  and  C_5
REMARK    3  A    between atoms: N_10  and  C_11
REMARK    4  A    between atoms: C_11  and  C_12
REMARK    5  A    between atoms: C_11  and  C_13
REMARK    6  A    between atoms: C_13  and  C_14
REMARK    7  A    between atoms: C_19  and  C_20
REMARK                            x       y       z     vdW  Elec       q    Type
REMARK                         _______ _______ _______ _____ _____    ______ ____
ROOT
ATOM      1  C   UNL     1       7.948   5.818  18.466  0.00  0.00    +0.000 C 
ATOM      2  C   UNL     1       6.566   5.399  19.012  0.00  0.00    +0.000 C 
ATOM      3  N   UNL     1       6.287   4.939  17.670  0.00  0.00    +0.000 N 
ATOM      4  C   UNL     1       5.441   4.024  17.127  0.00  0.00    +0.000 C 
ATOM      5  O   UNL     1       5.451   3.738  15.935  0.00  0.00    +0.000 OA
ATOM      6  N   UNL     1       4.570   3.476  18.030  0.00  0.00    +0.000 N 
ATOM      7  C   UNL     1       7.326   5.743  17.056  0.00  0.00    +0.000 C 
ATOM      8  H   UNL     1       4.743   3.658  19.005  0.00  0.00    +0.000 HD
ENDROOT
BRANCH   1  12
ATOM      9  C   UNL     1       8.680   9.549  18.748  0.00  0.00    +0.000 C 
ATOM     10  C   UNL     1       8.199   8.270  18.122  0.00  0.00    +0.000 C 
ATOM     11  O   UNL     1       7.674   8.229  17.014  0.00  0.00    +0.000 OA
ATOM     12  N   UNL     1       8.419   7.153  18.899  0.00  0.00    +0.000 N 
ATOM     13  H   UNL     1       8.842   7.277  19.812  0.00  0.00    +0.000 HD
ENDBRANCH   1  12
BRANCH   6  14
ATOM     14  C   UNL     1       3.600   2.449  17.671  0.00  0.00    +0.000 C 
ATOM     15  C   UNL     1       3.853   1.188  18.502  0.00  0.00    +0.000 C 
BRANCH  14  16
ATOM     16  C   UNL     1       2.157   2.943  17.906  0.00  0.00    +0.000 C 
BRANCH  16  17
ATOM     17  C   UNL     1       2.029   4.202  18.743  0.00  0.00    +0.000 A 
ATOM     18  C   UNL     1       2.070   5.440  18.068  0.00  0.00    +0.000 A 
ATOM     19  C   UNL     1       2.047   6.649  18.762  0.00  0.00    +0.000 A 
ATOM     20  C   UNL     1       1.988   6.648  20.148  0.00  0.00    +0.000 A 
ATOM     21  C   UNL     1       1.912   5.437  20.833  0.00  0.00    +0.000 A 
ATOM     22  C   UNL     1       1.908   4.200  20.152  0.00  0.00    +0.000 A 
BRANCH  22  23
ATOM     23  C   UNL     1       1.790   2.958  21.010  0.00  0.00    +0.000 C 
ATOM     24  F   UNL     1       2.968   2.414  21.419  0.00  0.00    +0.000 F 
ATOM     25  F   UNL     1       1.078   3.190  22.151  0.00  0.00    +0.000 F 
ATOM     26  F   UNL     1       1.130   1.952  20.368  0.00  0.00    +0.000 F 
ENDBRANCH  22  23
ENDBRANCH  16  17
ENDBRANCH  14  16
ENDBRANCH   6  14
TORSDOF 5
ENDMDL
MODEL 4
REMARK VINA RESULT:      -7.9      4.007      7.400
REMARK  Name = 
REMARK  7 active torsions:
REMARK  status: ('A' for Active; 'I' for Inactive)
REMARK    1  A    between atoms: C_1  and  C_2
REMARK    2  A    between atoms: N_4  and  C_5
REMARK    3  A    between atoms: N_10  and  C_11
REMARK    4  A    between atoms: C_11  and  C_12
REMARK    5  A    between atoms: C_11  and  C_13
REMARK    6  A    between atoms: C_13  and  C_14
REMARK    7  A    between atoms: C_19  and  C_20
REMARK                            x       y       z     vdW  Elec       q    Type
REMARK                         _______ _______ _______ _____ _____    ______ ____
ROOT
ATOM      1  C   UNL     1       1.478   9.404  18.209  0.00  0.00    +0.000 C 
ATOM      2  C   UNL     1       2.508   8.407  17.636  0.00  0.00    +0.000 C 
ATOM      3  N   UNL     1       2.272   7.630  18.833  0.00  0.00    +0.000 N 
ATOM      4  C   UNL     1       2.410   6.321  19.169  0.00  0.00    +0.000 C 
ATOM      5  O   UNL     1       2.049   5.872  20.251  0.00  0.00    +0.000 OA
ATOM      6  N   UNL     1       3.006   5.563  18.197  0.00  0.00    +0.000 N 
ATOM      7  C   UNL     1       1.718   8.742  19.582  0.00  0.00    +0.000 C 
ATOM      8  H   UNL     1       3.123   5.986  17.290  0.00  0.00    +0.000 HD
ENDROOT
BRANCH   1  12
ATOM      9  C   UNL     1       1.631  13.202  18.505  0.00  0.00    +0.000 C 
ATOM     10  C   UNL     1       1.062  11.818  18.647  0.00  0.00    +0.000 C 
ATOM     11  O   UNL     1      -0.016  11.596  19.188  0.00  0.00    +0.000 OA
ATOM     12  N   UNL     1       1.854  10.831  18.100  0.00  0.00    +0.000 N 
ATOM     13  H   UNL     1       2.741  11.099  17.688  0.00  0.00    +0.000 HD
ENDBRANCH   1  12
BRANCH   6  14
ATOM     14  C   UNL     1       3.220   4.127  18.331  0.00  0.00    +0.000 C 
ATOM     15  C   UNL     1       2.054   3.370  17.692  0.00  0.00    +0.000 C 
BRANCH  14  16
ATOM     16  C   UNL     1       4.544   3.700  17.664  0.00  0.00    +0.000 C 
BRANCH  16  17
ATOM     17  C   UNL     1       5.695   4.677  17.817  0.00  0.00    +0.000 A 
ATOM     18  C   UNL     1       6.258   4.823  19.102  0.00  0.00    +0.000 A 
ATOM     19  C   UNL     1       7.260   5.759  19.356  0.00  0.00    +0.000 A 
ATOM     20  C   UNL     1       7.718   6.574  18.332  0.00  0.00    +0.000 A 
ATOM     21  C   UNL     1       7.200   6.423  17.047  0.00  0.00    +0.000 A 
ATOM     22  C   UNL     1       6.203   5.465  16.759  0.00  0.00    +0.000 A 
BRANCH  22  23
ATOM     23  C   UNL     1       5.747   5.379  15.317  0.00  0.00    +0.000 C 
ATOM     24  F   UNL     1       4.958   4.313  15.015  0.00  0.00    +0.000 F 
ATOM     25  F   UNL     1       5.036   6.481  14.939  0.00  0.00    +0.000 F 
ATOM     26  F   UNL     1       6.798   5.309  14.450  0.00  0.00    +0.000 F 
ENDBRANCH  22  23
ENDBRANCH  16  17
ENDBRANCH  14  16
ENDBRANCH   6  14
TORSDOF 5
ENDMDL
MODEL 5
REMARK VINA RESULT:      -7.7      4.618      8.093
REMARK  Name = 
REMARK  7 active torsions:
REMARK  status: ('A' for Active; 'I' for Inactive)
REMARK    1  A    between atoms: C_1  and  C_2
REMARK    2  A    between atoms: N_4  and  C_5
REMARK    3  A    between atoms: N_10  and  C_11
REMARK    4  A    between atoms: C_11  and  C_12
REMARK    5  A    between atoms: C_11  and  C_13
REMARK    6  A    between atoms: C_13  and  C_14
REMARK    7  A    between atoms: C_19  and  C_20
REMARK                            x       y       z     vdW  Elec       q    Type
REMARK                         _______ _______ _______ _____ _____    ______ ____
ROOT
ATOM      1  C   UNL     1       0.544  10.963  20.752  0.00  0.00    +0.000 C 
ATOM      2  C   UNL     1       0.483   9.427  20.598  0.00  0.00    +0.000 C 
ATOM      3  N   UNL     1       1.039   9.639  19.279  0.00  0.00    +0.000 N 
ATOM      4  C   UNL     1       1.755   8.881  18.408  0.00  0.00    +0.000 C 
ATOM      5  O   UNL     1       2.203   9.324  17.357  0.00  0.00    +0.000 OA
ATOM      6  N   UNL     1       1.906   7.579  18.807  0.00  0.00    +0.000 N 
ATOM      7  C   UNL     1       0.650  11.034  19.215  0.00  0.00    +0.000 C 
ATOM      8  H   UNL     1       1.639   7.353  19.751  0.00  0.00    +0.000 HD
ENDROOT
BRANCH   1  12
ATOM      9  C   UNL     1      -2.193  12.134  23.135  0.00  0.00    +0.000 C 
ATOM     10  C   UNL     1      -0.983  11.369  22.675  0.00  0.00    +0.000 C 
ATOM     11  O   UNL     1      -0.355  10.616  23.411  0.00  0.00    +0.000 OA
ATOM     12  N   UNL     1      -0.659  11.583  21.352  0.00  0.00    +0.000 N 
ATOM     13  H   UNL     1      -1.219  12.239  20.819  0.00  0.00    +0.000 HD
ENDBRANCH   1  12
BRANCH   6  14
ATOM     14  C   UNL     1       2.668   6.600  18.042  0.00  0.00    +0.000 C 
ATOM     15  C   UNL     1       4.027   6.371  18.707  0.00  0.00    +0.000 C 
BRANCH  14  16
ATOM     16  C   UNL     1       1.907   5.261  17.941  0.00  0.00    +0.000 C 
BRANCH  16  17
ATOM     17  C   UNL     1       2.130   4.298  19.093  0.00  0.00    +0.000 A 
ATOM     18  C   UNL     1       1.545   4.622  20.335  0.00  0.00    +0.000 A 
ATOM     19  C   UNL     1       1.766   3.843  21.470  0.00  0.00    +0.000 A 
ATOM     20  C   UNL     1       2.584   2.726  21.391  0.00  0.00    +0.000 A 
ATOM     21  C   UNL     1       3.146   2.369  20.167  0.00  0.00    +0.000 A 
ATOM     22  C   UNL     1       2.915   3.127  18.997  0.00  0.00    +0.000 A 
BRANCH  22  23
ATOM     23  C   UNL     1       3.556   2.615  17.724  0.00  0.00    +0.000 C 
ATOM     24  F   UNL     1       3.925   1.306  17.740  0.00  0.00    +0.000 F 
ATOM     25  F   UNL     1       2.732   2.751  16.645  0.00  0.00    +0.000 F 
ATOM     26  F   UNL     1       4.689   3.306  17.407  0.00  0.00    +0.000 F 
ENDBRANCH  22  23
ENDBRANCH  16  17
ENDBRANCH  14  16
ENDBRANCH   6  14
TORSDOF 5
ENDMDL
MODEL 6
REMARK VINA RESULT:      -7.7      1.068      1.265
REMARK  Name = 
REMARK  7 active torsions:
REMARK  status: ('A' for Active; 'I' for Inactive)
REMARK    1  A    between atoms: C_1  and  C_2
REMARK    2  A    between atoms: N_4  and  C_5
REMARK    3  A    between atoms: N_10  and  C_11
REMARK    4  A    between atoms: C_11  and  C_12
REMARK    5  A    between atoms: C_11  and  C_13
REMARK    6  A    between atoms: C_13  and  C_14
REMARK    7  A    between atoms: C_19  and  C_20
REMARK                            x       y       z     vdW  Elec       q    Type
REMARK                         _______ _______ _______ _____ _____    ______ ____
ROOT
ATOM      1  C   UNL     1       6.119   4.250  13.281  0.00  0.00    +0.000 C 
ATOM      2  C   UNL     1       5.130   3.947  14.427  0.00  0.00    +0.000 C 
ATOM      3  N   UNL     1       5.842   4.960  15.175  0.00  0.00    +0.000 N 
ATOM      4  C   UNL     1       5.537   5.772  16.220  0.00  0.00    +0.000 C 
ATOM      5  O   UNL     1       6.300   6.638  16.632  0.00  0.00    +0.000 OA
ATOM      6  N   UNL     1       4.312   5.515  16.777  0.00  0.00    +0.000 N 
ATOM      7  C   UNL     1       7.029   4.900  14.343  0.00  0.00    +0.000 C 
ATOM      8  H   UNL     1       3.699   4.894  16.274  0.00  0.00    +0.000 HD
ENDROOT
BRANCH   1  12
ATOM      9  C   UNL     1       6.661   1.238  11.007  0.00  0.00    +0.000 C 
ATOM     10  C   UNL     1       5.922   2.373  11.658  0.00  0.00    +0.000 C 
ATOM     11  O   UNL     1       4.757   2.648  11.390  0.00  0.00    +0.000 OA
ATOM     12  N   UNL     1       6.668   3.061  12.591  0.00  0.00    +0.000 N 
ATOM     13  H   UNL     1       7.631   2.781  12.739  0.00  0.00    +0.000 HD
ENDBRANCH   1  12
BRANCH   6  14
ATOM     14  C   UNL     1       3.769   6.288  17.887  0.00  0.00    +0.000 C 
ATOM     15  C   UNL     1       3.680   7.764  17.491  0.00  0.00    +0.000 C 
BRANCH  14  16
ATOM     16  C   UNL     1       2.370   5.774  18.288  0.00  0.00    +0.000 C 
BRANCH  16  17
ATOM     17  C   UNL     1       2.357   4.678  19.338  0.00  0.00    +0.000 A 
ATOM     18  C   UNL     1       2.168   5.065  20.681  0.00  0.00    +0.000 A 
ATOM     19  C   UNL     1       2.227   4.138  21.722  0.00  0.00    +0.000 A 
ATOM     20  C   UNL     1       2.482   2.804  21.443  0.00  0.00    +0.000 A 
ATOM     21  C   UNL     1       2.638   2.394  20.120  0.00  0.00    +0.000 A 
ATOM     22  C   UNL     1       2.557   3.309  19.047  0.00  0.00    +0.000 A 
BRANCH  22  23
ATOM     23  C   UNL     1       2.712   2.731  17.656  0.00  0.00    +0.000 C 
ATOM     24  F   UNL     1       2.116   3.438  16.658  0.00  0.00    +0.000 F 
ATOM     25  F   UNL     1       4.023   2.618  17.292  0.00  0.00    +0.000 F 
ATOM     26  F   UNL     1       2.199   1.471  17.564  0.00  0.00    +0.000 F 
ENDBRANCH  22  23
ENDBRANCH  16  17
ENDBRANCH  14  16
ENDBRANCH   6  14
TORSDOF 5
ENDMDL
MODEL 7
REMARK VINA RESULT:      -7.7      4.920      8.389
REMARK  Name = 
REMARK  7 active torsions:
REMARK  status: ('A' for Active; 'I' for Inactive)
REMARK    1  A    between atoms: C_1  and  C_2
REMARK    2  A    between atoms: N_4  and  C_5
REMARK    3  A    between atoms: N_10  and  C_11
REMARK    4  A    between atoms: C_11  and  C_12
REMARK    5  A    between atoms: C_11  and  C_13
REMARK    6  A    between atoms: C_13  and  C_14
REMARK    7  A    between atoms: C_19  and  C_20
REMARK                            x       y       z     vdW  Elec       q    Type
REMARK                         _______ _______ _______ _____ _____    ______ ____
ROOT
ATOM      1  C   UNL     1       0.275  11.106  20.629  0.00  0.00    +0.000 C 
ATOM      2  C   UNL     1       0.473   9.576  20.684  0.00  0.00    +0.000 C 
ATOM      3  N   UNL     1       0.877   9.679  19.299  0.00  0.00    +0.000 N 
ATOM      4  C   UNL     1       1.643   8.928  18.466  0.00  0.00    +0.000 C 
ATOM      5  O   UNL     1       1.922   9.280  17.325  0.00  0.00    +0.000 OA
ATOM      6  N   UNL     1       2.052   7.742  19.013  0.00  0.00    +0.000 N 
ATOM      7  C   UNL     1       0.244  10.968  19.093  0.00  0.00    +0.000 C 
ATOM      8  H   UNL     1       1.904   7.616  20.002  0.00  0.00    +0.000 HD
ENDROOT
BRANCH   1  12
ATOM      9  C   UNL     1      -2.455  12.090  23.103  0.00  0.00    +0.000 C 
ATOM     10  C   UNL     1      -1.177  11.464  22.619  0.00  0.00    +0.000 C 
ATOM     11  O   UNL     1      -0.404  10.872  23.364  0.00  0.00    +0.000 OA
ATOM     12  N   UNL     1      -0.967  11.604  21.263  0.00  0.00    +0.000 N 
ATOM     13  H   UNL     1      -1.647  12.126  20.722  0.00  0.00    +0.000 HD
ENDBRANCH   1  12
BRANCH   6  14
ATOM     14  C   UNL     1       2.911   6.798  18.309  0.00  0.00    +0.000 C 
ATOM     15  C   UNL     1       3.997   7.561  17.546  0.00  0.00    +0.000 C 
BRANCH  14  16
ATOM     16  C   UNL     1       3.567   5.806  19.291  0.00  0.00    +0.000 C 
BRANCH  16  17
ATOM     17  C   UNL     1       3.339   4.338  18.983  0.00  0.00    +0.000 A 
ATOM     18  C   UNL     1       4.060   3.779  17.907  0.00  0.00    +0.000 A 
ATOM     19  C   UNL     1       3.851   2.463  17.496  0.00  0.00    +0.000 A 
ATOM     20  C   UNL     1       2.913   1.677  18.148  0.00  0.00    +0.000 A 
ATOM     21  C   UNL     1       2.213   2.198  19.235  0.00  0.00    +0.000 A 
ATOM     22  C   UNL     1       2.425   3.520  19.687  0.00  0.00    +0.000 A 
BRANCH  22  23
ATOM     23  C   UNL     1       1.626   3.955  20.897  0.00  0.00    +0.000 C 
ATOM     24  F   UNL     1       0.799   5.017  20.702  0.00  0.00    +0.000 F 
ATOM     25  F   UNL     1       0.831   2.953  21.372  0.00  0.00    +0.000 F 
ATOM     26  F   UNL     1       2.429   4.309  21.942  0.00  0.00    +0.000 F 
ENDBRANCH  22  23
ENDBRANCH  16  17
ENDBRANCH  14  16
ENDBRANCH   6  14
TORSDOF 5
ENDMDL
MODEL 8
REMARK VINA RESULT:      -7.6      1.841      2.507
REMARK  Name = 
REMARK  7 active torsions:
REMARK  status: ('A' for Active; 'I' for Inactive)
REMARK    1  A    between atoms: C_1  and  C_2
REMARK    2  A    between atoms: N_4  and  C_5
REMARK    3  A    between atoms: N_10  and  C_11
REMARK    4  A    between atoms: C_11  and  C_12
REMARK    5  A    between atoms: C_11  and  C_13
REMARK    6  A    between atoms: C_13  and  C_14
REMARK    7  A    between atoms: C_19  and  C_20
REMARK                            x       y       z     vdW  Elec       q    Type
REMARK                         _______ _______ _______ _____ _____    ______ ____
ROOT
ATOM      1  C   UNL     1       6.067   4.429  14.153  0.00  0.00    +0.000 C 
ATOM      2  C   UNL     1       4.930   4.185  15.170  0.00  0.00    +0.000 C 
ATOM      3  N   UNL     1       5.768   4.879  16.122  0.00  0.00    +0.000 N 
ATOM      4  C   UNL     1       5.545   5.566  17.273  0.00  0.00    +0.000 C 
ATOM      5  O   UNL     1       6.433   6.161  17.873  0.00  0.00    +0.000 OA
ATOM      6  N   UNL     1       4.246   5.511  17.704  0.00  0.00    +0.000 N 
ATOM      7  C   UNL     1       6.989   4.681  15.364  0.00  0.00    +0.000 C 
ATOM      8  H   UNL     1       3.565   5.134  17.065  0.00  0.00    +0.000 HD
ENDROOT
BRANCH   1  12
ATOM      9  C   UNL     1       6.202   1.798  11.397  0.00  0.00    +0.000 C 
ATOM     10  C   UNL     1       5.668   2.964  12.182  0.00  0.00    +0.000 C 
ATOM     11  O   UNL     1       4.655   3.574  11.857  0.00  0.00    +0.000 OA
ATOM     12  N   UNL     1       6.412   3.268  13.302  0.00  0.00    +0.000 N 
ATOM     13  H   UNL     1       7.247   2.725  13.487  0.00  0.00    +0.000 HD
ENDBRANCH   1  12
BRANCH   6  14
ATOM     14  C   UNL     1       3.777   6.206  18.896  0.00  0.00    +0.000 C 
ATOM     15  C   UNL     1       2.631   7.150  18.525  0.00  0.00    +0.000 C 
BRANCH  14  16
ATOM     16  C   UNL     1       3.299   5.205  19.968  0.00  0.00    +0.000 C 
BRANCH  16  17
ATOM     17  C   UNL     1       3.417   3.740  19.589  0.00  0.00    +0.000 A 
ATOM     18  C   UNL     1       4.640   3.093  19.862  0.00  0.00    +0.000 A 
ATOM     19  C   UNL     1       4.870   1.775  19.471  0.00  0.00    +0.000 A 
ATOM     20  C   UNL     1       3.884   1.074  18.793  0.00  0.00    +0.000 A 
ATOM     21  C   UNL     1       2.655   1.682  18.543  0.00  0.00    +0.000 A 
ATOM     22  C   UNL     1       2.389   3.008  18.952  0.00  0.00    +0.000 A 
BRANCH  22  23
ATOM     23  C   UNL     1       1.004   3.542  18.649  0.00  0.00    +0.000 C 
ATOM     24  F   UNL     1       0.069   2.603  18.344  0.00  0.00    +0.000 F 
ATOM     25  F   UNL     1       0.487   4.247  19.696  0.00  0.00    +0.000 F 
ATOM     26  F   UNL     1       1.007   4.407  17.594  0.00  0.00    +0.000 F 
ENDBRANCH  22  23
ENDBRANCH  16  17
ENDBRANCH  14  16
ENDBRANCH   6  14
TORSDOF 5
ENDMDL
MODEL 9
REMARK VINA RESULT:      -7.5      5.044      8.506
REMARK  Name = 
REMARK  7 active torsions:
REMARK  status: ('A' for Active; 'I' for Inactive)
REMARK    1  A    between atoms: C_1  and  C_2
REMARK    2  A    between atoms: N_4  and  C_5
REMARK    3  A    between atoms: N_10  and  C_11
REMARK    4  A    between atoms: C_11  and  C_12
REMARK    5  A    between atoms: C_11  and  C_13
REMARK    6  A    between atoms: C_13  and  C_14
REMARK    7  A    between atoms: C_19  and  C_20
REMARK                            x       y       z     vdW  Elec       q    Type
REMARK                         _______ _______ _______ _____ _____    ______ ____
ROOT
ATOM      1  C   UNL     1       0.748  11.113  20.914  0.00  0.00    +0.000 C 
ATOM      2  C   UNL     1       0.789   9.569  20.901  0.00  0.00    +0.000 C 
ATOM      3  N   UNL     1       1.114   9.690  19.497  0.00  0.00    +0.000 N 
ATOM      4  C   UNL     1       1.745   8.902  18.587  0.00  0.00    +0.000 C 
ATOM      5  O   UNL     1       1.986   9.271  17.444  0.00  0.00    +0.000 OA
ATOM      6  N   UNL     1       2.060   7.657  19.064  0.00  0.00    +0.000 N 
ATOM      7  C   UNL     1       0.607  11.044  19.379  0.00  0.00    +0.000 C 
ATOM      8  H   UNL     1       1.962   7.505  20.054  0.00  0.00    +0.000 HD
ENDROOT
BRANCH   1  12
ATOM      9  C   UNL     1      -1.583  13.446  22.828  0.00  0.00    +0.000 C 
ATOM     10  C   UNL     1      -0.310  12.975  22.182  0.00  0.00    +0.000 C 
ATOM     11  O   UNL     1       0.710  13.656  22.150  0.00  0.00    +0.000 OA
ATOM     12  N   UNL     1      -0.393  11.707  21.647  0.00  0.00    +0.000 N 
ATOM     13  H   UNL     1      -1.280  11.220  21.699  0.00  0.00    +0.000 HD
ENDBRANCH   1  12
BRANCH   6  14
ATOM     14  C   UNL     1       2.771   6.662  18.270  0.00  0.00    +0.000 C 
ATOM     15  C   UNL     1       4.019   6.198  19.024  0.00  0.00    +0.000 C 
BRANCH  14  16
ATOM     16  C   UNL     1       1.868   5.449  17.965  0.00  0.00    +0.000 C 
BRANCH  16  17
ATOM     17  C   UNL     1       2.473   4.092  18.277  0.00  0.00    +0.000 A 
ATOM     18  C   UNL     1       3.259   3.484  17.275  0.00  0.00    +0.000 A 
ATOM     19  C   UNL     1       3.783   2.203  17.439  0.00  0.00    +0.000 A 
ATOM     20  C   UNL     1       3.530   1.498  18.606  0.00  0.00    +0.000 A 
ATOM     21  C   UNL     1       2.785   2.092  19.622  0.00  0.00    +0.000 A 
ATOM     22  C   UNL     1       2.264   3.399  19.491  0.00  0.00    +0.000 A 
BRANCH  22  23
ATOM     23  C   UNL     1       1.499   3.943  20.679  0.00  0.00    +0.000 C 
ATOM     24  F   UNL     1       1.303   3.066  21.700  0.00  0.00    +0.000 F 
ATOM     25  F   UNL     1       2.121   5.022  21.237  0.00  0.00    +0.000 F 
ATOM     26  F   UNL     1       0.254   4.379  20.332  0.00  0.00    +0.000 F 
ENDBRANCH  22  23
ENDBRANCH  16  17
ENDBRANCH  14  16
ENDBRANCH   6  14
TORSDOF 5
ENDMDL
