MODEL 1
REMARK VINA RESULT:      -8.1      0.000      0.000
REMARK  Name = 
REMARK  6 active torsions:
REMARK  status: ('A' for Active; 'I' for Inactive)
REMARK    1  A    between atoms: C_1  and  O_2
REMARK    2  A    between atoms: O_2  and  C_3
REMARK    3  A    between atoms: C_8  and  O_9
REMARK    4  A    between atoms: O_9  and  C_10
REMARK    5  A    between atoms: N_15  and  C_16
REMARK    6  A    between atoms: C_16  and  C_17
REMARK                            x       y       z     vdW  Elec       q    Type
REMARK                         _______ _______ _______ _____ _____    ______ ____
ROOT
ATOM      1  C   UNL     1      -1.977  11.969  19.519  0.00  0.00    +0.000 A 
ATOM      2  C   UNL     1      -1.110  11.618  20.566  0.00  0.00    +0.000 A 
ATOM      3  C   UNL     1      -0.069  10.702  20.373  0.00  0.00    +0.000 A 
ATOM      4  C   UNL     1       0.048  10.051  19.128  0.00  0.00    +0.000 A 
ATOM      5  C   UNL     1      -0.850  10.357  18.101  0.00  0.00    +0.000 A 
ATOM      6  C   UNL     1      -1.862  11.316  18.280  0.00  0.00    +0.000 A 
ATOM      7  C   UNL     1       1.061   9.015  18.969  0.00  0.00    +0.000 A 
ATOM      8  N   UNL     1       1.892   8.842  17.908  0.00  0.00    +0.000 N 
ATOM      9  N   UNL     1       2.804   7.883  18.091  0.00  0.00    +0.000 NA
ATOM     10  C   UNL     1       2.588   7.440  19.335  0.00  0.00    +0.000 A 
ATOM     11  N   UNL     1       3.351   6.519  19.971  0.00  0.00    +0.000 N 
ATOM     12  C   UNL     1       1.461   8.078  19.915  0.00  0.00    +0.000 A 
ATOM     13  C   UNL     1       0.778   7.902  21.218  0.00  0.00    +0.000 C 
ATOM     14  C   UNL     1       0.947   9.107  22.147  0.00  0.00    +0.000 C 
ATOM     15  C   UNL     1       0.955  10.488  21.472  0.00  0.00    +0.000 C 
ATOM     16  H   UNL     1       1.916   9.371  17.044  0.00  0.00    +0.000 HD
ATOM     17  H   UNL     1       3.049   6.185  20.877  0.00  0.00    +0.000 HD
ENDROOT
BRANCH   1  19
ATOM     18  C   UNL     1      -3.947  12.627  20.670  0.00  0.00    +0.000 C 
ATOM     19  O   UNL     1      -2.944  12.923  19.698  0.00  0.00    +0.000 OA
ENDBRANCH   1  19
BRANCH   6  20
ATOM     20  O   UNL     1      -2.606  11.486  17.144  0.00  0.00    +0.000 OA
ATOM     21  C   UNL     1      -2.586  10.480  16.144  0.00  0.00    +0.000 C 
ENDBRANCH   6  20
BRANCH  11  22
ATOM     22  C   UNL     1       4.011   5.506  19.167  0.00  0.00    +0.000 C 
BRANCH  22  23
ATOM     23  C   UNL     1       3.155   4.271  18.982  0.00  0.00    +0.000 A 
ATOM     24  C   UNL     1       2.272   3.836  19.989  0.00  0.00    +0.000 A 
ATOM     25 CL   UNL     1       2.242   4.566  21.558  0.00  0.00    +0.000 Cl
ATOM     26  C   UNL     1       1.368   2.790  19.761  0.00  0.00    +0.000 A 
ATOM     27  C   UNL     1       1.340   2.141  18.531  0.00  0.00    +0.000 A 
ATOM     28  C   UNL     1       2.247   2.511  17.544  0.00  0.00    +0.000 A 
ATOM     29  C   UNL     1       3.153   3.555  17.769  0.00  0.00    +0.000 A 
ATOM     30 CL   UNL     1       4.246   3.919  16.477  0.00  0.00    +0.000 Cl
ENDBRANCH  22  23
ENDBRANCH  11  22
TORSDOF 4
ENDMDL
MODEL 2
REMARK VINA RESULT:      -8.0      0.472      1.788
REMARK  Name = 
REMARK  6 active torsions:
REMARK  status: ('A' for Active; 'I' for Inactive)
REMARK    1  A    between atoms: C_1  and  O_2
REMARK    2  A    between atoms: O_2  and  C_3
REMARK    3  A    between atoms: C_8  and  O_9
REMARK    4  A    between atoms: O_9  and  C_10
REMARK    5  A    between atoms: N_15  and  C_16
REMARK    6  A    between atoms: C_16  and  C_17
REMARK                            x       y       z     vdW  Elec       q    Type
REMARK                         _______ _______ _______ _____ _____    ______ ____
ROOT
ATOM      1  C   UNL     1      -1.769  11.710  19.032  0.00  0.00    +0.000 A 
ATOM      2  C   UNL     1      -0.928  11.443  20.125  0.00  0.00    +0.000 A 
ATOM      3  C   UNL     1       0.115  10.516  20.030  0.00  0.00    +0.000 A 
ATOM      4  C   UNL     1       0.263   9.770  18.843  0.00  0.00    +0.000 A 
ATOM      5  C   UNL     1      -0.608   9.994  17.773  0.00  0.00    +0.000 A 
ATOM      6  C   UNL     1      -1.623  10.963  17.851  0.00  0.00    +0.000 A 
ATOM      7  C   UNL     1       1.279   8.725  18.791  0.00  0.00    +0.000 A 
ATOM      8  N   UNL     1       2.136   8.470  17.767  0.00  0.00    +0.000 N 
ATOM      9  N   UNL     1       3.042   7.530  18.047  0.00  0.00    +0.000 NA
ATOM     10  C   UNL     1       2.794   7.185  19.316  0.00  0.00    +0.000 A 
ATOM     11  N   UNL     1       3.540   6.317  20.041  0.00  0.00    +0.000 N 
ATOM     12  C   UNL     1       1.654   7.865  19.817  0.00  0.00    +0.000 A 
ATOM     13  C   UNL     1       0.938   7.791  21.111  0.00  0.00    +0.000 C 
ATOM     14  C   UNL     1       1.085   9.065  21.948  0.00  0.00    +0.000 C 
ATOM     15  C   UNL     1       1.111  10.389  21.167  0.00  0.00    +0.000 C 
ATOM     16  H   UNL     1       2.182   8.930  16.865  0.00  0.00    +0.000 HD
ATOM     17  H   UNL     1       3.215   6.054  20.962  0.00  0.00    +0.000 HD
ENDROOT
BRANCH   1  19
ATOM     18  C   UNL     1      -3.914  12.325  19.843  0.00  0.00    +0.000 C 
ATOM     19  O   UNL     1      -2.739  12.675  19.111  0.00  0.00    +0.000 OA
ENDBRANCH   1  19
BRANCH   6  20
ATOM     20  O   UNL     1      -2.339  11.043  16.686  0.00  0.00    +0.000 OA
ATOM     21  C   UNL     1      -3.039   9.900  16.222  0.00  0.00    +0.000 C 
ENDBRANCH   6  20
BRANCH  11  22
ATOM     22  C   UNL     1       4.219   5.245  19.335  0.00  0.00    +0.000 C 
BRANCH  22  23
ATOM     23  C   UNL     1       3.293   4.091  19.014  0.00  0.00    +0.000 A 
ATOM     24  C   UNL     1       3.308   3.471  17.750  0.00  0.00    +0.000 A 
ATOM     25 CL   UNL     1       4.241   4.097  16.434  0.00  0.00    +0.000 Cl
ATOM     26  C   UNL     1       2.567   2.307  17.503  0.00  0.00    +0.000 A 
ATOM     27  C   UNL     1       1.779   1.749  18.505  0.00  0.00    +0.000 A 
ATOM     28  C   UNL     1       1.699   2.381  19.741  0.00  0.00    +0.000 A 
ATOM     29  C   UNL     1       2.437   3.545  19.991  0.00  0.00    +0.000 A 
ATOM     30 CL   UNL     1       2.247   4.255  21.558  0.00  0.00    +0.000 Cl
ENDBRANCH  22  23
ENDBRANCH  11  22
TORSDOF 4
ENDMDL
MODEL 3
REMARK VINA RESULT:      -8.0      1.395      1.666
REMARK  Name = 
REMARK  6 active torsions:
REMARK  status: ('A' for Active; 'I' for Inactive)
REMARK    1  A    between atoms: C_1  and  O_2
REMARK    2  A    between atoms: O_2  and  C_3
REMARK    3  A    between atoms: C_8  and  O_9
REMARK    4  A    between atoms: O_9  and  C_10
REMARK    5  A    between atoms: N_15  and  C_16
REMARK    6  A    between atoms: C_16  and  C_17
REMARK                            x       y       z     vdW  Elec       q    Type
REMARK                         _______ _______ _______ _____ _____    ______ ____
ROOT
ATOM      1  C   UNL     1      -2.509  12.235  20.067  0.00  0.00    +0.000 A 
ATOM      2  C   UNL     1      -1.443  11.868  20.904  0.00  0.00    +0.000 A 
ATOM      3  C   UNL     1      -0.402  11.054  20.442  0.00  0.00    +0.000 A 
ATOM      4  C   UNL     1      -0.479  10.518  19.140  0.00  0.00    +0.000 A 
ATOM      5  C   UNL     1      -1.568  10.837  18.324  0.00  0.00    +0.000 A 
ATOM      6  C   UNL     1      -2.586  11.697  18.771  0.00  0.00    +0.000 A 
ATOM      7  C   UNL     1       0.549   9.579  18.704  0.00  0.00    +0.000 A 
ATOM      8  N   UNL     1       1.177   9.558  17.499  0.00  0.00    +0.000 N 
ATOM      9  N   UNL     1       2.164   8.661  17.424  0.00  0.00    +0.000 NA
ATOM     10  C   UNL     1       2.210   8.102  18.639  0.00  0.00    +0.000 A 
ATOM     11  N   UNL     1       3.133   7.195  19.038  0.00  0.00    +0.000 N 
ATOM     12  C   UNL     1       1.174   8.601  19.470  0.00  0.00    +0.000 A 
ATOM     13  C   UNL     1       0.756   8.268  20.852  0.00  0.00    +0.000 C 
ATOM     14  C   UNL     1       1.021   9.402  21.845  0.00  0.00    +0.000 C 
ATOM     15  C   UNL     1       0.819  10.830  21.313  0.00  0.00    +0.000 C 
ATOM     16  H   UNL     1       1.008  10.156  16.699  0.00  0.00    +0.000 HD
ATOM     17  H   UNL     1       3.025   6.765  19.948  0.00  0.00    +0.000 HD
ENDROOT
BRANCH   1  19
ATOM     18  C   UNL     1      -4.762  12.515  20.761  0.00  0.00    +0.000 C 
ATOM     19  O   UNL     1      -3.483  13.094  20.506  0.00  0.00    +0.000 OA
ENDBRANCH   1  19
BRANCH   6  20
ATOM     20  O   UNL     1      -3.538  11.901  17.808  0.00  0.00    +0.000 OA
ATOM     21  C   UNL     1      -3.497  11.130  16.618  0.00  0.00    +0.000 C 
ENDBRANCH   6  20
BRANCH  11  22
ATOM     22  C   UNL     1       3.692   6.304  18.037  0.00  0.00    +0.000 C 
BRANCH  22  23
ATOM     23  C   UNL     1       3.679   4.857  18.482  0.00  0.00    +0.000 A 
ATOM     24  C   UNL     1       4.783   4.286  19.144  0.00  0.00    +0.000 A 
ATOM     25 CL   UNL     1       6.281   5.132  19.325  0.00  0.00    +0.000 Cl
ATOM     26  C   UNL     1       4.713   2.999  19.694  0.00  0.00    +0.000 A 
ATOM     27  C   UNL     1       3.548   2.246  19.578  0.00  0.00    +0.000 A 
ATOM     28  C   UNL     1       2.468   2.766  18.873  0.00  0.00    +0.000 A 
ATOM     29  C   UNL     1       2.535   4.052  18.320  0.00  0.00    +0.000 A 
ATOM     30 CL   UNL     1       1.139   4.589  17.450  0.00  0.00    +0.000 Cl
ENDBRANCH  22  23
ENDBRANCH  11  22
TORSDOF 4
ENDMDL
MODEL 4
REMARK VINA RESULT:      -7.9      4.261      8.508
REMARK  Name = 
REMARK  6 active torsions:
REMARK  status: ('A' for Active; 'I' for Inactive)
REMARK    1  A    between atoms: C_1  and  O_2
REMARK    2  A    between atoms: O_2  and  C_3
REMARK    3  A    between atoms: C_8  and  O_9
REMARK    4  A    between atoms: O_9  and  C_10
REMARK    5  A    between atoms: N_15  and  C_16
REMARK    6  A    between atoms: C_16  and  C_17
REMARK                            x       y       z     vdW  Elec       q    Type
REMARK                         _______ _______ _______ _____ _____    ______ ____
ROOT
ATOM      1  C   UNL     1       2.188   4.672  18.841  0.00  0.00    +0.000 A 
ATOM      2  C   UNL     1       2.466   5.871  18.165  0.00  0.00    +0.000 A 
ATOM      3  C   UNL     1       2.278   7.113  18.781  0.00  0.00    +0.000 A 
ATOM      4  C   UNL     1       1.710   7.159  20.070  0.00  0.00    +0.000 A 
ATOM      5  C   UNL     1       1.381   5.968  20.723  0.00  0.00    +0.000 A 
ATOM      6  C   UNL     1       1.618   4.719  20.125  0.00  0.00    +0.000 A 
ATOM      7  C   UNL     1       1.411   8.459  20.660  0.00  0.00    +0.000 A 
ATOM      8  N   UNL     1       1.651   8.849  21.940  0.00  0.00    +0.000 N 
ATOM      9  N   UNL     1       1.386  10.138  22.167  0.00  0.00    +0.000 NA
ATOM     10  C   UNL     1       0.996  10.619  20.981  0.00  0.00    +0.000 A 
ATOM     11  N   UNL     1       0.713  11.920  20.730  0.00  0.00    +0.000 N 
ATOM     12  C   UNL     1       0.936   9.590  20.006  0.00  0.00    +0.000 A 
ATOM     13  C   UNL     1       0.509   9.584  18.588  0.00  0.00    +0.000 C 
ATOM     14  C   UNL     1       1.670   9.349  17.617  0.00  0.00    +0.000 C 
ATOM     15  C   UNL     1       2.761   8.373  18.089  0.00  0.00    +0.000 C 
ATOM     16  H   UNL     1       2.034   8.295  22.698  0.00  0.00    +0.000 HD
ATOM     17  H   UNL     1       0.339  12.167  19.822  0.00  0.00    +0.000 HD
ENDROOT
BRANCH   1  19
ATOM     18  C   UNL     1       3.819   3.071  18.197  0.00  0.00    +0.000 C 
ATOM     19  O   UNL     1       2.447   3.459  18.256  0.00  0.00    +0.000 OA
ENDBRANCH   1  19
BRANCH   6  20
ATOM     20  O   UNL     1       1.253   3.685  20.945  0.00  0.00    +0.000 OA
ATOM     21  C   UNL     1       2.251   3.000  21.683  0.00  0.00    +0.000 C 
ENDBRANCH   6  20
BRANCH  11  22
ATOM     22  C   UNL     1       0.185  12.727  21.816  0.00  0.00    +0.000 C 
BRANCH  22  23
ATOM     23  C   UNL     1      -1.281  13.054  21.628  0.00  0.00    +0.000 A 
ATOM     24  C   UNL     1      -1.695  14.078  20.754  0.00  0.00    +0.000 A 
ATOM     25 CL   UNL     1      -0.565  15.141  19.987  0.00  0.00    +0.000 Cl
ATOM     26  C   UNL     1      -3.051  14.278  20.459  0.00  0.00    +0.000 A 
ATOM     27  C   UNL     1      -4.023  13.475  21.047  0.00  0.00    +0.000 A 
ATOM     28  C   UNL     1      -3.642  12.500  21.962  0.00  0.00    +0.000 A 
ATOM     29  C   UNL     1      -2.288  12.299  22.260  0.00  0.00    +0.000 A 
ATOM     30 CL   UNL     1      -1.930  11.071  23.426  0.00  0.00    +0.000 Cl
ENDBRANCH  22  23
ENDBRANCH  11  22
TORSDOF 4
ENDMDL
MODEL 5
REMARK VINA RESULT:      -7.9      1.466      1.724
REMARK  Name = 
REMARK  6 active torsions:
REMARK  status: ('A' for Active; 'I' for Inactive)
REMARK    1  A    between atoms: C_1  and  O_2
REMARK    2  A    between atoms: O_2  and  C_3
REMARK    3  A    between atoms: C_8  and  O_9
REMARK    4  A    between atoms: O_9  and  C_10
REMARK    5  A    between atoms: N_15  and  C_16
REMARK    6  A    between atoms: C_16  and  C_17
REMARK                            x       y       z     vdW  Elec       q    Type
REMARK                         _______ _______ _______ _____ _____    ______ ____
ROOT
ATOM      1  C   UNL     1      -2.341  12.353  20.352  0.00  0.00    +0.000 A 
ATOM      2  C   UNL     1      -1.247  11.948  21.132  0.00  0.00    +0.000 A 
ATOM      3  C   UNL     1      -0.248  11.119  20.609  0.00  0.00    +0.000 A 
ATOM      4  C   UNL     1      -0.396  10.608  19.304  0.00  0.00    +0.000 A 
ATOM      5  C   UNL     1      -1.513  10.965  18.545  0.00  0.00    +0.000 A 
ATOM      6  C   UNL     1      -2.490  11.840  19.052  0.00  0.00    +0.000 A 
ATOM      7  C   UNL     1       0.589   9.654  18.806  0.00  0.00    +0.000 A 
ATOM      8  N   UNL     1       1.161   9.640  17.574  0.00  0.00    +0.000 N 
ATOM      9  N   UNL     1       2.123   8.723  17.439  0.00  0.00    +0.000 NA
ATOM     10  C   UNL     1       2.211   8.142  18.641  0.00  0.00    +0.000 A 
ATOM     11  N   UNL     1       3.130   7.207  18.982  0.00  0.00    +0.000 N 
ATOM     12  C   UNL     1       1.226   8.650  19.527  0.00  0.00    +0.000 A 
ATOM     13  C   UNL     1       0.864   8.301  20.920  0.00  0.00    +0.000 C 
ATOM     14  C   UNL     1       1.200   9.412  21.919  0.00  0.00    +0.000 C 
ATOM     15  C   UNL     1       1.006  10.853  21.420  0.00  0.00    +0.000 C 
ATOM     16  H   UNL     1       0.970  10.256  16.792  0.00  0.00    +0.000 HD
ATOM     17  H   UNL     1       3.054   6.764  19.889  0.00  0.00    +0.000 HD
ENDROOT
BRANCH   1  19
ATOM     18  C   UNL     1      -4.457  12.639  21.389  0.00  0.00    +0.000 C 
ATOM     19  O   UNL     1      -3.274  13.226  20.849  0.00  0.00    +0.000 OA
ENDBRANCH   1  19
BRANCH   6  20
ATOM     20  O   UNL     1      -3.479  12.082  18.137  0.00  0.00    +0.000 OA
ATOM     21  C   UNL     1      -3.984  11.008  17.360  0.00  0.00    +0.000 C 
ENDBRANCH   6  20
BRANCH  11  22
ATOM     22  C   UNL     1       3.623   6.322  17.941  0.00  0.00    +0.000 C 
BRANCH  22  23
ATOM     23  C   UNL     1       3.609   4.870  18.368  0.00  0.00    +0.000 A 
ATOM     24  C   UNL     1       2.516   4.032  18.075  0.00  0.00    +0.000 A 
ATOM     25 CL   UNL     1       1.053   4.643  17.381  0.00  0.00    +0.000 Cl
ATOM     26  C   UNL     1       2.568   2.654  18.328  0.00  0.00    +0.000 A 
ATOM     27  C   UNL     1       3.703   2.087  18.899  0.00  0.00    +0.000 A 
ATOM     28  C   UNL     1       4.769   2.905  19.255  0.00  0.00    +0.000 A 
ATOM     29  C   UNL     1       4.720   4.283  19.005  0.00  0.00    +0.000 A 
ATOM     30 CL   UNL     1       6.096   5.206  19.505  0.00  0.00    +0.000 Cl
ENDBRANCH  22  23
ENDBRANCH  11  22
TORSDOF 4
ENDMDL
MODEL 6
REMARK VINA RESULT:      -7.8      1.853      3.146
REMARK  Name = 
REMARK  6 active torsions:
REMARK  status: ('A' for Active; 'I' for Inactive)
REMARK    1  A    between atoms: C_1  and  O_2
REMARK    2  A    between atoms: O_2  and  C_3
REMARK    3  A    between atoms: C_8  and  O_9
REMARK    4  A    between atoms: O_9  and  C_10
REMARK    5  A    between atoms: N_15  and  C_16
REMARK    6  A    between atoms: C_16  and  C_17
REMARK                            x       y       z     vdW  Elec       q    Type
REMARK                         _______ _______ _______ _____ _____    ______ ____
ROOT
ATOM      1  C   UNL     1      -1.696  13.545  20.642  0.00  0.00    +0.000 A 
ATOM      2  C   UNL     1      -1.869  12.600  19.618  0.00  0.00    +0.000 A 
ATOM      3  C   UNL     1      -1.194  11.374  19.638  0.00  0.00    +0.000 A 
ATOM      4  C   UNL     1      -0.253  11.127  20.658  0.00  0.00    +0.000 A 
ATOM      5  C   UNL     1      -0.038  12.089  21.648  0.00  0.00    +0.000 A 
ATOM      6  C   UNL     1      -0.754  13.299  21.656  0.00  0.00    +0.000 A 
ATOM      7  C   UNL     1       0.530   9.897  20.609  0.00  0.00    +0.000 A 
ATOM      8  N   UNL     1       0.813   9.068  21.649  0.00  0.00    +0.000 N 
ATOM      9  N   UNL     1       1.446   7.949  21.286  0.00  0.00    +0.000 NA
ATOM     10  C   UNL     1       1.545   8.031  19.954  0.00  0.00    +0.000 A 
ATOM     11  N   UNL     1       2.045   7.057  19.155  0.00  0.00    +0.000 N 
ATOM     12  C   UNL     1       1.036   9.266  19.478  0.00  0.00    +0.000 A 
ATOM     13  C   UNL     1       0.974   9.864  18.124  0.00  0.00    +0.000 C 
ATOM     14  C   UNL     1      -0.455   9.973  17.586  0.00  0.00    +0.000 C 
ATOM     15  C   UNL     1      -1.545  10.309  18.617  0.00  0.00    +0.000 C 
ATOM     16  H   UNL     1       0.567   9.187  22.625  0.00  0.00    +0.000 HD
ATOM     17  H   UNL     1       2.159   7.254  18.169  0.00  0.00    +0.000 HD
ENDROOT
BRANCH   1  19
ATOM     18  C   UNL     1      -3.762  14.610  21.122  0.00  0.00    +0.000 C 
ATOM     19  O   UNL     1      -2.418  14.709  20.653  0.00  0.00    +0.000 OA
ENDBRANCH   1  19
BRANCH   6  20
ATOM     20  O   UNL     1      -0.414  14.083  22.726  0.00  0.00    +0.000 OA
ATOM     21  C   UNL     1      -1.280  14.138  23.848  0.00  0.00    +0.000 C 
ENDBRANCH   6  20
BRANCH  11  22
ATOM     22  C   UNL     1       3.073   6.188  19.700  0.00  0.00    +0.000 C 
BRANCH  22  23
ATOM     23  C   UNL     1       3.058   4.814  19.065  0.00  0.00    +0.000 A 
ATOM     24  C   UNL     1       2.132   3.832  19.467  0.00  0.00    +0.000 A 
ATOM     25 CL   UNL     1       1.084   4.063  20.825  0.00  0.00    +0.000 Cl
ATOM     26  C   UNL     1       2.014   2.618  18.777  0.00  0.00    +0.000 A 
ATOM     27  C   UNL     1       2.830   2.349  17.683  0.00  0.00    +0.000 A 
ATOM     28  C   UNL     1       3.795   3.277  17.308  0.00  0.00    +0.000 A 
ATOM     29  C   UNL     1       3.918   4.491  17.997  0.00  0.00    +0.000 A 
ATOM     30 CL   UNL     1       5.164   5.562  17.454  0.00  0.00    +0.000 Cl
ENDBRANCH  22  23
ENDBRANCH  11  22
TORSDOF 4
ENDMDL
MODEL 7
REMARK VINA RESULT:      -7.7      4.185      8.249
REMARK  Name = 
REMARK  6 active torsions:
REMARK  status: ('A' for Active; 'I' for Inactive)
REMARK    1  A    between atoms: C_1  and  O_2
REMARK    2  A    between atoms: O_2  and  C_3
REMARK    3  A    between atoms: C_8  and  O_9
REMARK    4  A    between atoms: O_9  and  C_10
REMARK    5  A    between atoms: N_15  and  C_16
REMARK    6  A    between atoms: C_16  and  C_17
REMARK                            x       y       z     vdW  Elec       q    Type
REMARK                         _______ _______ _______ _____ _____    ______ ____
ROOT
ATOM      1  C   UNL     1       2.563   4.456  18.955  0.00  0.00    +0.000 A 
ATOM      2  C   UNL     1       2.889   5.644  18.282  0.00  0.00    +0.000 A 
ATOM      3  C   UNL     1       2.572   6.896  18.820  0.00  0.00    +0.000 A 
ATOM      4  C   UNL     1       1.827   6.959  20.015  0.00  0.00    +0.000 A 
ATOM      5  C   UNL     1       1.452   5.776  20.658  0.00  0.00    +0.000 A 
ATOM      6  C   UNL     1       1.817   4.520  20.144  0.00  0.00    +0.000 A 
ATOM      7  C   UNL     1       1.401   8.263  20.511  0.00  0.00    +0.000 A 
ATOM      8  N   UNL     1       1.445   8.701  21.796  0.00  0.00    +0.000 N 
ATOM      9  N   UNL     1       1.105   9.985  21.937  0.00  0.00    +0.000 NA
ATOM     10  C   UNL     1       0.868  10.413  20.692  0.00  0.00    +0.000 A 
ATOM     11  N   UNL     1       0.577  11.693  20.357  0.00  0.00    +0.000 N 
ATOM     12  C   UNL     1       0.983   9.353  19.756  0.00  0.00    +0.000 A 
ATOM     13  C   UNL     1       0.760   9.286  18.293  0.00  0.00    +0.000 C 
ATOM     14  C   UNL     1       2.054   9.069  17.503  0.00  0.00    +0.000 C 
ATOM     15  C   UNL     1       3.102   8.153  18.157  0.00  0.00    +0.000 C 
ATOM     16  H   UNL     1       1.737   8.187  22.620  0.00  0.00    +0.000 HD
ATOM     17  H   UNL     1       0.326  11.896  19.398  0.00  0.00    +0.000 HD
ENDROOT
BRANCH   1  19
ATOM     18  C   UNL     1       4.047   3.248  17.550  0.00  0.00    +0.000 C 
ATOM     19  O   UNL     1       2.944   3.238  18.456  0.00  0.00    +0.000 OA
ENDBRANCH   1  19
BRANCH   6  20
ATOM     20  O   UNL     1       1.377   3.497  20.942  0.00  0.00    +0.000 OA
ATOM     21  C   UNL     1       2.269   2.917  21.880  0.00  0.00    +0.000 C 
ENDBRANCH   6  20
BRANCH  11  22
ATOM     22  C   UNL     1      -0.127  12.510  21.329  0.00  0.00    +0.000 C 
BRANCH  22  23
ATOM     23  C   UNL     1      -1.627  12.486  21.122  0.00  0.00    +0.000 A 
ATOM     24  C   UNL     1      -2.516  12.509  22.214  0.00  0.00    +0.000 A 
ATOM     25 CL   UNL     1      -1.963  12.381  23.849  0.00  0.00    +0.000 Cl
ATOM     26  C   UNL     1      -3.898  12.645  22.022  0.00  0.00    +0.000 A 
ATOM     27  C   UNL     1      -4.424  12.739  20.738  0.00  0.00    +0.000 A 
ATOM     28  C   UNL     1      -3.570  12.653  19.643  0.00  0.00    +0.000 A 
ATOM     29  C   UNL     1      -2.189  12.516  19.831  0.00  0.00    +0.000 A 
ATOM     30 CL   UNL     1      -1.225  12.402  18.398  0.00  0.00    +0.000 Cl
ENDBRANCH  22  23
ENDBRANCH  11  22
TORSDOF 4
ENDMDL
MODEL 8
REMARK VINA RESULT:      -7.7      4.571      8.947
REMARK  Name = 
REMARK  6 active torsions:
REMARK  status: ('A' for Active; 'I' for Inactive)
REMARK    1  A    between atoms: C_1  and  O_2
REMARK    2  A    between atoms: O_2  and  C_3
REMARK    3  A    between atoms: C_8  and  O_9
REMARK    4  A    between atoms: O_9  and  C_10
REMARK    5  A    between atoms: N_15  and  C_16
REMARK    6  A    between atoms: C_16  and  C_17
REMARK                            x       y       z     vdW  Elec       q    Type
REMARK                         _______ _______ _______ _____ _____    ______ ____
ROOT
ATOM      1  C   UNL     1       2.880   6.354  18.298  0.00  0.00    +0.000 A 
ATOM      2  C   UNL     1       2.473   7.648  17.936  0.00  0.00    +0.000 A 
ATOM      3  C   UNL     1       1.872   8.508  18.862  0.00  0.00    +0.000 A 
ATOM      4  C   UNL     1       1.585   8.027  20.156  0.00  0.00    +0.000 A 
ATOM      5  C   UNL     1       1.937   6.720  20.502  0.00  0.00    +0.000 A 
ATOM      6  C   UNL     1       2.589   5.875  19.587  0.00  0.00    +0.000 A 
ATOM      7  C   UNL     1       0.854   8.888  21.079  0.00  0.00    +0.000 A 
ATOM      8  N   UNL     1       1.125   9.087  22.397  0.00  0.00    +0.000 N 
ATOM      9  N   UNL     1       0.364  10.026  22.965  0.00  0.00    +0.000 NA
ATOM     10  C   UNL     1      -0.405  10.488  21.972  0.00  0.00    +0.000 A 
ATOM     11  N   UNL     1      -1.272  11.523  22.084  0.00  0.00    +0.000 N 
ATOM     12  C   UNL     1      -0.180   9.765  20.772  0.00  0.00    +0.000 A 
ATOM     13  C   UNL     1      -0.808   9.836  19.433  0.00  0.00    +0.000 C 
ATOM     14  C   UNL     1       0.141  10.372  18.357  0.00  0.00    +0.000 C 
ATOM     15  C   UNL     1       1.615   9.955  18.485  0.00  0.00    +0.000 C 
ATOM     16  H   UNL     1       1.842   8.643  22.958  0.00  0.00    +0.000 HD
ATOM     17  H   UNL     1      -1.874  11.736  21.298  0.00  0.00    +0.000 HD
ENDROOT
BRANCH   1  19
ATOM     18  C   UNL     1       4.958   5.677  17.371  0.00  0.00    +0.000 C 
ATOM     19  O   UNL     1       3.537   5.548  17.405  0.00  0.00    +0.000 OA
ENDBRANCH   1  19
BRANCH   6  20
ATOM     20  O   UNL     1       2.872   4.653  20.137  0.00  0.00    +0.000 OA
ATOM     21  C   UNL     1       2.053   4.158  21.184  0.00  0.00    +0.000 C 
ENDBRANCH   6  20
BRANCH  11  22
ATOM     22  C   UNL     1      -1.897  11.755  23.374  0.00  0.00    +0.000 C 
BRANCH  22  23
ATOM     23  C   UNL     1      -2.359  13.187  23.541  0.00  0.00    +0.000 A 
ATOM     24  C   UNL     1      -3.591  13.492  24.150  0.00  0.00    +0.000 A 
ATOM     25 CL   UNL     1      -4.731  12.261  24.576  0.00  0.00    +0.000 Cl
ATOM     26  C   UNL     1      -3.948  14.814  24.446  0.00  0.00    +0.000 A 
ATOM     27  C   UNL     1      -3.093  15.862  24.122  0.00  0.00    +0.000 A 
ATOM     28  C   UNL     1      -1.899  15.590  23.462  0.00  0.00    +0.000 A 
ATOM     29  C   UNL     1      -1.540  14.269  23.163  0.00  0.00    +0.000 A 
ATOM     30 CL   UNL     1      -0.042  14.049  22.325  0.00  0.00    +0.000 Cl
ENDBRANCH  22  23
ENDBRANCH  11  22
TORSDOF 4
ENDMDL
MODEL 9
REMARK VINA RESULT:      -7.7      4.223      8.494
REMARK  Name = 
REMARK  6 active torsions:
REMARK  status: ('A' for Active; 'I' for Inactive)
REMARK    1  A    between atoms: C_1  and  O_2
REMARK    2  A    between atoms: O_2  and  C_3
REMARK    3  A    between atoms: C_8  and  O_9
REMARK    4  A    between atoms: O_9  and  C_10
REMARK    5  A    between atoms: N_15  and  C_16
REMARK    6  A    between atoms: C_16  and  C_17
REMARK                            x       y       z     vdW  Elec       q    Type
REMARK                         _______ _______ _______ _____ _____    ______ ____
ROOT
ATOM      1  C   UNL     1       3.058   4.826  18.852  0.00  0.00    +0.000 A 
ATOM      2  C   UNL     1       3.081   6.054  18.172  0.00  0.00    +0.000 A 
ATOM      3  C   UNL     1       2.610   7.228  18.773  0.00  0.00    +0.000 A 
ATOM      4  C   UNL     1       2.015   7.152  20.049  0.00  0.00    +0.000 A 
ATOM      5  C   UNL     1       1.940   5.921  20.705  0.00  0.00    +0.000 A 
ATOM      6  C   UNL     1       2.461   4.752  20.123  0.00  0.00    +0.000 A 
ATOM      7  C   UNL     1       1.423   8.356  20.620  0.00  0.00    +0.000 A 
ATOM      8  N   UNL     1       1.541   8.795  21.901  0.00  0.00    +0.000 N 
ATOM      9  N   UNL     1       0.993   9.995  22.110  0.00  0.00    +0.000 NA
ATOM     10  C   UNL     1       0.535  10.374  20.911  0.00  0.00    +0.000 A 
ATOM     11  N   UNL     1      -0.021  11.579  20.643  0.00  0.00    +0.000 N 
ATOM     12  C   UNL     1       0.726   9.353  19.945  0.00  0.00    +0.000 A 
ATOM     13  C   UNL     1       0.345   9.247  18.518  0.00  0.00    +0.000 C 
ATOM     14  C   UNL     1       1.552   9.270  17.576  0.00  0.00    +0.000 C 
ATOM     15  C   UNL     1       2.819   8.561  18.080  0.00  0.00    +0.000 C 
ATOM     16  H   UNL     1       2.018   8.342  22.672  0.00  0.00    +0.000 HD
ATOM     17  H   UNL     1      -0.418  11.734  19.725  0.00  0.00    +0.000 HD
ENDROOT
BRANCH   1  19
ATOM     18  C   UNL     1       2.683   2.871  17.558  0.00  0.00    +0.000 C 
ATOM     19  O   UNL     1       3.591   3.699  18.285  0.00  0.00    +0.000 OA
ENDBRANCH   1  19
BRANCH   6  20
ATOM     20  O   UNL     1       2.313   3.666  20.943  0.00  0.00    +0.000 OA
ATOM     21  C   UNL     1       1.077   2.971  20.957  0.00  0.00    +0.000 C 
ENDBRANCH   6  20
BRANCH  11  22
ATOM     22  C   UNL     1      -0.739  12.254  21.709  0.00  0.00    +0.000 C 
BRANCH  22  23
ATOM     23  C   UNL     1      -2.194  12.490  21.362  0.00  0.00    +0.000 A 
ATOM     24  C   UNL     1      -2.633  12.506  20.024  0.00  0.00    +0.000 A 
ATOM     25 CL   UNL     1      -1.526  12.444  18.696  0.00  0.00    +0.000 Cl
ATOM     26  C   UNL     1      -3.997  12.568  19.708  0.00  0.00    +0.000 A 
ATOM     27  C   UNL     1      -4.951  12.635  20.719  0.00  0.00    +0.000 A 
ATOM     28  C   UNL     1      -4.536  12.685  22.046  0.00  0.00    +0.000 A 
ATOM     29  C   UNL     1      -3.174  12.626  22.365  0.00  0.00    +0.000 A 
ATOM     30 CL   UNL     1      -2.773  12.713  24.046  0.00  0.00    +0.000 Cl
ENDBRANCH  22  23
ENDBRANCH  11  22
TORSDOF 4
ENDMDL
