MODEL 1
REMARK VINA RESULT:      -9.0      0.000      0.000
REMARK  Name = 
REMARK  10 active torsions:
REMARK  status: ('A' for Active; 'I' for Inactive)
REMARK    1  A    between atoms: C_1  and  C_2
REMARK    2  A    between atoms: C_4  and  C_5
REMARK    3  A    between atoms: C_18  and  C_19
REMARK    4  A    between atoms: C_19  and  O_20
REMARK    5  A    between atoms: C_19  and  C_21
REMARK    6  A    between atoms: C_23  and  C_24
REMARK    7  A    between atoms: C_24  and  O_25
REMARK    8  A    between atoms: C_26  and  O_27
REMARK    9  A    between atoms: C_28  and  O_29
REMARK   10  A    between atoms: C_30  and  O_31
REMARK                            x       y       z     vdW  Elec       q    Type
REMARK                         _______ _______ _______ _____ _____    ______ ____
ROOT
ATOM      1  C   UNL     1       2.462   4.524  21.031  0.00  0.00    +0.000 C 
ATOM      2  C   UNL     1       2.272   5.842  20.315  0.00  0.00    +0.000 A 
ATOM      3  C   UNL     1       1.430   6.802  20.939  0.00  0.00    +0.000 A 
ATOM      4  C   UNL     1       1.262   8.117  20.448  0.00  0.00    +0.000 A 
ATOM      5  C   UNL     1       2.014   8.445  19.310  0.00  0.00    +0.000 A 
ATOM      6  C   UNL     1       2.802   7.498  18.643  0.00  0.00    +0.000 A 
ATOM      7  C   UNL     1       2.901   6.174  19.096  0.00  0.00    +0.000 A 
ENDROOT
BRANCH   4   8
ATOM      8  C   UNL     1       0.374   9.129  21.098  0.00  0.00    +0.000 A 
ATOM      9  C   UNL     1       0.099   9.099  22.479  0.00  0.00    +0.000 A 
ATOM     10  C   UNL     1      -0.692  10.075  23.111  0.00  0.00    +0.000 A 
ATOM     11  C   UNL     1      -1.231  11.130  22.380  0.00  0.00    +0.000 A 
ATOM     12  C   UNL     1      -2.039  12.175  23.026  0.00  0.00    +0.000 A 
ATOM     13  C   UNL     1      -2.522  13.175  22.280  0.00  0.00    +0.000 A 
ATOM     14  N   UNL     1      -2.272  13.255  20.932  0.00  0.00    +0.000 N 
ATOM     15  C   UNL     1      -1.531  12.329  20.217  0.00  0.00    +0.000 A 
ATOM     16  O   UNL     1      -1.333  12.438  19.013  0.00  0.00    +0.000 OA
ATOM     17  C   UNL     1      -0.981  11.189  21.003  0.00  0.00    +0.000 A 
ATOM     18  C   UNL     1      -0.211  10.190  20.373  0.00  0.00    +0.000 A 
ATOM     19  H   UNL     1      -2.657  14.018  20.388  0.00  0.00    +0.000 HD
ENDBRANCH   4   8
BRANCH   7  20
ATOM     20  C   UNL     1       3.544   5.160  18.146  0.00  0.00    +0.000 C 
BRANCH  20  21
ATOM     21  C   UNL     1       4.691   5.851  17.349  0.00  0.00    +0.000 C 
ATOM     22  O   UNL     1       5.765   6.313  18.173  0.00  0.00    +0.000 OA
ATOM     23  C   UNL     1       6.787   5.366  18.486  0.00  0.00    +0.000 C 
ATOM     24  C   UNL     1       7.500   4.900  17.212  0.00  0.00    +0.000 C 
ATOM     25  C   UNL     1       6.502   4.395  16.153  0.00  0.00    +0.000 C 
ATOM     26  C   UNL     1       5.150   5.123  16.075  0.00  0.00    +0.000 C 
BRANCH  24  27
ATOM     27  O   UNL     1       8.378   3.804  17.531  0.00  0.00    +0.000 OA
ATOM     28  H   UNL     1       8.242   3.550  18.459  0.00  0.00    +0.000 HD
ENDBRANCH  24  27
BRANCH  25  29
ATOM     29  O   UNL     1       7.124   4.438  14.847  0.00  0.00    +0.000 OA
ATOM     30  H   UNL     1       6.664   5.148  14.358  0.00  0.00    +0.000 HD
ENDBRANCH  25  29
BRANCH  26  31
ATOM     31  O   UNL     1       5.223   6.063  14.968  0.00  0.00    +0.000 OA
ATOM     32  H   UNL     1       5.239   6.968  15.326  0.00  0.00    +0.000 HD
ENDBRANCH  26  31
BRANCH  23  33
ATOM     33  C   UNL     1       7.753   6.111  19.431  0.00  0.00    +0.000 C 
BRANCH  33  34
ATOM     34  O   UNL     1       8.063   5.287  20.559  0.00  0.00    +0.000 OA
ATOM     35  H   UNL     1       7.236   4.800  20.748  0.00  0.00    +0.000 HD
ENDBRANCH  33  34
ENDBRANCH  23  33
ENDBRANCH  20  21
BRANCH  20  36
ATOM     36  O   UNL     1       2.582   4.577  17.268  0.00  0.00    +0.000 OA
ATOM     37  H   UNL     1       2.482   3.636  17.492  0.00  0.00    +0.000 HD
ENDBRANCH  20  36
ENDBRANCH   7  20
TORSDOF 9
ENDMDL
MODEL 2
REMARK VINA RESULT:      -8.6      1.214      1.800
REMARK  Name = 
REMARK  10 active torsions:
REMARK  status: ('A' for Active; 'I' for Inactive)
REMARK    1  A    between atoms: C_1  and  C_2
REMARK    2  A    between atoms: C_4  and  C_5
REMARK    3  A    between atoms: C_18  and  C_19
REMARK    4  A    between atoms: C_19  and  O_20
REMARK    5  A    between atoms: C_19  and  C_21
REMARK    6  A    between atoms: C_23  and  C_24
REMARK    7  A    between atoms: C_24  and  O_25
REMARK    8  A    between atoms: C_26  and  O_27
REMARK    9  A    between atoms: C_28  and  O_29
REMARK   10  A    between atoms: C_30  and  O_31
REMARK                            x       y       z     vdW  Elec       q    Type
REMARK                         _______ _______ _______ _____ _____    ______ ____
ROOT
ATOM      1  C   UNL     1       2.234   5.665  20.894  0.00  0.00    +0.000 C 
ATOM      2  C   UNL     1       2.124   6.755  19.851  0.00  0.00    +0.000 A 
ATOM      3  C   UNL     1       1.199   7.802  20.105  0.00  0.00    +0.000 A 
ATOM      4  C   UNL     1       1.080   8.945  19.282  0.00  0.00    +0.000 A 
ATOM      5  C   UNL     1       1.971   9.012  18.199  0.00  0.00    +0.000 A 
ATOM      6  C   UNL     1       2.848   7.966  17.895  0.00  0.00    +0.000 A 
ATOM      7  C   UNL     1       2.903   6.801  18.675  0.00  0.00    +0.000 A 
ENDROOT
BRANCH   4   8
ATOM      8  C   UNL     1       0.104  10.047  19.543  0.00  0.00    +0.000 A 
ATOM      9  C   UNL     1      -0.675  10.609  18.513  0.00  0.00    +0.000 A 
ATOM     10  C   UNL     1      -1.633  11.609  18.754  0.00  0.00    +0.000 A 
ATOM     11  C   UNL     1      -1.856  12.079  20.047  0.00  0.00    +0.000 A 
ATOM     12  C   UNL     1      -2.872  13.105  20.324  0.00  0.00    +0.000 A 
ATOM     13  C   UNL     1      -3.056  13.511  21.586  0.00  0.00    +0.000 A 
ATOM     14  N   UNL     1      -2.329  12.985  22.625  0.00  0.00    +0.000 N 
ATOM     15  C   UNL     1      -1.346  12.020  22.484  0.00  0.00    +0.000 A 
ATOM     16  O   UNL     1      -0.720  11.579  23.440  0.00  0.00    +0.000 OA
ATOM     17  C   UNL     1      -1.096  11.544  21.095  0.00  0.00    +0.000 A 
ATOM     18  C   UNL     1      -0.117  10.563  20.839  0.00  0.00    +0.000 A 
ATOM     19  H   UNL     1      -2.482  13.315  23.571  0.00  0.00    +0.000 HD
ENDBRANCH   4   8
BRANCH   7  20
ATOM     20  C   UNL     1       3.675   5.611  18.097  0.00  0.00    +0.000 C 
BRANCH  20  21
ATOM     21  C   UNL     1       4.869   6.134  17.244  0.00  0.00    +0.000 C 
ATOM     22  O   UNL     1       5.992   6.554  18.024  0.00  0.00    +0.000 OA
ATOM     23  C   UNL     1       6.928   5.542  18.399  0.00  0.00    +0.000 C 
ATOM     24  C   UNL     1       7.578   4.921  17.157  0.00  0.00    +0.000 C 
ATOM     25  C   UNL     1       6.523   4.434  16.146  0.00  0.00    +0.000 C 
ATOM     26  C   UNL     1       5.242   5.275  16.024  0.00  0.00    +0.000 C 
BRANCH  24  27
ATOM     27  O   UNL     1       8.356   3.775  17.551  0.00  0.00    +0.000 OA
ATOM     28  H   UNL     1       8.208   3.602  18.496  0.00  0.00    +0.000 HD
ENDBRANCH  24  27
BRANCH  25  29
ATOM     29  O   UNL     1       7.130   4.324  14.836  0.00  0.00    +0.000 OA
ATOM     30  H   UNL     1       7.776   3.594  14.905  0.00  0.00    +0.000 HD
ENDBRANCH  25  29
BRANCH  26  31
ATOM     31  O   UNL     1       5.386   6.121  14.849  0.00  0.00    +0.000 OA
ATOM     32  H   UNL     1       4.500   6.391  14.547  0.00  0.00    +0.000 HD
ENDBRANCH  26  31
BRANCH  23  33
ATOM     33  C   UNL     1       7.971   6.263  19.279  0.00  0.00    +0.000 C 
BRANCH  33  34
ATOM     34  O   UNL     1       8.510   5.351  20.239  0.00  0.00    +0.000 OA
ATOM     35  H   UNL     1       9.443   5.624  20.349  0.00  0.00    +0.000 HD
ENDBRANCH  33  34
ENDBRANCH  23  33
ENDBRANCH  20  21
BRANCH  20  36
ATOM     36  O   UNL     1       2.828   4.754  17.333  0.00  0.00    +0.000 OA
ATOM     37  H   UNL     1       2.145   5.294  16.899  0.00  0.00    +0.000 HD
ENDBRANCH  20  36
ENDBRANCH   7  20
TORSDOF 9
ENDMDL
MODEL 3
REMARK VINA RESULT:      -8.6      1.739      3.004
REMARK  Name = 
REMARK  10 active torsions:
REMARK  status: ('A' for Active; 'I' for Inactive)
REMARK    1  A    between atoms: C_1  and  C_2
REMARK    2  A    between atoms: C_4  and  C_5
REMARK    3  A    between atoms: C_18  and  C_19
REMARK    4  A    between atoms: C_19  and  O_20
REMARK    5  A    between atoms: C_19  and  C_21
REMARK    6  A    between atoms: C_23  and  C_24
REMARK    7  A    between atoms: C_24  and  O_25
REMARK    8  A    between atoms: C_26  and  O_27
REMARK    9  A    between atoms: C_28  and  O_29
REMARK   10  A    between atoms: C_30  and  O_31
REMARK                            x       y       z     vdW  Elec       q    Type
REMARK                         _______ _______ _______ _____ _____    ______ ____
ROOT
ATOM      1  C   UNL     1       1.889   4.474  21.105  0.00  0.00    +0.000 C 
ATOM      2  C   UNL     1       1.938   5.525  20.018  0.00  0.00    +0.000 A 
ATOM      3  C   UNL     1       1.518   6.836  20.366  0.00  0.00    +0.000 A 
ATOM      4  C   UNL     1       1.627   7.941  19.491  0.00  0.00    +0.000 A 
ATOM      5  C   UNL     1       2.220   7.677  18.247  0.00  0.00    +0.000 A 
ATOM      6  C   UNL     1       2.586   6.383  17.859  0.00  0.00    +0.000 A 
ATOM      7  C   UNL     1       2.402   5.281  18.707  0.00  0.00    +0.000 A 
ENDROOT
BRANCH   4   8
ATOM      8  C   UNL     1       1.181   9.322  19.852  0.00  0.00    +0.000 A 
ATOM      9  C   UNL     1       1.313  10.403  18.959  0.00  0.00    +0.000 A 
ATOM     10  C   UNL     1       0.851  11.694  19.266  0.00  0.00    +0.000 A 
ATOM     11  C   UNL     1       0.224  11.950  20.484  0.00  0.00    +0.000 A 
ATOM     12  C   UNL     1      -0.291  13.288  20.814  0.00  0.00    +0.000 A 
ATOM     13  C   UNL     1      -0.897  13.476  21.991  0.00  0.00    +0.000 A 
ATOM     14  N   UNL     1      -1.061  12.451  22.891  0.00  0.00    +0.000 N 
ATOM     15  C   UNL     1      -0.615  11.155  22.691  0.00  0.00    +0.000 A 
ATOM     16  O   UNL     1      -0.780  10.271  23.521  0.00  0.00    +0.000 OA
ATOM     17  C   UNL     1       0.079  10.898  21.398  0.00  0.00    +0.000 A 
ATOM     18  C   UNL     1       0.572   9.613  21.092  0.00  0.00    +0.000 A 
ATOM     19  H   UNL     1      -1.516  12.622  23.779  0.00  0.00    +0.000 HD
ENDBRANCH   4   8
BRANCH   7  20
ATOM     20  C   UNL     1       2.560   3.890  18.087  0.00  0.00    +0.000 C 
BRANCH  20  21
ATOM     21  C   UNL     1       4.068   3.496  18.077  0.00  0.00    +0.000 C 
ATOM     22  O   UNL     1       4.708   3.704  16.815  0.00  0.00    +0.000 OA
ATOM     23  C   UNL     1       5.227   5.011  16.566  0.00  0.00    +0.000 C 
ATOM     24  C   UNL     1       6.326   5.357  17.576  0.00  0.00    +0.000 C 
ATOM     25  C   UNL     1       5.850   5.155  19.026  0.00  0.00    +0.000 C 
ATOM     26  C   UNL     1       4.891   3.981  19.282  0.00  0.00    +0.000 C 
BRANCH  24  27
ATOM     27  O   UNL     1       6.685   6.745  17.432  0.00  0.00    +0.000 OA
ATOM     28  H   UNL     1       6.378   7.234  18.213  0.00  0.00    +0.000 HD
ENDBRANCH  24  27
BRANCH  25  29
ATOM     29  O   UNL     1       7.001   5.007  19.893  0.00  0.00    +0.000 OA
ATOM     30  H   UNL     1       6.656   5.080  20.805  0.00  0.00    +0.000 HD
ENDBRANCH  25  29
BRANCH  26  31
ATOM     31  O   UNL     1       5.679   2.881  19.817  0.00  0.00    +0.000 OA
ATOM     32  H   UNL     1       5.204   2.047  19.653  0.00  0.00    +0.000 HD
ENDBRANCH  26  31
BRANCH  23  33
ATOM     33  C   UNL     1       5.781   4.958  15.126  0.00  0.00    +0.000 C 
BRANCH  33  34
ATOM     34  O   UNL     1       7.132   5.427  15.108  0.00  0.00    +0.000 OA
ATOM     35  H   UNL     1       7.393   5.479  16.050  0.00  0.00    +0.000 HD
ENDBRANCH  33  34
ENDBRANCH  23  33
ENDBRANCH  20  21
BRANCH  20  36
ATOM     36  O   UNL     1       2.002   3.831  16.775  0.00  0.00    +0.000 OA
ATOM     37  H   UNL     1       1.808   4.735  16.476  0.00  0.00    +0.000 HD
ENDBRANCH  20  36
ENDBRANCH   7  20
TORSDOF 9
ENDMDL
MODEL 4
REMARK VINA RESULT:      -8.4      1.538      2.643
REMARK  Name = 
REMARK  10 active torsions:
REMARK  status: ('A' for Active; 'I' for Inactive)
REMARK    1  A    between atoms: C_1  and  C_2
REMARK    2  A    between atoms: C_4  and  C_5
REMARK    3  A    between atoms: C_18  and  C_19
REMARK    4  A    between atoms: C_19  and  O_20
REMARK    5  A    between atoms: C_19  and  C_21
REMARK    6  A    between atoms: C_23  and  C_24
REMARK    7  A    between atoms: C_24  and  O_25
REMARK    8  A    between atoms: C_26  and  O_27
REMARK    9  A    between atoms: C_28  and  O_29
REMARK   10  A    between atoms: C_30  and  O_31
REMARK                            x       y       z     vdW  Elec       q    Type
REMARK                         _______ _______ _______ _____ _____    ______ ____
ROOT
ATOM      1  C   UNL     1       1.960   3.986  21.254  0.00  0.00    +0.000 C 
ATOM      2  C   UNL     1       1.881   5.171  20.317  0.00  0.00    +0.000 A 
ATOM      3  C   UNL     1       1.381   6.388  20.854  0.00  0.00    +0.000 A 
ATOM      4  C   UNL     1       1.367   7.603  20.133  0.00  0.00    +0.000 A 
ATOM      5  C   UNL     1       1.920   7.554  18.844  0.00  0.00    +0.000 A 
ATOM      6  C   UNL     1       2.362   6.355  18.272  0.00  0.00    +0.000 A 
ATOM      7  C   UNL     1       2.300   5.140  18.970  0.00  0.00    +0.000 A 
ENDROOT
BRANCH   4   8
ATOM      8  C   UNL     1       0.838   8.885  20.692  0.00  0.00    +0.000 A 
ATOM      9  C   UNL     1       0.234   8.948  21.963  0.00  0.00    +0.000 A 
ATOM     10  C   UNL     1      -0.220  10.156  22.521  0.00  0.00    +0.000 A 
ATOM     11  C   UNL     1      -0.075  11.355  21.827  0.00  0.00    +0.000 A 
ATOM     12  C   UNL     1      -0.519  12.632  22.405  0.00  0.00    +0.000 A 
ATOM     13  C   UNL     1      -0.343  13.757  21.702  0.00  0.00    +0.000 A 
ATOM     14  N   UNL     1       0.251  13.748  20.464  0.00  0.00    +0.000 N 
ATOM     15  C   UNL     1       0.703  12.609  19.820  0.00  0.00    +0.000 A 
ATOM     16  O   UNL     1       1.227  12.646  18.714  0.00  0.00    +0.000 OA
ATOM     17  C   UNL     1       0.518  11.328  20.559  0.00  0.00    +0.000 A 
ATOM     18  C   UNL     1       0.944  10.108  19.994  0.00  0.00    +0.000 A 
ATOM     19  H   UNL     1       0.365  14.613  19.948  0.00  0.00    +0.000 HD
ENDBRANCH   4   8
BRANCH   7  20
ATOM     20  C   UNL     1       2.532   3.860  18.162  0.00  0.00    +0.000 C 
BRANCH  20  21
ATOM     21  C   UNL     1       4.061   3.572  18.075  0.00  0.00    +0.000 C 
ATOM     22  O   UNL     1       4.626   3.853  16.792  0.00  0.00    +0.000 OA
ATOM     23  C   UNL     1       5.041   5.199  16.554  0.00  0.00    +0.000 C 
ATOM     24  C   UNL     1       6.159   5.598  17.523  0.00  0.00    +0.000 C 
ATOM     25  C   UNL     1       5.767   5.329  18.987  0.00  0.00    +0.000 C 
ATOM     26  C   UNL     1       4.903   4.085  19.254  0.00  0.00    +0.000 C 
BRANCH  24  27
ATOM     27  O   UNL     1       6.415   7.010  17.399  0.00  0.00    +0.000 OA
ATOM     28  H   UNL     1       7.067   7.152  16.693  0.00  0.00    +0.000 HD
ENDBRANCH  24  27
BRANCH  25  29
ATOM     29  O   UNL     1       6.964   5.242  19.797  0.00  0.00    +0.000 OA
ATOM     30  H   UNL     1       7.614   4.754  19.254  0.00  0.00    +0.000 HD
ENDBRANCH  25  29
BRANCH  26  31
ATOM     31  O   UNL     1       5.789   3.032  19.725  0.00  0.00    +0.000 OA
ATOM     32  H   UNL     1       6.580   3.011  19.156  0.00  0.00    +0.000 HD
ENDBRANCH  26  31
BRANCH  23  33
ATOM     33  C   UNL     1       5.530   5.218  15.090  0.00  0.00    +0.000 C 
BRANCH  33  34
ATOM     34  O   UNL     1       6.929   5.514  15.049  0.00  0.00    +0.000 OA
ATOM     35  H   UNL     1       6.984   6.483  15.175  0.00  0.00    +0.000 HD
ENDBRANCH  33  34
ENDBRANCH  23  33
ENDBRANCH  20  21
BRANCH  20  36
ATOM     36  O   UNL     1       1.945   3.941  16.864  0.00  0.00    +0.000 OA
ATOM     37  H   UNL     1       1.407   4.750  16.813  0.00  0.00    +0.000 HD
ENDBRANCH  20  36
ENDBRANCH   7  20
TORSDOF 9
ENDMDL
MODEL 5
REMARK VINA RESULT:      -8.4      5.075      8.338
REMARK  Name = 
REMARK  10 active torsions:
REMARK  status: ('A' for Active; 'I' for Inactive)
REMARK    1  A    between atoms: C_1  and  C_2
REMARK    2  A    between atoms: C_4  and  C_5
REMARK    3  A    between atoms: C_18  and  C_19
REMARK    4  A    between atoms: C_19  and  O_20
REMARK    5  A    between atoms: C_19  and  C_21
REMARK    6  A    between atoms: C_23  and  C_24
REMARK    7  A    between atoms: C_24  and  O_25
REMARK    8  A    between atoms: C_26  and  O_27
REMARK    9  A    between atoms: C_28  and  O_29
REMARK   10  A    between atoms: C_30  and  O_31
REMARK                            x       y       z     vdW  Elec       q    Type
REMARK                         _______ _______ _______ _____ _____    ______ ____
ROOT
ATOM      1  C   UNL     1       8.340   5.193  19.648  0.00  0.00    +0.000 C 
ATOM      2  C   UNL     1       8.009   6.440  18.859  0.00  0.00    +0.000 A 
ATOM      3  C   UNL     1       8.619   7.652  19.280  0.00  0.00    +0.000 A 
ATOM      4  C   UNL     1       8.501   8.865  18.565  0.00  0.00    +0.000 A 
ATOM      5  C   UNL     1       7.765   8.801  17.372  0.00  0.00    +0.000 A 
ATOM      6  C   UNL     1       7.105   7.634  16.969  0.00  0.00    +0.000 A 
ATOM      7  C   UNL     1       7.167   6.456  17.727  0.00  0.00    +0.000 A 
ENDROOT
BRANCH   4   8
ATOM      8  C   UNL     1       9.137  10.144  19.007  0.00  0.00    +0.000 A 
ATOM      9  C   UNL     1       9.250  10.487  20.368  0.00  0.00    +0.000 A 
ATOM     10  C   UNL     1       9.892  11.661  20.798  0.00  0.00    +0.000 A 
ATOM     11  C   UNL     1      10.459  12.537  19.874  0.00  0.00    +0.000 A 
ATOM     12  C   UNL     1      11.158  13.757  20.305  0.00  0.00    +0.000 A 
ATOM     13  C   UNL     1      11.696  14.556  19.376  0.00  0.00    +0.000 A 
ATOM     14  N   UNL     1      11.622  14.260  18.038  0.00  0.00    +0.000 N 
ATOM     15  C   UNL     1      10.988  13.144  17.517  0.00  0.00    +0.000 A 
ATOM     16  O   UNL     1      10.944  12.919  16.314  0.00  0.00    +0.000 OA
ATOM     17  C   UNL     1      10.361  12.229  18.511  0.00  0.00    +0.000 A 
ATOM     18  C   UNL     1       9.690  11.063  18.088  0.00  0.00    +0.000 A 
ATOM     19  H   UNL     1      12.031  14.886  17.355  0.00  0.00    +0.000 HD
ENDBRANCH   4   8
BRANCH   7  20
ATOM     20  C   UNL     1       6.187   5.338  17.358  0.00  0.00    +0.000 C 
BRANCH  20  21
ATOM     21  C   UNL     1       5.455   4.846  18.643  0.00  0.00    +0.000 C 
ATOM     22  O   UNL     1       4.555   5.810  19.197  0.00  0.00    +0.000 OA
ATOM     23  C   UNL     1       3.231   5.834  18.662  0.00  0.00    +0.000 C 
ATOM     24  C   UNL     1       2.520   4.502  18.922  0.00  0.00    +0.000 C 
ATOM     25  C   UNL     1       3.356   3.305  18.433  0.00  0.00    +0.000 C 
ATOM     26  C   UNL     1       4.882   3.421  18.579  0.00  0.00    +0.000 C 
BRANCH  24  27
ATOM     27  O   UNL     1       1.274   4.479  18.201  0.00  0.00    +0.000 OA
ATOM     28  H   UNL     1       0.988   3.557  18.093  0.00  0.00    +0.000 HD
ENDBRANCH  24  27
BRANCH  25  29
ATOM     29  O   UNL     1       2.918   2.103  19.113  0.00  0.00    +0.000 OA
ATOM     30  H   UNL     1       3.727   1.703  19.489  0.00  0.00    +0.000 HD
ENDBRANCH  25  29
BRANCH  26  31
ATOM     31  O   UNL     1       5.264   2.680  19.771  0.00  0.00    +0.000 OA
ATOM     32  H   UNL     1       4.993   3.188  20.556  0.00  0.00    +0.000 HD
ENDBRANCH  26  31
BRANCH  23  33
ATOM     33  C   UNL     1       2.525   7.001  19.384  0.00  0.00    +0.000 C 
BRANCH  33  34
ATOM     34  O   UNL     1       1.859   6.517  20.553  0.00  0.00    +0.000 OA
ATOM     35  H   UNL     1       1.770   5.553  20.412  0.00  0.00    +0.000 HD
ENDBRANCH  33  34
ENDBRANCH  23  33
ENDBRANCH  20  21
BRANCH  20  36
ATOM     36  O   UNL     1       6.842   4.261  16.691  0.00  0.00    +0.000 OA
ATOM     37  H   UNL     1       7.502   4.626  16.078  0.00  0.00    +0.000 HD
ENDBRANCH  20  36
ENDBRANCH   7  20
TORSDOF 9
ENDMDL
MODEL 6
REMARK VINA RESULT:      -8.4      3.269     10.041
REMARK  Name = 
REMARK  10 active torsions:
REMARK  status: ('A' for Active; 'I' for Inactive)
REMARK    1  A    between atoms: C_1  and  C_2
REMARK    2  A    between atoms: C_4  and  C_5
REMARK    3  A    between atoms: C_18  and  C_19
REMARK    4  A    between atoms: C_19  and  O_20
REMARK    5  A    between atoms: C_19  and  C_21
REMARK    6  A    between atoms: C_23  and  C_24
REMARK    7  A    between atoms: C_24  and  O_25
REMARK    8  A    between atoms: C_26  and  O_27
REMARK    9  A    between atoms: C_28  and  O_29
REMARK   10  A    between atoms: C_30  and  O_31
REMARK                            x       y       z     vdW  Elec       q    Type
REMARK                         _______ _______ _______ _____ _____    ______ ____
ROOT
ATOM      1  C   UNL     1       0.371   8.521  22.128  0.00  0.00    +0.000 C 
ATOM      2  C   UNL     1       0.977   8.842  20.780  0.00  0.00    +0.000 A 
ATOM      3  C   UNL     1       1.744   7.822  20.156  0.00  0.00    +0.000 A 
ATOM      4  C   UNL     1       2.263   7.938  18.846  0.00  0.00    +0.000 A 
ATOM      5  C   UNL     1       1.942   9.121  18.164  0.00  0.00    +0.000 A 
ATOM      6  C   UNL     1       1.239  10.164  18.779  0.00  0.00    +0.000 A 
ATOM      7  C   UNL     1       0.795  10.069  20.107  0.00  0.00    +0.000 A 
ENDROOT
BRANCH   4   8
ATOM      8  C   UNL     1       3.076   6.869  18.188  0.00  0.00    +0.000 A 
ATOM      9  C   UNL     1       2.556   5.584  17.942  0.00  0.00    +0.000 A 
ATOM     10  C   UNL     1       3.292   4.588  17.278  0.00  0.00    +0.000 A 
ATOM     11  C   UNL     1       4.582   4.848  16.820  0.00  0.00    +0.000 A 
ATOM     12  C   UNL     1       5.358   3.828  16.099  0.00  0.00    +0.000 A 
ATOM     13  C   UNL     1       6.587   4.135  15.669  0.00  0.00    +0.000 A 
ATOM     14  N   UNL     1       7.134   5.377  15.873  0.00  0.00    +0.000 N 
ATOM     15  C   UNL     1       6.500   6.412  16.541  0.00  0.00    +0.000 A 
ATOM     16  O   UNL     1       7.026   7.506  16.702  0.00  0.00    +0.000 OA
ATOM     17  C   UNL     1       5.132   6.115  17.050  0.00  0.00    +0.000 A 
ATOM     18  C   UNL     1       4.397   7.098  17.744  0.00  0.00    +0.000 A 
ATOM     19  H   UNL     1       8.071   5.582  15.544  0.00  0.00    +0.000 HD
ENDBRANCH   4   8
BRANCH   7  20
ATOM     20  C   UNL     1       0.301  11.358  20.770  0.00  0.00    +0.000 C 
BRANCH  20  21
ATOM     21  C   UNL     1      -0.749  12.046  19.845  0.00  0.00    +0.000 C 
ATOM     22  O   UNL     1      -2.071  12.063  20.391  0.00  0.00    +0.000 OA
ATOM     23  C   UNL     1      -2.390  13.144  21.268  0.00  0.00    +0.000 C 
ATOM     24  C   UNL     1      -2.300  14.484  20.528  0.00  0.00    +0.000 C 
ATOM     25  C   UNL     1      -0.944  14.652  19.818  0.00  0.00    +0.000 C 
ATOM     26  C   UNL     1      -0.313  13.383  19.223  0.00  0.00    +0.000 C 
BRANCH  24  27
ATOM     27  O   UNL     1      -2.425  15.560  21.477  0.00  0.00    +0.000 OA
ATOM     28  H   UNL     1      -3.224  15.420  22.010  0.00  0.00    +0.000 HD
ENDBRANCH  24  27
BRANCH  25  29
ATOM     29  O   UNL     1      -1.071  15.640  18.767  0.00  0.00    +0.000 OA
ATOM     30  H   UNL     1      -0.220  16.120  18.752  0.00  0.00    +0.000 HD
ENDBRANCH  25  29
BRANCH  26  31
ATOM     31  O   UNL     1      -0.599  13.381  17.796  0.00  0.00    +0.000 OA
ATOM     32  H   UNL     1      -0.364  12.509  17.432  0.00  0.00    +0.000 HD
ENDBRANCH  26  31
BRANCH  23  33
ATOM     33  C   UNL     1      -3.829  12.862  21.749  0.00  0.00    +0.000 C 
BRANCH  33  34
ATOM     34  O   UNL     1      -4.225  13.852  22.703  0.00  0.00    +0.000 OA
ATOM     35  H   UNL     1      -5.064  13.517  23.079  0.00  0.00    +0.000 HD
ENDBRANCH  33  34
ENDBRANCH  23  33
ENDBRANCH  20  21
BRANCH  20  36
ATOM     36  O   UNL     1       1.379  12.241  21.076  0.00  0.00    +0.000 OA
ATOM     37  H   UNL     1       1.443  12.912  20.375  0.00  0.00    +0.000 HD
ENDBRANCH  20  36
ENDBRANCH   7  20
TORSDOF 9
ENDMDL
MODEL 7
REMARK VINA RESULT:      -8.4      4.835      7.846
REMARK  Name = 
REMARK  10 active torsions:
REMARK  status: ('A' for Active; 'I' for Inactive)
REMARK    1  A    between atoms: C_1  and  C_2
REMARK    2  A    between atoms: C_4  and  C_5
REMARK    3  A    between atoms: C_18  and  C_19
REMARK    4  A    between atoms: C_19  and  O_20
REMARK    5  A    between atoms: C_19  and  C_21
REMARK    6  A    between atoms: C_23  and  C_24
REMARK    7  A    between atoms: C_24  and  O_25
REMARK    8  A    between atoms: C_26  and  O_27
REMARK    9  A    between atoms: C_28  and  O_29
REMARK   10  A    between atoms: C_30  and  O_31
REMARK                            x       y       z     vdW  Elec       q    Type
REMARK                         _______ _______ _______ _____ _____    ______ ____
ROOT
ATOM      1  C   UNL     1       5.136   7.167  16.269  0.00  0.00    +0.000 C 
ATOM      2  C   UNL     1       6.363   7.271  17.146  0.00  0.00    +0.000 A 
ATOM      3  C   UNL     1       7.002   8.538  17.217  0.00  0.00    +0.000 A 
ATOM      4  C   UNL     1       8.080   8.812  18.090  0.00  0.00    +0.000 A 
ATOM      5  C   UNL     1       8.471   7.756  18.928  0.00  0.00    +0.000 A 
ATOM      6  C   UNL     1       7.897   6.483  18.833  0.00  0.00    +0.000 A 
ATOM      7  C   UNL     1       6.879   6.202  17.909  0.00  0.00    +0.000 A 
ENDROOT
BRANCH   4   8
ATOM      8  C   UNL     1       8.759  10.142  18.164  0.00  0.00    +0.000 A 
ATOM      9  C   UNL     1      10.137  10.260  18.430  0.00  0.00    +0.000 A 
ATOM     10  C   UNL     1      10.796  11.502  18.451  0.00  0.00    +0.000 A 
ATOM     11  C   UNL     1      10.097  12.679  18.193  0.00  0.00    +0.000 A 
ATOM     12  C   UNL     1      10.773  13.984  18.185  0.00  0.00    +0.000 A 
ATOM     13  C   UNL     1      10.057  15.082  17.917  0.00  0.00    +0.000 A 
ATOM     14  N   UNL     1       8.714  15.018  17.640  0.00  0.00    +0.000 N 
ATOM     15  C   UNL     1       7.973  13.848  17.625  0.00  0.00    +0.000 A 
ATOM     16  O   UNL     1       6.774  13.836  17.374  0.00  0.00    +0.000 OA
ATOM     17  C   UNL     1       8.724  12.598  17.929  0.00  0.00    +0.000 A 
ATOM     18  C   UNL     1       8.065  11.352  17.939  0.00  0.00    +0.000 A 
ATOM     19  H   UNL     1       8.192  15.866  17.449  0.00  0.00    +0.000 HD
ENDBRANCH   4   8
BRANCH   7  20
ATOM     20  C   UNL     1       6.529   4.728  17.686  0.00  0.00    +0.000 C 
BRANCH  20  21
ATOM     21  C   UNL     1       5.516   4.266  18.777  0.00  0.00    +0.000 C 
ATOM     22  O   UNL     1       4.554   5.264  19.127  0.00  0.00    +0.000 OA
ATOM     23  C   UNL     1       3.381   5.338  18.316  0.00  0.00    +0.000 C 
ATOM     24  C   UNL     1       2.580   4.034  18.405  0.00  0.00    +0.000 C 
ATOM     25  C   UNL     1       3.457   2.806  18.102  0.00  0.00    +0.000 C 
ATOM     26  C   UNL     1       4.917   2.864  18.579  0.00  0.00    +0.000 C 
BRANCH  24  27
ATOM     27  O   UNL     1       1.522   4.058  17.428  0.00  0.00    +0.000 OA
ATOM     28  H   UNL     1       1.045   4.902  17.499  0.00  0.00    +0.000 HD
ENDBRANCH  24  27
BRANCH  25  29
ATOM     29  O   UNL     1       2.836   1.623  18.662  0.00  0.00    +0.000 OA
ATOM     30  H   UNL     1       3.362   1.399  19.455  0.00  0.00    +0.000 HD
ENDBRANCH  25  29
BRANCH  26  31
ATOM     31  O   UNL     1       5.001   2.110  19.820  0.00  0.00    +0.000 OA
ATOM     32  H   UNL     1       4.530   1.266  19.706  0.00  0.00    +0.000 HD
ENDBRANCH  26  31
BRANCH  23  33
ATOM     33  C   UNL     1       2.578   6.532  18.874  0.00  0.00    +0.000 C 
BRANCH  33  34
ATOM     34  O   UNL     1       2.593   6.502  20.304  0.00  0.00    +0.000 OA
ATOM     35  H   UNL     1       1.656   6.607  20.568  0.00  0.00    +0.000 HD
ENDBRANCH  33  34
ENDBRANCH  23  33
ENDBRANCH  20  21
BRANCH  20  36
ATOM     36  O   UNL     1       7.693   3.904  17.679  0.00  0.00    +0.000 OA
ATOM     37  H   UNL     1       8.282   4.199  16.964  0.00  0.00    +0.000 HD
ENDBRANCH  20  36
ENDBRANCH   7  20
TORSDOF 9
ENDMDL
MODEL 8
REMARK VINA RESULT:      -8.3      4.729      8.131
REMARK  Name = 
REMARK  10 active torsions:
REMARK  status: ('A' for Active; 'I' for Inactive)
REMARK    1  A    between atoms: C_1  and  C_2
REMARK    2  A    between atoms: C_4  and  C_5
REMARK    3  A    between atoms: C_18  and  C_19
REMARK    4  A    between atoms: C_19  and  O_20
REMARK    5  A    between atoms: C_19  and  C_21
REMARK    6  A    between atoms: C_23  and  C_24
REMARK    7  A    between atoms: C_24  and  O_25
REMARK    8  A    between atoms: C_26  and  O_27
REMARK    9  A    between atoms: C_28  and  O_29
REMARK   10  A    between atoms: C_30  and  O_31
REMARK                            x       y       z     vdW  Elec       q    Type
REMARK                         _______ _______ _______ _____ _____    ______ ____
ROOT
ATOM      1  C   UNL     1       5.249   7.346  16.416  0.00  0.00    +0.000 C 
ATOM      2  C   UNL     1       6.456   7.292  17.325  0.00  0.00    +0.000 A 
ATOM      3  C   UNL     1       7.185   8.498  17.505  0.00  0.00    +0.000 A 
ATOM      4  C   UNL     1       8.255   8.626  18.420  0.00  0.00    +0.000 A 
ATOM      5  C   UNL     1       8.543   7.485  19.185  0.00  0.00    +0.000 A 
ATOM      6  C   UNL     1       7.879   6.269  18.982  0.00  0.00    +0.000 A 
ATOM      7  C   UNL     1       6.870   6.134  18.018  0.00  0.00    +0.000 A 
ENDROOT
BRANCH   4   8
ATOM      8  C   UNL     1       9.028   9.892  18.608  0.00  0.00    +0.000 A 
ATOM      9  C   UNL     1       9.738  10.494  17.552  0.00  0.00    +0.000 A 
ATOM     10  C   UNL     1      10.425  11.711  17.704  0.00  0.00    +0.000 A 
ATOM     11  C   UNL     1      10.416  12.381  18.926  0.00  0.00    +0.000 A 
ATOM     12  C   UNL     1      11.106  13.668  19.098  0.00  0.00    +0.000 A 
ATOM     13  C   UNL     1      11.054  14.276  20.289  0.00  0.00    +0.000 A 
ATOM     14  N   UNL     1      10.366  13.735  21.346  0.00  0.00    +0.000 N 
ATOM     15  C   UNL     1       9.684  12.530  21.302  0.00  0.00    +0.000 A 
ATOM     16  O   UNL     1       9.083  12.082  22.270  0.00  0.00    +0.000 OA
ATOM     17  C   UNL     1       9.723  11.808  19.999  0.00  0.00    +0.000 A 
ATOM     18  C   UNL     1       9.061  10.572  19.846  0.00  0.00    +0.000 A 
ATOM     19  H   UNL     1      10.349  14.211  22.240  0.00  0.00    +0.000 HD
ENDBRANCH   4   8
BRANCH   7  20
ATOM     20  C   UNL     1       6.418   4.711  17.678  0.00  0.00    +0.000 C 
BRANCH  20  21
ATOM     21  C   UNL     1       5.424   4.209  18.768  0.00  0.00    +0.000 C 
ATOM     22  O   UNL     1       4.479   5.199  19.183  0.00  0.00    +0.000 OA
ATOM     23  C   UNL     1       3.290   5.320  18.402  0.00  0.00    +0.000 C 
ATOM     24  C   UNL     1       2.478   4.020  18.449  0.00  0.00    +0.000 C 
ATOM     25  C   UNL     1       3.337   2.799  18.073  0.00  0.00    +0.000 C 
ATOM     26  C   UNL     1       4.807   2.823  18.520  0.00  0.00    +0.000 C 
BRANCH  24  27
ATOM     27  O   UNL     1       1.400   4.098  17.498  0.00  0.00    +0.000 OA
ATOM     28  H   UNL     1       1.053   3.204  17.339  0.00  0.00    +0.000 HD
ENDBRANCH  24  27
BRANCH  25  29
ATOM     29  O   UNL     1       2.716   1.598  18.591  0.00  0.00    +0.000 OA
ATOM     30  H   UNL     1       3.255   0.856  18.253  0.00  0.00    +0.000 HD
ENDBRANCH  25  29
BRANCH  26  31
ATOM     31  O   UNL     1       4.910   2.013  19.724  0.00  0.00    +0.000 OA
ATOM     32  H   UNL     1       5.069   2.601  20.484  0.00  0.00    +0.000 HD
ENDBRANCH  26  31
BRANCH  23  33
ATOM     33  C   UNL     1       2.510   6.494  19.030  0.00  0.00    +0.000 C 
BRANCH  33  34
ATOM     34  O   UNL     1       2.390   6.298  20.442  0.00  0.00    +0.000 OA
ATOM     35  H   UNL     1       3.234   5.881  20.711  0.00  0.00    +0.000 HD
ENDBRANCH  33  34
ENDBRANCH  23  33
ENDBRANCH  20  21
BRANCH  20  36
ATOM     36  O   UNL     1       7.526   3.824  17.540  0.00  0.00    +0.000 OA
ATOM     37  H   UNL     1       7.289   3.120  16.912  0.00  0.00    +0.000 HD
ENDBRANCH  20  36
ENDBRANCH   7  20
TORSDOF 9
ENDMDL
MODEL 9
REMARK VINA RESULT:      -8.3      4.226     10.154
REMARK  Name = 
REMARK  10 active torsions:
REMARK  status: ('A' for Active; 'I' for Inactive)
REMARK    1  A    between atoms: C_1  and  C_2
REMARK    2  A    between atoms: C_4  and  C_5
REMARK    3  A    between atoms: C_18  and  C_19
REMARK    4  A    between atoms: C_19  and  O_20
REMARK    5  A    between atoms: C_19  and  C_21
REMARK    6  A    between atoms: C_23  and  C_24
REMARK    7  A    between atoms: C_24  and  O_25
REMARK    8  A    between atoms: C_26  and  O_27
REMARK    9  A    between atoms: C_28  and  O_29
REMARK   10  A    between atoms: C_30  and  O_31
REMARK                            x       y       z     vdW  Elec       q    Type
REMARK                         _______ _______ _______ _____ _____    ______ ____
ROOT
ATOM      1  C   UNL     1      -0.285   9.674  23.280  0.00  0.00    +0.000 C 
ATOM      2  C   UNL     1       0.337   9.653  21.902  0.00  0.00    +0.000 A 
ATOM      3  C   UNL     1       0.955   8.443  21.490  0.00  0.00    +0.000 A 
ATOM      4  C   UNL     1       1.465   8.240  20.187  0.00  0.00    +0.000 A 
ATOM      5  C   UNL     1       1.290   9.305  19.291  0.00  0.00    +0.000 A 
ATOM      6  C   UNL     1       0.739  10.528  19.691  0.00  0.00    +0.000 A 
ATOM      7  C   UNL     1       0.307  10.744  21.007  0.00  0.00    +0.000 A 
ENDROOT
BRANCH   4   8
ATOM      8  C   UNL     1       2.121   6.969  19.750  0.00  0.00    +0.000 A 
ATOM      9  C   UNL     1       2.866   6.889  18.558  0.00  0.00    +0.000 A 
ATOM     10  C   UNL     1       3.531   5.714  18.164  0.00  0.00    +0.000 A 
ATOM     11  C   UNL     1       3.483   4.572  18.960  0.00  0.00    +0.000 A 
ATOM     12  C   UNL     1       4.192   3.342  18.578  0.00  0.00    +0.000 A 
ATOM     13  C   UNL     1       4.124   2.278  19.386  0.00  0.00    +0.000 A 
ATOM     14  N   UNL     1       3.420   2.310  20.564  0.00  0.00    +0.000 N 
ATOM     15  C   UNL     1       2.711   3.408  21.023  0.00  0.00    +0.000 A 
ATOM     16  O   UNL     1       2.094   3.394  22.080  0.00  0.00    +0.000 OA
ATOM     17  C   UNL     1       2.746   4.616  20.151  0.00  0.00    +0.000 A 
ATOM     18  C   UNL     1       2.059   5.789  20.524  0.00  0.00    +0.000 A 
ATOM     19  H   UNL     1       3.377   1.488  21.154  0.00  0.00    +0.000 HD
ENDBRANCH   4   8
BRANCH   7  20
ATOM     20  C   UNL     1      -0.005  12.189  21.410  0.00  0.00    +0.000 C 
BRANCH  20  21
ATOM     21  C   UNL     1      -1.007  12.806  20.389  0.00  0.00    +0.000 C 
ATOM     22  O   UNL     1      -2.378  12.674  20.778  0.00  0.00    +0.000 OA
ATOM     23  C   UNL     1      -2.901  13.685  21.641  0.00  0.00    +0.000 C 
ATOM     24  C   UNL     1      -2.864  15.053  20.952  0.00  0.00    +0.000 C 
ATOM     25  C   UNL     1      -1.461  15.380  20.409  0.00  0.00    +0.000 C 
ATOM     26  C   UNL     1      -0.642  14.201  19.857  0.00  0.00    +0.000 C 
BRANCH  24  27
ATOM     27  O   UNL     1      -3.202  16.076  21.908  0.00  0.00    +0.000 OA
ATOM     28  H   UNL     1      -2.575  16.812  21.819  0.00  0.00    +0.000 HD
ENDBRANCH  24  27
BRANCH  25  29
ATOM     29  O   UNL     1      -1.568  16.390  19.376  0.00  0.00    +0.000 OA
ATOM     30  H   UNL     1      -2.341  16.132  18.836  0.00  0.00    +0.000 HD
ENDBRANCH  25  29
BRANCH  26  31
ATOM     31  O   UNL     1      -0.764  14.225  18.408  0.00  0.00    +0.000 OA
ATOM     32  H   UNL     1      -0.029  14.747  18.040  0.00  0.00    +0.000 HD
ENDBRANCH  26  31
BRANCH  23  33
ATOM     33  C   UNL     1      -4.349  13.246  21.945  0.00  0.00    +0.000 C 
BRANCH  33  34
ATOM     34  O   UNL     1      -4.351  12.267  22.988  0.00  0.00    +0.000 OA
ATOM     35  H   UNL     1      -3.464  12.332  23.396  0.00  0.00    +0.000 HD
ENDBRANCH  33  34
ENDBRANCH  23  33
ENDBRANCH  20  21
BRANCH  20  36
ATOM     36  O   UNL     1       1.181  12.976  21.511  0.00  0.00    +0.000 OA
ATOM     37  H   UNL     1       1.757  12.589  22.193  0.00  0.00    +0.000 HD
ENDBRANCH  20  36
ENDBRANCH   7  20
TORSDOF 9
ENDMDL
