MODEL 1
REMARK VINA RESULT:      -7.7      0.000      0.000
REMARK  Name = 
REMARK  8 active torsions:
REMARK  status: ('A' for Active; 'I' for Inactive)
REMARK    1  A    between atoms: C_1  and  C_2
REMARK    2  A    between atoms: N_4  and  C_5
REMARK    3  A    between atoms: C_7  and  C_8
REMARK    4  A    between atoms: C_10  and  C_11
REMARK    5  A    between atoms: N_17  and  C_18
REMARK    6  A    between atoms: C_18  and  C_19
REMARK    7  A    between atoms: C_18  and  C_20
REMARK    8  A    between atoms: C_18  and  C_21
REMARK                            x       y       z     vdW  Elec       q    Type
REMARK                         _______ _______ _______ _____ _____    ______ ____
ROOT
ATOM      1  C   UNL     1       4.186   6.111  17.457  0.00  0.00    +0.000 A 
ATOM      2  N   UNL     1       3.792   7.378  17.516  0.00  0.00    +0.000 NA
ATOM      3  C   UNL     1       2.722   7.368  18.380  0.00  0.00    +0.000 A 
ATOM      4  N   UNL     1       2.462   6.169  18.892  0.00  0.00    +0.000 NA
ATOM      5  N   UNL     1       3.362   5.368  18.286  0.00  0.00    +0.000 N 
ENDROOT
BRANCH   1  12
ATOM      6  C   UNL     1       7.415   6.595  17.870  0.00  0.00    +0.000 C 
ATOM      7  C   UNL     1       6.715   5.952  16.729  0.00  0.00    +0.000 A 
ATOM      8  N   UNL     1       7.440   5.476  15.705  0.00  0.00    +0.000 NA
ATOM      9  N   UNL     1       6.531   4.926  14.893  0.00  0.00    +0.000 N 
ATOM     10  C   UNL     1       6.910   4.375  13.614  0.00  0.00    +0.000 C 
ATOM     11  C   UNL     1       5.262   4.977  15.387  0.00  0.00    +0.000 A 
ATOM     12  C   UNL     1       5.318   5.687  16.563  0.00  0.00    +0.000 A 
ENDBRANCH   1  12
BRANCH   3  13
ATOM     13  C   UNL     1       1.882   8.547  18.744  0.00  0.00    +0.000 A 
ATOM     14  C   UNL     1       1.511   9.597  17.927  0.00  0.00    +0.000 A 
ATOM     15  C   UNL     1       0.712  10.469  18.713  0.00  0.00    +0.000 A 
ATOM     16  C   UNL     1       0.645   9.905  19.963  0.00  0.00    +0.000 A 
ATOM     17  O   UNL     1       1.329   8.734  19.987  0.00  0.00    +0.000 OA
ENDBRANCH   3  13
BRANCH   5  18
ATOM     18  C   UNL     1       3.314   3.936  18.633  0.00  0.00    +0.000 C 
ATOM     19  C   UNL     1       2.293   3.661  19.781  0.00  0.00    +0.000 C 
ATOM     20  C   UNL     1       2.797   3.120  17.433  0.00  0.00    +0.000 C 
ATOM     21  C   UNL     1       4.665   3.439  19.184  0.00  0.00    +0.000 C 
ENDBRANCH   5  18
TORSDOF 3
ENDMDL
MODEL 2
REMARK VINA RESULT:      -7.6      0.443      1.019
REMARK  Name = 
REMARK  8 active torsions:
REMARK  status: ('A' for Active; 'I' for Inactive)
REMARK    1  A    between atoms: C_1  and  C_2
REMARK    2  A    between atoms: N_4  and  C_5
REMARK    3  A    between atoms: C_7  and  C_8
REMARK    4  A    between atoms: C_10  and  C_11
REMARK    5  A    between atoms: N_17  and  C_18
REMARK    6  A    between atoms: C_18  and  C_19
REMARK    7  A    between atoms: C_18  and  C_20
REMARK    8  A    between atoms: C_18  and  C_21
REMARK                            x       y       z     vdW  Elec       q    Type
REMARK                         _______ _______ _______ _____ _____    ______ ____
ROOT
ATOM      1  C   UNL     1       4.137   5.779  17.513  0.00  0.00    +0.000 A 
ATOM      2  N   UNL     1       3.810   7.066  17.525  0.00  0.00    +0.000 NA
ATOM      3  C   UNL     1       2.753   7.145  18.401  0.00  0.00    +0.000 A 
ATOM      4  N   UNL     1       2.438   5.984  18.964  0.00  0.00    +0.000 NA
ATOM      5  N   UNL     1       3.288   5.113  18.381  0.00  0.00    +0.000 N 
ENDROOT
BRANCH   1  12
ATOM      6  C   UNL     1       7.348   5.489  18.177  0.00  0.00    +0.000 C 
ATOM      7  C   UNL     1       6.636   5.191  16.908  0.00  0.00    +0.000 A 
ATOM      8  N   UNL     1       7.337   4.732  15.860  0.00  0.00    +0.000 NA
ATOM      9  N   UNL     1       6.411   4.519  14.920  0.00  0.00    +0.000 N 
ATOM     10  C   UNL     1       6.781   4.098  13.590  0.00  0.00    +0.000 C 
ATOM     11  C   UNL     1       5.139   4.766  15.346  0.00  0.00    +0.000 A 
ATOM     12  C   UNL     1       5.235   5.262  16.625  0.00  0.00    +0.000 A 
ENDBRANCH   1  12
BRANCH   3  13
ATOM     13  C   UNL     1       1.980   8.381  18.726  0.00  0.00    +0.000 A 
ATOM     14  C   UNL     1       1.652   9.415  17.871  0.00  0.00    +0.000 A 
ATOM     15  C   UNL     1       0.910  10.358  18.631  0.00  0.00    +0.000 A 
ATOM     16  C   UNL     1       0.831   9.848  19.903  0.00  0.00    +0.000 A 
ATOM     17  O   UNL     1       1.453   8.645  19.967  0.00  0.00    +0.000 OA
ENDBRANCH   3  13
BRANCH   5  18
ATOM     18  C   UNL     1       3.170   3.700  18.786  0.00  0.00    +0.000 C 
ATOM     19  C   UNL     1       4.498   3.174  19.415  0.00  0.00    +0.000 C 
ATOM     20  C   UNL     1       2.115   3.558  19.899  0.00  0.00    +0.000 C 
ATOM     21  C   UNL     1       2.920   2.781  17.574  0.00  0.00    +0.000 C 
ENDBRANCH   5  18
TORSDOF 3
ENDMDL
MODEL 3
REMARK VINA RESULT:      -7.5      1.160      1.391
REMARK  Name = 
REMARK  8 active torsions:
REMARK  status: ('A' for Active; 'I' for Inactive)
REMARK    1  A    between atoms: C_1  and  C_2
REMARK    2  A    between atoms: N_4  and  C_5
REMARK    3  A    between atoms: C_7  and  C_8
REMARK    4  A    between atoms: C_10  and  C_11
REMARK    5  A    between atoms: N_17  and  C_18
REMARK    6  A    between atoms: C_18  and  C_19
REMARK    7  A    between atoms: C_18  and  C_20
REMARK    8  A    between atoms: C_18  and  C_21
REMARK                            x       y       z     vdW  Elec       q    Type
REMARK                         _______ _______ _______ _____ _____    ______ ____
ROOT
ATOM      1  C   UNL     1       4.038   5.318  18.166  0.00  0.00    +0.000 A 
ATOM      2  N   UNL     1       3.708   6.589  18.367  0.00  0.00    +0.000 NA
ATOM      3  C   UNL     1       2.668   6.538  19.266  0.00  0.00    +0.000 A 
ATOM      4  N   UNL     1       2.368   5.307  19.665  0.00  0.00    +0.000 NA
ATOM      5  N   UNL     1       3.208   4.532  18.948  0.00  0.00    +0.000 N 
ENDROOT
BRANCH   1  12
ATOM      6  C   UNL     1       7.301   5.389  18.591  0.00  0.00    +0.000 C 
ATOM      7  C   UNL     1       6.536   5.025  17.372  0.00  0.00    +0.000 A 
ATOM      8  N   UNL     1       7.204   4.658  16.268  0.00  0.00    +0.000 NA
ATOM      9  N   UNL     1       6.241   4.351  15.394  0.00  0.00    +0.000 N 
ATOM     10  C   UNL     1       6.558   3.988  14.033  0.00  0.00    +0.000 C 
ATOM     11  C   UNL     1       4.985   4.448  15.914  0.00  0.00    +0.000 A 
ATOM     12  C   UNL     1       5.118   4.938  17.192  0.00  0.00    +0.000 A 
ENDBRANCH   1  12
BRANCH   3  13
ATOM     13  C   UNL     1       1.899   7.711  19.778  0.00  0.00    +0.000 A 
ATOM     14  C   UNL     1       1.364   7.876  21.041  0.00  0.00    +0.000 A 
ATOM     15  C   UNL     1       0.729   9.147  21.056  0.00  0.00    +0.000 A 
ATOM     16  C   UNL     1       0.909   9.680  19.804  0.00  0.00    +0.000 A 
ATOM     17  O   UNL     1       1.632   8.832  19.031  0.00  0.00    +0.000 OA
ENDBRANCH   3  13
BRANCH   5  18
ATOM     18  C   UNL     1       3.102   3.076  19.151  0.00  0.00    +0.000 C 
ATOM     19  C   UNL     1       2.007   2.725  20.206  0.00  0.00    +0.000 C 
ATOM     20  C   UNL     1       2.639   2.394  17.850  0.00  0.00    +0.000 C 
ATOM     21  C   UNL     1       4.405   2.488  19.729  0.00  0.00    +0.000 C 
ENDBRANCH   5  18
TORSDOF 3
ENDMDL
MODEL 4
REMARK VINA RESULT:      -7.4      0.587      1.254
REMARK  Name = 
REMARK  8 active torsions:
REMARK  status: ('A' for Active; 'I' for Inactive)
REMARK    1  A    between atoms: C_1  and  C_2
REMARK    2  A    between atoms: N_4  and  C_5
REMARK    3  A    between atoms: C_7  and  C_8
REMARK    4  A    between atoms: C_10  and  C_11
REMARK    5  A    between atoms: N_17  and  C_18
REMARK    6  A    between atoms: C_18  and  C_19
REMARK    7  A    between atoms: C_18  and  C_20
REMARK    8  A    between atoms: C_18  and  C_21
REMARK                            x       y       z     vdW  Elec       q    Type
REMARK                         _______ _______ _______ _____ _____    ______ ____
ROOT
ATOM      1  C   UNL     1       4.154   6.171  17.498  0.00  0.00    +0.000 A 
ATOM      2  N   UNL     1       3.738   7.431  17.541  0.00  0.00    +0.000 NA
ATOM      3  C   UNL     1       2.677   7.415  18.416  0.00  0.00    +0.000 A 
ATOM      4  N   UNL     1       2.444   6.221  18.950  0.00  0.00    +0.000 NA
ATOM      5  N   UNL     1       3.352   5.426  18.348  0.00  0.00    +0.000 N 
ENDROOT
BRANCH   1  12
ATOM      6  C   UNL     1       7.375   6.745  17.854  0.00  0.00    +0.000 C 
ATOM      7  C   UNL     1       6.677   6.057  16.739  0.00  0.00    +0.000 A 
ATOM      8  N   UNL     1       7.399   5.574  15.717  0.00  0.00    +0.000 NA
ATOM      9  N   UNL     1       6.495   4.981  14.932  0.00  0.00    +0.000 N 
ATOM     10  C   UNL     1       6.870   4.408  13.662  0.00  0.00    +0.000 C 
ATOM     11  C   UNL     1       5.231   5.013  15.442  0.00  0.00    +0.000 A 
ATOM     12  C   UNL     1       5.284   5.753  16.600  0.00  0.00    +0.000 A 
ENDBRANCH   1  12
BRANCH   3  13
ATOM     13  C   UNL     1       1.819   8.585  18.770  0.00  0.00    +0.000 A 
ATOM     14  C   UNL     1       1.254   8.870  19.998  0.00  0.00    +0.000 A 
ATOM     15  C   UNL     1       0.532  10.084  19.848  0.00  0.00    +0.000 A 
ATOM     16  C   UNL     1       0.694  10.467  18.539  0.00  0.00    +0.000 A 
ATOM     17  O   UNL     1       1.487   9.582  17.885  0.00  0.00    +0.000 OA
ENDBRANCH   3  13
BRANCH   5  18
ATOM     18  C   UNL     1       3.333   3.999  18.718  0.00  0.00    +0.000 C 
ATOM     19  C   UNL     1       2.955   3.099  17.501  0.00  0.00    +0.000 C 
ATOM     20  C   UNL     1       4.745   3.544  19.131  0.00  0.00    +0.000 C 
ATOM     21  C   UNL     1       2.252   3.702  19.776  0.00  0.00    +0.000 C 
ENDBRANCH   5  18
TORSDOF 3
ENDMDL
MODEL 5
REMARK VINA RESULT:      -6.9      0.896      1.014
REMARK  Name = 
REMARK  8 active torsions:
REMARK  status: ('A' for Active; 'I' for Inactive)
REMARK    1  A    between atoms: C_1  and  C_2
REMARK    2  A    between atoms: N_4  and  C_5
REMARK    3  A    between atoms: C_7  and  C_8
REMARK    4  A    between atoms: C_10  and  C_11
REMARK    5  A    between atoms: N_17  and  C_18
REMARK    6  A    between atoms: C_18  and  C_19
REMARK    7  A    between atoms: C_18  and  C_20
REMARK    8  A    between atoms: C_18  and  C_21
REMARK                            x       y       z     vdW  Elec       q    Type
REMARK                         _______ _______ _______ _____ _____    ______ ____
ROOT
ATOM      1  C   UNL     1       4.094   6.618  17.350  0.00  0.00    +0.000 A 
ATOM      2  N   UNL     1       3.787   7.909  17.277  0.00  0.00    +0.000 NA
ATOM      3  C   UNL     1       2.690   8.050  18.095  0.00  0.00    +0.000 A 
ATOM      4  N   UNL     1       2.330   6.924  18.703  0.00  0.00    +0.000 NA
ATOM      5  N   UNL     1       3.193   6.012  18.209  0.00  0.00    +0.000 N 
ENDROOT
BRANCH   1  12
ATOM      6  C   UNL     1       7.332   7.012  17.784  0.00  0.00    +0.000 C 
ATOM      7  C   UNL     1       6.628   6.263  16.713  0.00  0.00    +0.000 A 
ATOM      8  N   UNL     1       7.351   5.634  15.775  0.00  0.00    +0.000 NA
ATOM      9  N   UNL     1       6.436   5.026  15.014  0.00  0.00    +0.000 N 
ATOM     10  C   UNL     1       6.815   4.304  13.823  0.00  0.00    +0.000 C 
ATOM     11  C   UNL     1       5.160   5.192  15.464  0.00  0.00    +0.000 A 
ATOM     12  C   UNL     1       5.224   6.040  16.545  0.00  0.00    +0.000 A 
ENDBRANCH   1  12
BRANCH   3  13
ATOM     13  C   UNL     1       1.922   9.311  18.316  0.00  0.00    +0.000 A 
ATOM     14  C   UNL     1       0.621   9.433  18.765  0.00  0.00    +0.000 A 
ATOM     15  C   UNL     1       0.333  10.823  18.819  0.00  0.00    +0.000 A 
ATOM     16  C   UNL     1       1.470  11.467  18.397  0.00  0.00    +0.000 A 
ATOM     17  O   UNL     1       2.442  10.566  18.112  0.00  0.00    +0.000 OA
ENDBRANCH   3  13
BRANCH   5  18
ATOM     18  C   UNL     1       3.033   4.625  18.683  0.00  0.00    +0.000 C 
ATOM     19  C   UNL     1       2.012   4.538  19.860  0.00  0.00    +0.000 C 
ATOM     20  C   UNL     1       2.432   3.753  17.565  0.00  0.00    +0.000 C 
ATOM     21  C   UNL     1       4.348   4.069  19.263  0.00  0.00    +0.000 C 
ENDBRANCH   5  18
TORSDOF 3
ENDMDL
MODEL 6
REMARK VINA RESULT:      -6.7      2.038      2.492
REMARK  Name = 
REMARK  8 active torsions:
REMARK  status: ('A' for Active; 'I' for Inactive)
REMARK    1  A    between atoms: C_1  and  C_2
REMARK    2  A    between atoms: N_4  and  C_5
REMARK    3  A    between atoms: C_7  and  C_8
REMARK    4  A    between atoms: C_10  and  C_11
REMARK    5  A    between atoms: N_17  and  C_18
REMARK    6  A    between atoms: C_18  and  C_19
REMARK    7  A    between atoms: C_18  and  C_20
REMARK    8  A    between atoms: C_18  and  C_21
REMARK                            x       y       z     vdW  Elec       q    Type
REMARK                         _______ _______ _______ _____ _____    ______ ____
ROOT
ATOM      1  C   UNL     1       3.233   5.407  19.203  0.00  0.00    +0.000 A 
ATOM      2  N   UNL     1       2.920   6.667  19.481  0.00  0.00    +0.000 NA
ATOM      3  C   UNL     1       1.944   6.577  20.446  0.00  0.00    +0.000 A 
ATOM      4  N   UNL     1       1.670   5.329  20.811  0.00  0.00    +0.000 NA
ATOM      5  N   UNL     1       2.457   4.587  20.005  0.00  0.00    +0.000 N 
ENDROOT
BRANCH   1  12
ATOM      6  C   UNL     1       6.517   5.436  19.416  0.00  0.00    +0.000 C 
ATOM      7  C   UNL     1       5.671   5.140  18.233  0.00  0.00    +0.000 A 
ATOM      8  N   UNL     1       6.262   4.826  17.070  0.00  0.00    +0.000 NA
ATOM      9  N   UNL     1       5.241   4.569  16.247  0.00  0.00    +0.000 N 
ATOM     10  C   UNL     1       5.465   4.274  14.852  0.00  0.00    +0.000 C 
ATOM     11  C   UNL     1       4.023   4.647  16.853  0.00  0.00    +0.000 A 
ATOM     12  C   UNL     1       4.243   5.071  18.142  0.00  0.00    +0.000 A 
ENDBRANCH   1  12
BRANCH   3  13
ATOM     13  C   UNL     1       1.213   7.725  21.060  0.00  0.00    +0.000 A 
ATOM     14  C   UNL     1      -0.152   7.863  21.216  0.00  0.00    +0.000 A 
ATOM     15  C   UNL     1      -0.370   9.114  21.853  0.00  0.00    +0.000 A 
ATOM     16  C   UNL     1       0.872   9.668  22.044  0.00  0.00    +0.000 A 
ATOM     17  O   UNL     1       1.836   8.829  21.590  0.00  0.00    +0.000 OA
ENDBRANCH   3  13
BRANCH   5  18
ATOM     18  C   UNL     1       2.363   3.123  20.152  0.00  0.00    +0.000 C 
ATOM     19  C   UNL     1       3.776   2.463  20.217  0.00  0.00    +0.000 C 
ATOM     20  C   UNL     1       1.694   2.771  21.495  0.00  0.00    +0.000 C 
ATOM     21  C   UNL     1       1.682   2.472  18.932  0.00  0.00    +0.000 C 
ENDBRANCH   5  18
TORSDOF 3
ENDMDL
MODEL 7
REMARK VINA RESULT:      -6.7      2.061      2.290
REMARK  Name = 
REMARK  8 active torsions:
REMARK  status: ('A' for Active; 'I' for Inactive)
REMARK    1  A    between atoms: C_1  and  C_2
REMARK    2  A    between atoms: N_4  and  C_5
REMARK    3  A    between atoms: C_7  and  C_8
REMARK    4  A    between atoms: C_10  and  C_11
REMARK    5  A    between atoms: N_17  and  C_18
REMARK    6  A    between atoms: C_18  and  C_19
REMARK    7  A    between atoms: C_18  and  C_20
REMARK    8  A    between atoms: C_18  and  C_21
REMARK                            x       y       z     vdW  Elec       q    Type
REMARK                         _______ _______ _______ _____ _____    ______ ____
ROOT
ATOM      1  C   UNL     1       3.212   5.408  19.209  0.00  0.00    +0.000 A 
ATOM      2  N   UNL     1       2.895   6.666  19.492  0.00  0.00    +0.000 NA
ATOM      3  C   UNL     1       1.919   6.569  20.455  0.00  0.00    +0.000 A 
ATOM      4  N   UNL     1       1.647   5.319  20.814  0.00  0.00    +0.000 NA
ATOM      5  N   UNL     1       2.436   4.582  20.006  0.00  0.00    +0.000 N 
ENDROOT
BRANCH   1  12
ATOM      6  C   UNL     1       6.496   5.455  19.421  0.00  0.00    +0.000 C 
ATOM      7  C   UNL     1       5.651   5.155  18.238  0.00  0.00    +0.000 A 
ATOM      8  N   UNL     1       6.244   4.846  17.075  0.00  0.00    +0.000 NA
ATOM      9  N   UNL     1       5.224   4.584  16.251  0.00  0.00    +0.000 N 
ATOM     10  C   UNL     1       5.449   4.292  14.856  0.00  0.00    +0.000 C 
ATOM     11  C   UNL     1       4.005   4.655  16.857  0.00  0.00    +0.000 A 
ATOM     12  C   UNL     1       4.224   5.078  18.147  0.00  0.00    +0.000 A 
ENDBRANCH   1  12
BRANCH   3  13
ATOM     13  C   UNL     1       1.185   7.713  21.073  0.00  0.00    +0.000 A 
ATOM     14  C   UNL     1       1.712   8.918  21.496  0.00  0.00    +0.000 A 
ATOM     15  C   UNL     1       0.631   9.684  22.007  0.00  0.00    +0.000 A 
ATOM     16  C   UNL     1      -0.490   8.903  21.872  0.00  0.00    +0.000 A 
ATOM     17  O   UNL     1      -0.172   7.721  21.289  0.00  0.00    +0.000 OA
ENDBRANCH   3  13
BRANCH   5  18
ATOM     18  C   UNL     1       2.345   3.117  20.146  0.00  0.00    +0.000 C 
ATOM     19  C   UNL     1       1.573   2.715  21.442  0.00  0.00    +0.000 C 
ATOM     20  C   UNL     1       1.518   2.528  18.988  0.00  0.00    +0.000 C 
ATOM     21  C   UNL     1       3.737   2.475  20.304  0.00  0.00    +0.000 C 
ENDBRANCH   5  18
TORSDOF 3
ENDMDL
MODEL 8
REMARK VINA RESULT:      -6.5      1.823      2.678
REMARK  Name = 
REMARK  8 active torsions:
REMARK  status: ('A' for Active; 'I' for Inactive)
REMARK    1  A    between atoms: C_1  and  C_2
REMARK    2  A    between atoms: N_4  and  C_5
REMARK    3  A    between atoms: C_7  and  C_8
REMARK    4  A    between atoms: C_10  and  C_11
REMARK    5  A    between atoms: N_17  and  C_18
REMARK    6  A    between atoms: C_18  and  C_19
REMARK    7  A    between atoms: C_18  and  C_20
REMARK    8  A    between atoms: C_18  and  C_21
REMARK                            x       y       z     vdW  Elec       q    Type
REMARK                         _______ _______ _______ _____ _____    ______ ____
ROOT
ATOM      1  C   UNL     1       3.245   5.571  19.129  0.00  0.00    +0.000 A 
ATOM      2  N   UNL     1       2.977   6.869  19.218  0.00  0.00    +0.000 NA
ATOM      3  C   UNL     1       2.015   6.957  20.198  0.00  0.00    +0.000 A 
ATOM      4  N   UNL     1       1.707   5.788  20.749  0.00  0.00    +0.000 NA
ATOM      5  N   UNL     1       2.456   4.907  20.054  0.00  0.00    +0.000 N 
ENDROOT
BRANCH   1  12
ATOM      6  C   UNL     1       2.722   3.429  16.686  0.00  0.00    +0.000 C 
ATOM      7  C   UNL     1       3.996   4.072  17.094  0.00  0.00    +0.000 A 
ATOM      8  N   UNL     1       5.116   3.792  16.410  0.00  0.00    +0.000 NA
ATOM      9  N   UNL     1       6.047   4.559  16.985  0.00  0.00    +0.000 N 
ATOM     10  C   UNL     1       7.431   4.478  16.584  0.00  0.00    +0.000 C 
ATOM     11  C   UNL     1       5.555   5.364  17.969  0.00  0.00    +0.000 A 
ATOM     12  C   UNL     1       4.225   5.046  18.119  0.00  0.00    +0.000 A 
ENDBRANCH   1  12
BRANCH   3  13
ATOM     13  C   UNL     1       1.332   8.209  20.641  0.00  0.00    +0.000 A 
ATOM     14  C   UNL     1       0.963   8.553  21.927  0.00  0.00    +0.000 A 
ATOM     15  C   UNL     1       0.353   9.833  21.852  0.00  0.00    +0.000 A 
ATOM     16  C   UNL     1       0.380  10.194  20.527  0.00  0.00    +0.000 A 
ATOM     17  O   UNL     1       0.988   9.231  19.790  0.00  0.00    +0.000 OA
ENDBRANCH   3  13
BRANCH   5  18
ATOM     18  C   UNL     1       2.318   3.486  20.421  0.00  0.00    +0.000 C 
ATOM     19  C   UNL     1       1.997   3.316  21.938  0.00  0.00    +0.000 C 
ATOM     20  C   UNL     1       1.114   2.867  19.684  0.00  0.00    +0.000 C 
ATOM     21  C   UNL     1       3.636   2.715  20.210  0.00  0.00    +0.000 C 
ENDBRANCH   5  18
TORSDOF 3
ENDMDL
MODEL 9
REMARK VINA RESULT:      -6.4      1.568      4.151
REMARK  Name = 
REMARK  8 active torsions:
REMARK  status: ('A' for Active; 'I' for Inactive)
REMARK    1  A    between atoms: C_1  and  C_2
REMARK    2  A    between atoms: N_4  and  C_5
REMARK    3  A    between atoms: C_7  and  C_8
REMARK    4  A    between atoms: C_10  and  C_11
REMARK    5  A    between atoms: N_17  and  C_18
REMARK    6  A    between atoms: C_18  and  C_19
REMARK    7  A    between atoms: C_18  and  C_20
REMARK    8  A    between atoms: C_18  and  C_21
REMARK                            x       y       z     vdW  Elec       q    Type
REMARK                         _______ _______ _______ _____ _____    ______ ____
ROOT
ATOM      1  C   UNL     1       3.349   5.410  18.587  0.00  0.00    +0.000 A 
ATOM      2  N   UNL     1       2.441   6.213  19.130  0.00  0.00    +0.000 NA
ATOM      3  C   UNL     1       2.604   7.411  18.475  0.00  0.00    +0.000 A 
ATOM      4  N   UNL     1       3.534   7.378  17.527  0.00  0.00    +0.000 NA
ATOM      5  N   UNL     1       4.030   6.127  17.617  0.00  0.00    +0.000 N 
ENDROOT
BRANCH   1  12
ATOM      6  C   UNL     1       1.219   2.904  18.455  0.00  0.00    +0.000 C 
ATOM      7  C   UNL     1       2.575   2.933  19.057  0.00  0.00    +0.000 A 
ATOM      8  N   UNL     1       3.058   1.819  19.630  0.00  0.00    +0.000 NA
ATOM      9  N   UNL     1       4.292   2.161  20.014  0.00  0.00    +0.000 N 
ATOM     10  C   UNL     1       5.120   1.246  20.762  0.00  0.00    +0.000 C 
ATOM     11  C   UNL     1       4.639   3.429  19.655  0.00  0.00    +0.000 A 
ATOM     12  C   UNL     1       3.531   3.999  19.073  0.00  0.00    +0.000 A 
ENDBRANCH   1  12
BRANCH   3  13
ATOM     13  C   UNL     1       1.853   8.670  18.758  0.00  0.00    +0.000 A 
ATOM     14  C   UNL     1       1.637   9.730  17.898  0.00  0.00    +0.000 A 
ATOM     15  C   UNL     1       0.870  10.689  18.610  0.00  0.00    +0.000 A 
ATOM     16  C   UNL     1       0.665  10.163  19.863  0.00  0.00    +0.000 A 
ATOM     17  O   UNL     1       1.235   8.936  19.956  0.00  0.00    +0.000 OA
ENDBRANCH   3  13
BRANCH   5  18
ATOM     18  C   UNL     1       5.122   5.778  16.690  0.00  0.00    +0.000 C 
ATOM     19  C   UNL     1       5.159   6.741  15.463  0.00  0.00    +0.000 C 
ATOM     20  C   UNL     1       6.483   5.963  17.387  0.00  0.00    +0.000 C 
ATOM     21  C   UNL     1       4.923   4.376  16.081  0.00  0.00    +0.000 C 
ENDBRANCH   5  18
TORSDOF 3
ENDMDL
