MODEL 1
REMARK VINA RESULT:      -5.2      0.000      0.000
REMARK  Name = 
REMARK  10 active torsions:
REMARK  status: ('A' for Active; 'I' for Inactive)
REMARK    1  A    between atoms: C_1  and  C_2
REMARK    2  A    between atoms: C_2  and  C_3
REMARK    3  A    between atoms: C_3  and  C_4
REMARK    4  A    between atoms: C_4  and  S_5
REMARK    5  A    between atoms: S_5  and  C_7
REMARK    6  A    between atoms: C_7  and  C_8
REMARK    7  A    between atoms: C_8  and  CA_9
REMARK    8  A    between atoms: CA_9  and  N_10
REMARK    9  A    between atoms: CA_9  and  C_11
REMARK   10  A    between atoms: C_11  and  OXT_13
REMARK                            x       y       z     vdW  Elec       q    Type
REMARK                         _______ _______ _______ _____ _____    ______ ____
ROOT
ATOM      1  C   UNL     1       5.263   4.085  16.282  0.00  0.00    +0.000 C 
ENDROOT
BRANCH   1   2
ATOM      2  C   UNL     1       4.271   4.817  17.194  0.00  0.00    +0.000 C 
BRANCH   2   3
ATOM      3  S   UNL     1       4.216   4.062  18.848  0.00  0.00    +0.000 S 
ATOM      4  O   UNL     1       5.707   3.860  19.301  0.00  0.00    +0.000 OA
BRANCH   3   5
ATOM      5  C   UNL     1       3.612   2.410  18.342  0.00  0.00    +0.000 C 
BRANCH   5   6
ATOM      6  C   UNL     1       2.464   2.021  19.271  0.00  0.00    +0.000 C 
BRANCH   6   8
ATOM      7  C   UNL     1       1.151   3.257  21.003  0.00  0.00    +0.000 C 
ATOM      8  C   UNL     1       2.524   2.716  20.627  0.00  0.00    +0.000 C 
ENDBRANCH   6   8
ENDBRANCH   5   6
ENDBRANCH   3   5
ENDBRANCH   2   3
ENDBRANCH   1   2
BRANCH   1   9
ATOM      9  CA  UNL     1       6.616   4.780  16.059  0.00  0.00    +0.000 C 
BRANCH   9  10
ATOM     10  N   UNL     1       7.713   4.205  16.886  0.00  0.00    +0.000 NA
ATOM     11  H1  UNL     1       7.591   4.496  17.859  0.00  0.00    +0.000 HD
ATOM     12  H2  UNL     1       8.591   4.638  16.571  0.00  0.00    +0.000 HD
ENDBRANCH   9  10
BRANCH   9  13
ATOM     13  C   UNL     1       7.052   4.707  14.586  0.00  0.00    +0.000 C 
ATOM     14  O   UNL     1       7.819   5.470  14.021  0.00  0.00    +0.000 OA
BRANCH  13  15
ATOM     15  OXT UNL     1       6.487   3.627  13.976  0.00  0.00    +0.000 OA
ATOM     16  HXT UNL     1       5.581   3.924  13.703  0.00  0.00    +0.000 HD
ENDBRANCH  13  15
ENDBRANCH   9  13
ENDBRANCH   1   9
TORSDOF 9
ENDMDL
MODEL 2
REMARK VINA RESULT:      -5.1      0.945      1.299
REMARK  Name = 
REMARK  10 active torsions:
REMARK  status: ('A' for Active; 'I' for Inactive)
REMARK    1  A    between atoms: C_1  and  C_2
REMARK    2  A    between atoms: C_2  and  C_3
REMARK    3  A    between atoms: C_3  and  C_4
REMARK    4  A    between atoms: C_4  and  S_5
REMARK    5  A    between atoms: S_5  and  C_7
REMARK    6  A    between atoms: C_7  and  C_8
REMARK    7  A    between atoms: C_8  and  CA_9
REMARK    8  A    between atoms: CA_9  and  N_10
REMARK    9  A    between atoms: CA_9  and  C_11
REMARK   10  A    between atoms: C_11  and  OXT_13
REMARK                            x       y       z     vdW  Elec       q    Type
REMARK                         _______ _______ _______ _____ _____    ______ ____
ROOT
ATOM      1  C   UNL     1       5.369   4.749  16.612  0.00  0.00    +0.000 C 
ENDROOT
BRANCH   1   2
ATOM      2  C   UNL     1       4.774   5.739  17.620  0.00  0.00    +0.000 C 
BRANCH   2   3
ATOM      3  S   UNL     1       4.849   5.080  19.314  0.00  0.00    +0.000 S 
ATOM      4  O   UNL     1       6.372   4.954  19.681  0.00  0.00    +0.000 OA
BRANCH   3   5
ATOM      5  C   UNL     1       4.278   3.381  18.939  0.00  0.00    +0.000 C 
BRANCH   5   6
ATOM      6  C   UNL     1       3.640   2.808  20.203  0.00  0.00    +0.000 C 
BRANCH   6   8
ATOM      7  C   UNL     1       1.518   2.738  21.524  0.00  0.00    +0.000 C 
ATOM      8  C   UNL     1       2.445   3.617  20.696  0.00  0.00    +0.000 C 
ENDBRANCH   6   8
ENDBRANCH   5   6
ENDBRANCH   3   5
ENDBRANCH   2   3
ENDBRANCH   1   2
BRANCH   1   9
ATOM      9  CA  UNL     1       6.816   5.022  16.169  0.00  0.00    +0.000 C 
BRANCH   9  10
ATOM     10  N   UNL     1       7.821   4.239  16.941  0.00  0.00    +0.000 NA
ATOM     11  H1  UNL     1       7.405   3.352  17.234  0.00  0.00    +0.000 HD
ATOM     12  H2  UNL     1       8.012   4.759  17.808  0.00  0.00    +0.000 HD
ENDBRANCH   9  10
BRANCH   9  13
ATOM     13  C   UNL     1       7.020   4.706  14.678  0.00  0.00    +0.000 C 
ATOM     14  O   UNL     1       6.461   3.825  14.043  0.00  0.00    +0.000 OA
BRANCH  13  15
ATOM     15  OXT UNL     1       7.906   5.581  14.123  0.00  0.00    +0.000 OA
ATOM     16  HXT UNL     1       8.258   6.114  14.881  0.00  0.00    +0.000 HD
ENDBRANCH  13  15
ENDBRANCH   9  13
ENDBRANCH   1   9
TORSDOF 9
ENDMDL
MODEL 3
REMARK VINA RESULT:      -5.1      0.912      1.038
REMARK  Name = 
REMARK  10 active torsions:
REMARK  status: ('A' for Active; 'I' for Inactive)
REMARK    1  A    between atoms: C_1  and  C_2
REMARK    2  A    between atoms: C_2  and  C_3
REMARK    3  A    between atoms: C_3  and  C_4
REMARK    4  A    between atoms: C_4  and  S_5
REMARK    5  A    between atoms: S_5  and  C_7
REMARK    6  A    between atoms: C_7  and  C_8
REMARK    7  A    between atoms: C_8  and  CA_9
REMARK    8  A    between atoms: CA_9  and  N_10
REMARK    9  A    between atoms: CA_9  and  C_11
REMARK   10  A    between atoms: C_11  and  OXT_13
REMARK                            x       y       z     vdW  Elec       q    Type
REMARK                         _______ _______ _______ _____ _____    ______ ____
ROOT
ATOM      1  C   UNL     1       5.226   5.249  16.376  0.00  0.00    +0.000 C 
ENDROOT
BRANCH   1   2
ATOM      2  C   UNL     1       4.789   5.809  17.734  0.00  0.00    +0.000 C 
BRANCH   2   3
ATOM      3  S   UNL     1       4.240   4.479  18.848  0.00  0.00    +0.000 S 
ATOM      4  O   UNL     1       5.538   3.773  19.379  0.00  0.00    +0.000 OA
BRANCH   3   5
ATOM      5  C   UNL     1       3.544   3.366  17.573  0.00  0.00    +0.000 C 
BRANCH   5   6
ATOM      6  C   UNL     1       2.033   3.287  17.788  0.00  0.00    +0.000 C 
BRANCH   6   8
ATOM      7  C   UNL     1       0.840   3.177  19.983  0.00  0.00    +0.000 C 
ATOM      8  C   UNL     1       1.636   2.386  18.953  0.00  0.00    +0.000 C 
ENDBRANCH   6   8
ENDBRANCH   5   6
ENDBRANCH   3   5
ENDBRANCH   2   3
ENDBRANCH   1   2
BRANCH   1   9
ATOM      9  CA  UNL     1       6.738   5.263  16.095  0.00  0.00    +0.000 C 
BRANCH   9  10
ATOM     10  N   UNL     1       7.511   4.379  17.011  0.00  0.00    +0.000 NA
ATOM     11  H1  UNL     1       7.084   3.450  17.024  0.00  0.00    +0.000 HD
ATOM     12  H2  UNL     1       7.399   4.754  17.962  0.00  0.00    +0.000 HD
ENDBRANCH   9  10
BRANCH   9  13
ATOM     13  C   UNL     1       7.048   4.829  14.652  0.00  0.00    +0.000 C 
ATOM     14  O   UNL     1       7.749   5.429  13.852  0.00  0.00    +0.000 OA
BRANCH  13  15
ATOM     15  OXT UNL     1       6.455   3.633  14.377  0.00  0.00    +0.000 OA
ATOM     16  HXT UNL     1       5.954   3.777  13.534  0.00  0.00    +0.000 HD
ENDBRANCH  13  15
ENDBRANCH   9  13
ENDBRANCH   1   9
TORSDOF 9
ENDMDL
MODEL 4
REMARK VINA RESULT:      -5.1      1.550      1.672
REMARK  Name = 
REMARK  10 active torsions:
REMARK  status: ('A' for Active; 'I' for Inactive)
REMARK    1  A    between atoms: C_1  and  C_2
REMARK    2  A    between atoms: C_2  and  C_3
REMARK    3  A    between atoms: C_3  and  C_4
REMARK    4  A    between atoms: C_4  and  S_5
REMARK    5  A    between atoms: S_5  and  C_7
REMARK    6  A    between atoms: C_7  and  C_8
REMARK    7  A    between atoms: C_8  and  CA_9
REMARK    8  A    between atoms: CA_9  and  N_10
REMARK    9  A    between atoms: CA_9  and  C_11
REMARK   10  A    between atoms: C_11  and  OXT_13
REMARK                            x       y       z     vdW  Elec       q    Type
REMARK                         _______ _______ _______ _____ _____    ______ ____
ROOT
ATOM      1  C   UNL     1       4.800   4.740  16.344  0.00  0.00    +0.000 C 
ENDROOT
BRANCH   1   2
ATOM      2  C   UNL     1       3.984   3.792  17.231  0.00  0.00    +0.000 C 
BRANCH   2   3
ATOM      3  S   UNL     1       4.314   4.094  18.995  0.00  0.00    +0.000 S 
ATOM      4  O   UNL     1       5.843   3.811  19.222  0.00  0.00    +0.000 OA
BRANCH   3   5
ATOM      5  C   UNL     1       3.426   2.638  19.661  0.00  0.00    +0.000 C 
BRANCH   5   6
ATOM      6  C   UNL     1       2.344   2.245  18.657  0.00  0.00    +0.000 C 
BRANCH   6   8
ATOM      7  C   UNL     1       0.973   3.279  20.474  0.00  0.00    +0.000 C 
ATOM      8  C   UNL     1       0.950   2.710  19.061  0.00  0.00    +0.000 C 
ENDBRANCH   6   8
ENDBRANCH   5   6
ENDBRANCH   3   5
ENDBRANCH   2   3
ENDBRANCH   1   2
BRANCH   1   9
ATOM      9  CA  UNL     1       5.867   4.081  15.455  0.00  0.00    +0.000 C 
BRANCH   9  10
ATOM     10  N   UNL     1       5.522   4.111  14.007  0.00  0.00    +0.000 NA
ATOM     11  H1  UNL     1       4.861   4.872  13.832  0.00  0.00    +0.000 HD
ATOM     12  H2  UNL     1       5.011   3.243  13.797  0.00  0.00    +0.000 HD
ENDBRANCH   9  10
BRANCH   9  13
ATOM     13  C   UNL     1       7.238   4.758  15.624  0.00  0.00    +0.000 C 
ATOM     14  O   UNL     1       7.815   5.438  14.790  0.00  0.00    +0.000 OA
BRANCH  13  15
ATOM     15  OXT UNL     1       7.732   4.527  16.873  0.00  0.00    +0.000 OA
ATOM     16  HXT UNL     1       7.937   3.557  16.900  0.00  0.00    +0.000 HD
ENDBRANCH  13  15
ENDBRANCH   9  13
ENDBRANCH   1   9
TORSDOF 9
ENDMDL
MODEL 5
REMARK VINA RESULT:      -5.1      2.317      2.670
REMARK  Name = 
REMARK  10 active torsions:
REMARK  status: ('A' for Active; 'I' for Inactive)
REMARK    1  A    between atoms: C_1  and  C_2
REMARK    2  A    between atoms: C_2  and  C_3
REMARK    3  A    between atoms: C_3  and  C_4
REMARK    4  A    between atoms: C_4  and  S_5
REMARK    5  A    between atoms: S_5  and  C_7
REMARK    6  A    between atoms: C_7  and  C_8
REMARK    7  A    between atoms: C_8  and  CA_9
REMARK    8  A    between atoms: CA_9  and  N_10
REMARK    9  A    between atoms: CA_9  and  C_11
REMARK   10  A    between atoms: C_11  and  OXT_13
REMARK                            x       y       z     vdW  Elec       q    Type
REMARK                         _______ _______ _______ _____ _____    ______ ____
ROOT
ATOM      1  C   UNL     1       5.361   4.983  19.172  0.00  0.00    +0.000 C 
ENDROOT
BRANCH   1   2
ATOM      2  C   UNL     1       4.515   4.874  17.898  0.00  0.00    +0.000 C 
BRANCH   2   3
ATOM      3  S   UNL     1       3.873   3.186  17.676  0.00  0.00    +0.000 S 
ATOM      4  O   UNL     1       2.566   3.312  16.813  0.00  0.00    +0.000 OA
BRANCH   3   5
ATOM      5  C   UNL     1       3.317   2.909  19.398  0.00  0.00    +0.000 C 
BRANCH   5   6
ATOM      6  C   UNL     1       1.845   3.309  19.490  0.00  0.00    +0.000 C 
BRANCH   6   8
ATOM      7  C   UNL     1       1.525   2.571  21.857  0.00  0.00    +0.000 C 
ATOM      8  C   UNL     1       1.425   3.744  20.889  0.00  0.00    +0.000 C 
ENDBRANCH   6   8
ENDBRANCH   5   6
ENDBRANCH   3   5
ENDBRANCH   2   3
ENDBRANCH   1   2
BRANCH   1   9
ATOM      9  CA  UNL     1       6.719   5.688  19.024  0.00  0.00    +0.000 C 
BRANCH   9  10
ATOM     10  N   UNL     1       7.643   5.422  20.161  0.00  0.00    +0.000 NA
ATOM     11  H1  UNL     1       7.602   4.430  20.405  0.00  0.00    +0.000 HD
ATOM     12  H2  UNL     1       7.274   5.928  20.978  0.00  0.00    +0.000 HD
ENDBRANCH   9  10
BRANCH   9  13
ATOM     13  C   UNL     1       7.435   5.268  17.729  0.00  0.00    +0.000 C 
ATOM     14  O   UNL     1       7.573   5.950  16.726  0.00  0.00    +0.000 OA
BRANCH  13  15
ATOM     15  OXT UNL     1       7.947   4.011  17.856  0.00  0.00    +0.000 OA
ATOM     16  HXT UNL     1       7.947   3.824  18.829  0.00  0.00    +0.000 HD
ENDBRANCH  13  15
ENDBRANCH   9  13
ENDBRANCH   1   9
TORSDOF 9
ENDMDL
MODEL 6
REMARK VINA RESULT:      -5.1      1.790      2.017
REMARK  Name = 
REMARK  10 active torsions:
REMARK  status: ('A' for Active; 'I' for Inactive)
REMARK    1  A    between atoms: C_1  and  C_2
REMARK    2  A    between atoms: C_2  and  C_3
REMARK    3  A    between atoms: C_3  and  C_4
REMARK    4  A    between atoms: C_4  and  S_5
REMARK    5  A    between atoms: S_5  and  C_7
REMARK    6  A    between atoms: C_7  and  C_8
REMARK    7  A    between atoms: C_8  and  CA_9
REMARK    8  A    between atoms: CA_9  and  N_10
REMARK    9  A    between atoms: CA_9  and  C_11
REMARK   10  A    between atoms: C_11  and  OXT_13
REMARK                            x       y       z     vdW  Elec       q    Type
REMARK                         _______ _______ _______ _____ _____    ______ ____
ROOT
ATOM      1  C   UNL     1       4.876   4.114  16.587  0.00  0.00    +0.000 C 
ENDROOT
BRANCH   1   2
ATOM      2  C   UNL     1       3.952   4.923  17.505  0.00  0.00    +0.000 C 
BRANCH   2   3
ATOM      3  S   UNL     1       3.825   4.158  19.151  0.00  0.00    +0.000 S 
ATOM      4  O   UNL     1       5.210   3.475  19.438  0.00  0.00    +0.000 OA
BRANCH   3   5
ATOM      5  C   UNL     1       2.677   2.805  18.703  0.00  0.00    +0.000 C 
BRANCH   5   6
ATOM      6  C   UNL     1       1.271   3.215  19.137  0.00  0.00    +0.000 C 
BRANCH   6   8
ATOM      7  C   UNL     1       1.403   2.713  21.583  0.00  0.00    +0.000 C 
ATOM      8  C   UNL     1       1.223   3.809  20.540  0.00  0.00    +0.000 C 
ENDBRANCH   6   8
ENDBRANCH   5   6
ENDBRANCH   3   5
ENDBRANCH   2   3
ENDBRANCH   1   2
BRANCH   1   9
ATOM      9  CA  UNL     1       5.896   4.925  15.772  0.00  0.00    +0.000 C 
BRANCH   9  10
ATOM     10  N   UNL     1       5.360   6.231  15.296  0.00  0.00    +0.000 NA
ATOM     11  H1  UNL     1       5.038   6.132  14.330  0.00  0.00    +0.000 HD
ATOM     12  H2  UNL     1       6.148   6.891  15.263  0.00  0.00    +0.000 HD
ENDBRANCH   9  10
BRANCH   9  13
ATOM     13  C   UNL     1       7.170   5.211  16.585  0.00  0.00    +0.000 C 
ATOM     14  O   UNL     1       7.813   4.398  17.229  0.00  0.00    +0.000 OA
BRANCH  13  15
ATOM     15  OXT UNL     1       7.527   6.521  16.465  0.00  0.00    +0.000 OA
ATOM     16  HXT UNL     1       7.504   6.712  15.493  0.00  0.00    +0.000 HD
ENDBRANCH  13  15
ENDBRANCH   9  13
ENDBRANCH   1   9
TORSDOF 9
ENDMDL
MODEL 7
REMARK VINA RESULT:      -5.0      1.216      1.724
REMARK  Name = 
REMARK  10 active torsions:
REMARK  status: ('A' for Active; 'I' for Inactive)
REMARK    1  A    between atoms: C_1  and  C_2
REMARK    2  A    between atoms: C_2  and  C_3
REMARK    3  A    between atoms: C_3  and  C_4
REMARK    4  A    between atoms: C_4  and  S_5
REMARK    5  A    between atoms: S_5  and  C_7
REMARK    6  A    between atoms: C_7  and  C_8
REMARK    7  A    between atoms: C_8  and  CA_9
REMARK    8  A    between atoms: CA_9  and  N_10
REMARK    9  A    between atoms: CA_9  and  C_11
REMARK   10  A    between atoms: C_11  and  OXT_13
REMARK                            x       y       z     vdW  Elec       q    Type
REMARK                         _______ _______ _______ _____ _____    ______ ____
ROOT
ATOM      1  C   UNL     1       5.407   5.188  16.609  0.00  0.00    +0.000 C 
ENDROOT
BRANCH   1   2
ATOM      2  C   UNL     1       5.070   6.110  17.786  0.00  0.00    +0.000 C 
BRANCH   2   3
ATOM      3  S   UNL     1       4.664   5.151  19.278  0.00  0.00    +0.000 S 
ATOM      4  O   UNL     1       5.435   3.787  19.160  0.00  0.00    +0.000 OA
BRANCH   3   5
ATOM      5  C   UNL     1       2.919   4.782  18.863  0.00  0.00    +0.000 C 
BRANCH   5   6
ATOM      6  C   UNL     1       2.053   5.199  20.051  0.00  0.00    +0.000 C 
BRANCH   6   8
ATOM      7  C   UNL     1       0.832   3.053  19.658  0.00  0.00    +0.000 C 
ATOM      8  C   UNL     1       1.337   4.028  20.714  0.00  0.00    +0.000 C 
ENDBRANCH   6   8
ENDBRANCH   5   6
ENDBRANCH   3   5
ENDBRANCH   2   3
ENDBRANCH   1   2
BRANCH   1   9
ATOM      9  CA  UNL     1       6.876   5.180  16.156  0.00  0.00    +0.000 C 
BRANCH   9  10
ATOM     10  N   UNL     1       7.738   4.295  16.986  0.00  0.00    +0.000 NA
ATOM     11  H1  UNL     1       7.742   4.634  17.951  0.00  0.00    +0.000 HD
ATOM     12  H2  UNL     1       8.703   4.404  16.647  0.00  0.00    +0.000 HD
ENDBRANCH   9  10
BRANCH   9  13
ATOM     13  C   UNL     1       7.013   4.730  14.692  0.00  0.00    +0.000 C 
ATOM     14  O   UNL     1       6.422   3.802  14.163  0.00  0.00    +0.000 OA
BRANCH  13  15
ATOM     15  OXT UNL     1       7.880   5.542  14.023  0.00  0.00    +0.000 OA
ATOM     16  HXT UNL     1       7.673   5.412  13.062  0.00  0.00    +0.000 HD
ENDBRANCH  13  15
ENDBRANCH   9  13
ENDBRANCH   1   9
TORSDOF 9
ENDMDL
MODEL 8
REMARK VINA RESULT:      -5.0      2.550      3.135
REMARK  Name = 
REMARK  10 active torsions:
REMARK  status: ('A' for Active; 'I' for Inactive)
REMARK    1  A    between atoms: C_1  and  C_2
REMARK    2  A    between atoms: C_2  and  C_3
REMARK    3  A    between atoms: C_3  and  C_4
REMARK    4  A    between atoms: C_4  and  S_5
REMARK    5  A    between atoms: S_5  and  C_7
REMARK    6  A    between atoms: C_7  and  C_8
REMARK    7  A    between atoms: C_8  and  CA_9
REMARK    8  A    between atoms: CA_9  and  N_10
REMARK    9  A    between atoms: CA_9  and  C_11
REMARK   10  A    between atoms: C_11  and  OXT_13
REMARK                            x       y       z     vdW  Elec       q    Type
REMARK                         _______ _______ _______ _____ _____    ______ ____
ROOT
ATOM      1  C   UNL     1       5.526   4.967  17.993  0.00  0.00    +0.000 C 
ENDROOT
BRANCH   1   2
ATOM      2  C   UNL     1       4.830   4.075  16.958  0.00  0.00    +0.000 C 
BRANCH   2   3
ATOM      3  S   UNL     1       3.624   2.966  17.750  0.00  0.00    +0.000 S 
ATOM      4  O   UNL     1       2.239   3.242  17.062  0.00  0.00    +0.000 OA
BRANCH   3   5
ATOM      5  C   UNL     1       3.556   3.803  19.377  0.00  0.00    +0.000 C 
BRANCH   5   6
ATOM      6  C   UNL     1       3.091   2.782  20.414  0.00  0.00    +0.000 C 
BRANCH   6   8
ATOM      7  C   UNL     1       1.173   4.385  20.466  0.00  0.00    +0.000 C 
ATOM      8  C   UNL     1       1.854   3.228  21.185  0.00  0.00    +0.000 C 
ENDBRANCH   6   8
ENDBRANCH   5   6
ENDBRANCH   3   5
ENDBRANCH   2   3
ENDBRANCH   1   2
BRANCH   1   9
ATOM      9  CA  UNL     1       6.991   4.622  18.306  0.00  0.00    +0.000 C 
BRANCH   9  10
ATOM     10  N   UNL     1       7.788   4.299  17.089  0.00  0.00    +0.000 NA
ATOM     11  H1  UNL     1       7.707   5.066  16.419  0.00  0.00    +0.000 HD
ATOM     12  H2  UNL     1       7.345   3.486  16.641  0.00  0.00    +0.000 HD
ENDBRANCH   9  10
BRANCH   9  13
ATOM     13  C   UNL     1       7.699   5.774  19.038  0.00  0.00    +0.000 C 
ATOM     14  O   UNL     1       8.047   6.837  18.547  0.00  0.00    +0.000 OA
BRANCH  13  15
ATOM     15  OXT UNL     1       7.866   5.469  20.356  0.00  0.00    +0.000 OA
ATOM     16  HXT UNL     1       8.054   6.334  20.804  0.00  0.00    +0.000 HD
ENDBRANCH  13  15
ENDBRANCH   9  13
ENDBRANCH   1   9
TORSDOF 9
ENDMDL
MODEL 9
REMARK VINA RESULT:      -5.0      2.366      2.620
REMARK  Name = 
REMARK  10 active torsions:
REMARK  status: ('A' for Active; 'I' for Inactive)
REMARK    1  A    between atoms: C_1  and  C_2
REMARK    2  A    between atoms: C_2  and  C_3
REMARK    3  A    between atoms: C_3  and  C_4
REMARK    4  A    between atoms: C_4  and  S_5
REMARK    5  A    between atoms: S_5  and  C_7
REMARK    6  A    between atoms: C_7  and  C_8
REMARK    7  A    between atoms: C_8  and  CA_9
REMARK    8  A    between atoms: CA_9  and  N_10
REMARK    9  A    between atoms: CA_9  and  C_11
REMARK   10  A    between atoms: C_11  and  OXT_13
REMARK                            x       y       z     vdW  Elec       q    Type
REMARK                         _______ _______ _______ _____ _____    ______ ____
ROOT
ATOM      1  C   UNL     1       5.923   4.670  19.311  0.00  0.00    +0.000 C 
ENDROOT
BRANCH   1   2
ATOM      2  C   UNL     1       4.493   4.915  18.816  0.00  0.00    +0.000 C 
BRANCH   2   3
ATOM      3  S   UNL     1       3.955   3.602  17.677  0.00  0.00    +0.000 S 
ATOM      4  O   UNL     1       4.479   4.001  16.251  0.00  0.00    +0.000 OA
BRANCH   3   5
ATOM      5  C   UNL     1       2.166   3.990  17.685  0.00  0.00    +0.000 C 
BRANCH   5   6
ATOM      6  C   UNL     1       1.808   4.540  19.065  0.00  0.00    +0.000 C 
BRANCH   6   8
ATOM      7  C   UNL     1       1.647   3.245  21.197  0.00  0.00    +0.000 C 
ATOM      8  C   UNL     1       0.948   3.589  19.889  0.00  0.00    +0.000 C 
ENDBRANCH   6   8
ENDBRANCH   5   6
ENDBRANCH   3   5
ENDBRANCH   2   3
ENDBRANCH   1   2
BRANCH   1   9
ATOM      9  CA  UNL     1       6.965   5.729  18.916  0.00  0.00    +0.000 C 
BRANCH   9  10
ATOM     10  N   UNL     1       8.208   5.659  19.733  0.00  0.00    +0.000 NA
ATOM     11  H1  UNL     1       8.383   6.571  20.162  0.00  0.00    +0.000 HD
ATOM     12  H2  UNL     1       8.991   5.499  19.085  0.00  0.00    +0.000 HD
ENDBRANCH   9  10
BRANCH   9  13
ATOM     13  C   UNL     1       7.369   5.600  17.437  0.00  0.00    +0.000 C 
ATOM     14  O   UNL     1       7.528   6.519  16.649  0.00  0.00    +0.000 OA
BRANCH  13  15
ATOM     15  OXT UNL     1       7.570   4.292  17.111  0.00  0.00    +0.000 OA
ATOM     16  HXT UNL     1       6.824   4.055  16.502  0.00  0.00    +0.000 HD
ENDBRANCH  13  15
ENDBRANCH   9  13
ENDBRANCH   1   9
TORSDOF 9
ENDMDL
