MODEL 1
REMARK VINA RESULT:      -7.7      0.000      0.000
REMARK  Name = 
REMARK  10 active torsions:
REMARK  status: ('A' for Active; 'I' for Inactive)
REMARK    1  A    between atoms: C_1  and  C_2
REMARK    2  A    between atoms: C_2  and  C_3
REMARK    3  A    between atoms: C_8  and  C_9
REMARK    4  A    between atoms: C_12  and  C_13
REMARK    5  A    between atoms: N_15  and  C_16
REMARK    6  A    between atoms: C_16  and  C_17
REMARK    7  A    between atoms: C_17  and  O_18
REMARK    8  A    between atoms: O_18  and  C_19
REMARK    9  A    between atoms: C_22  and  O_23
REMARK   10  A    between atoms: O_23  and  C_24
REMARK                            x       y       z     vdW  Elec       q    Type
REMARK                         _______ _______ _______ _____ _____    ______ ____
ROOT
ATOM      1  C   UNL     1       4.514   4.020  16.945  0.00  0.00    +0.000 C 
ATOM      2  O   UNL     1       4.471   2.852  17.322  0.00  0.00    +0.000 OA
ATOM      3  N   UNL     1       3.466   4.882  17.188  0.00  0.00    +0.000 N 
ATOM      4  H   UNL     1       3.638   5.873  17.099  0.00  0.00    +0.000 HD
ENDROOT
BRANCH   1  14
ATOM      5  C   UNL     1       6.621   5.511  16.706  0.00  0.00    +0.000 A 
ATOM      6  N   UNL     1       7.527   5.789  15.710  0.00  0.00    +0.000 NA
ATOM      7  C   UNL     1       7.120   5.118  14.660  0.00  0.00    +0.000 A 
ATOM      8  C   UNL     1       7.654   5.057  13.344  0.00  0.00    +0.000 A 
ATOM      9  C   UNL     1       7.058   4.292  12.411  0.00  0.00    +0.000 A 
ATOM     10  C   UNL     1       5.865   3.507  12.715  0.00  0.00    +0.000 A 
ATOM     11  C   UNL     1       5.251   2.682  11.627  0.00  0.00    +0.000 C 
ATOM     12  C   UNL     1       5.362   3.569  13.965  0.00  0.00    +0.000 A 
ATOM     13  N   UNL     1       5.977   4.372  14.935  0.00  0.00    +0.000 N 
ATOM     14  C   UNL     1       5.657   4.597  16.273  0.00  0.00    +0.000 A 
BRANCH   5  16
ATOM     15  C   UNL     1       7.824   5.609  18.900  0.00  0.00    +0.000 C 
ATOM     16  C   UNL     1       6.780   6.246  17.996  0.00  0.00    +0.000 C 
ENDBRANCH   5  16
ENDBRANCH   1  14
BRANCH   3  17
ATOM     17  C   UNL     1       2.263   4.467  17.899  0.00  0.00    +0.000 C 
BRANCH  17  18
ATOM     18  C   UNL     1       2.131   5.167  19.252  0.00  0.00    +0.000 C 
BRANCH  18  19
ATOM     19  O   UNL     1       2.954   6.338  19.300  0.00  0.00    +0.000 OA
BRANCH  19  20
ATOM     20  C   UNL     1       2.280   7.535  19.302  0.00  0.00    +0.000 A 
ATOM     21  C   UNL     1       1.618   8.082  20.403  0.00  0.00    +0.000 A 
ATOM     22  C   UNL     1       0.937   9.297  20.287  0.00  0.00    +0.000 A 
ATOM     23  C   UNL     1       0.917   9.990  19.079  0.00  0.00    +0.000 A 
ATOM     24  C   UNL     1       1.581   9.456  17.977  0.00  0.00    +0.000 A 
ATOM     25  C   UNL     1       2.257   8.230  18.092  0.00  0.00    +0.000 A 
BRANCH  23  26
ATOM     26  O   UNL     1       0.164  11.130  19.088  0.00  0.00    +0.000 OA
ATOM     27  C   UNL     1      -0.966  11.136  19.950  0.00  0.00    +0.000 C 
ENDBRANCH  23  26
ENDBRANCH  19  20
ENDBRANCH  18  19
ENDBRANCH  17  18
ENDBRANCH   3  17
TORSDOF 7
ENDMDL
MODEL 2
REMARK VINA RESULT:      -7.7      5.105      7.449
REMARK  Name = 
REMARK  10 active torsions:
REMARK  status: ('A' for Active; 'I' for Inactive)
REMARK    1  A    between atoms: C_1  and  C_2
REMARK    2  A    between atoms: C_2  and  C_3
REMARK    3  A    between atoms: C_8  and  C_9
REMARK    4  A    between atoms: C_12  and  C_13
REMARK    5  A    between atoms: N_15  and  C_16
REMARK    6  A    between atoms: C_16  and  C_17
REMARK    7  A    between atoms: C_17  and  O_18
REMARK    8  A    between atoms: O_18  and  C_19
REMARK    9  A    between atoms: C_22  and  O_23
REMARK   10  A    between atoms: O_23  and  C_24
REMARK                            x       y       z     vdW  Elec       q    Type
REMARK                         _______ _______ _______ _____ _____    ______ ____
ROOT
ATOM      1  C   UNL     1       6.985   5.817  18.415  0.00  0.00    +0.000 C 
ATOM      2  O   UNL     1       7.532   5.344  19.407  0.00  0.00    +0.000 OA
ATOM      3  N   UNL     1       7.364   7.046  17.916  0.00  0.00    +0.000 N 
ATOM      4  H   UNL     1       7.084   7.281  16.975  0.00  0.00    +0.000 HD
ENDROOT
BRANCH   1  14
ATOM      5  C   UNL     1       5.941   4.623  16.365  0.00  0.00    +0.000 A 
ATOM      6  N   UNL     1       4.728   4.049  16.069  0.00  0.00    +0.000 NA
ATOM      7  C   UNL     1       3.978   4.231  17.128  0.00  0.00    +0.000 A 
ATOM      8  C   UNL     1       2.624   3.874  17.369  0.00  0.00    +0.000 A 
ATOM      9  C   UNL     1       2.048   4.172  18.549  0.00  0.00    +0.000 A 
ATOM     10  C   UNL     1       2.787   4.856  19.607  0.00  0.00    +0.000 A 
ATOM     11  C   UNL     1       2.082   5.159  20.893  0.00  0.00    +0.000 C 
ATOM     12  C   UNL     1       4.071   5.192  19.373  0.00  0.00    +0.000 A 
ATOM     13  N   UNL     1       4.668   4.891  18.142  0.00  0.00    +0.000 N 
ATOM     14  C   UNL     1       5.958   5.127  17.668  0.00  0.00    +0.000 A 
BRANCH   5  16
ATOM     15  C   UNL     1       6.443   4.062  13.977  0.00  0.00    +0.000 C 
ATOM     16  C   UNL     1       6.961   4.663  15.275  0.00  0.00    +0.000 C 
ENDBRANCH   5  16
ENDBRANCH   1  14
BRANCH   3  17
ATOM     17  C   UNL     1       8.420   7.844  18.526  0.00  0.00    +0.000 C 
BRANCH  17  18
ATOM     18  C   UNL     1       8.330   9.315  18.120  0.00  0.00    +0.000 C 
BRANCH  18  19
ATOM     19  O   UNL     1       8.923  10.154  19.118  0.00  0.00    +0.000 OA
BRANCH  19  20
ATOM     20  C   UNL     1       9.522  11.298  18.649  0.00  0.00    +0.000 A 
ATOM     21  C   UNL     1      10.568  11.336  17.725  0.00  0.00    +0.000 A 
ATOM     22  C   UNL     1      11.126  12.556  17.336  0.00  0.00    +0.000 A 
ATOM     23  C   UNL     1      10.640  13.757  17.850  0.00  0.00    +0.000 A 
ATOM     24  C   UNL     1       9.591  13.730  18.766  0.00  0.00    +0.000 A 
ATOM     25  C   UNL     1       9.038  12.502  19.164  0.00  0.00    +0.000 A 
BRANCH  23  26
ATOM     26  O   UNL     1      11.316  14.869  17.433  0.00  0.00    +0.000 OA
ATOM     27  C   UNL     1      10.527  16.007  17.112  0.00  0.00    +0.000 C 
ENDBRANCH  23  26
ENDBRANCH  19  20
ENDBRANCH  18  19
ENDBRANCH  17  18
ENDBRANCH   3  17
TORSDOF 7
ENDMDL
MODEL 3
REMARK VINA RESULT:      -7.7      0.374      1.063
REMARK  Name = 
REMARK  10 active torsions:
REMARK  status: ('A' for Active; 'I' for Inactive)
REMARK    1  A    between atoms: C_1  and  C_2
REMARK    2  A    between atoms: C_2  and  C_3
REMARK    3  A    between atoms: C_8  and  C_9
REMARK    4  A    between atoms: C_12  and  C_13
REMARK    5  A    between atoms: N_15  and  C_16
REMARK    6  A    between atoms: C_16  and  C_17
REMARK    7  A    between atoms: C_17  and  O_18
REMARK    8  A    between atoms: O_18  and  C_19
REMARK    9  A    between atoms: C_22  and  O_23
REMARK   10  A    between atoms: O_23  and  C_24
REMARK                            x       y       z     vdW  Elec       q    Type
REMARK                         _______ _______ _______ _____ _____    ______ ____
ROOT
ATOM      1  C   UNL     1       4.687   3.984  17.011  0.00  0.00    +0.000 C 
ATOM      2  O   UNL     1       4.758   2.863  17.505  0.00  0.00    +0.000 OA
ATOM      3  N   UNL     1       3.558   4.760  17.172  0.00  0.00    +0.000 N 
ATOM      4  H   UNL     1       3.631   5.748  16.981  0.00  0.00    +0.000 HD
ENDROOT
BRANCH   1  14
ATOM      5  C   UNL     1       6.703   5.573  16.645  0.00  0.00    +0.000 A 
ATOM      6  N   UNL     1       7.551   5.869  15.604  0.00  0.00    +0.000 NA
ATOM      7  C   UNL     1       7.136   5.150  14.590  0.00  0.00    +0.000 A 
ATOM      8  C   UNL     1       7.617   5.081  13.254  0.00  0.00    +0.000 A 
ATOM      9  C   UNL     1       7.022   4.262  12.366  0.00  0.00    +0.000 A 
ATOM     10  C   UNL     1       5.884   3.427  12.741  0.00  0.00    +0.000 A 
ATOM     11  C   UNL     1       5.269   2.543  11.700  0.00  0.00    +0.000 C 
ATOM     12  C   UNL     1       5.432   3.497  14.009  0.00  0.00    +0.000 A 
ATOM     13  N   UNL     1       6.045   4.356  14.931  0.00  0.00    +0.000 N 
ATOM     14  C   UNL     1       5.770   4.600  16.276  0.00  0.00    +0.000 A 
BRANCH   5  16
ATOM     15  C   UNL     1       7.680   7.624  17.698  0.00  0.00    +0.000 C 
ATOM     16  C   UNL     1       6.878   6.349  17.908  0.00  0.00    +0.000 C 
ENDBRANCH   5  16
ENDBRANCH   1  14
BRANCH   3  17
ATOM     17  C   UNL     1       2.400   4.302  17.929  0.00  0.00    +0.000 C 
BRANCH  17  18
ATOM     18  C   UNL     1       2.289   5.006  19.282  0.00  0.00    +0.000 C 
BRANCH  18  19
ATOM     19  O   UNL     1       3.070   6.207  19.295  0.00  0.00    +0.000 OA
BRANCH  19  20
ATOM     20  C   UNL     1       2.359   7.376  19.170  0.00  0.00    +0.000 A 
ATOM     21  C   UNL     1       2.240   8.122  17.996  0.00  0.00    +0.000 A 
ATOM     22  C   UNL     1       1.514   9.316  17.987  0.00  0.00    +0.000 A 
ATOM     23  C   UNL     1       0.884   9.776  19.141  0.00  0.00    +0.000 A 
ATOM     24  C   UNL     1       0.990   9.034  20.315  0.00  0.00    +0.000 A 
ATOM     25  C   UNL     1       1.729   7.839  20.326  0.00  0.00    +0.000 A 
BRANCH  23  26
ATOM     26  O   UNL     1       0.262  10.985  19.007  0.00  0.00    +0.000 OA
ATOM     27  C   UNL     1      -0.761  11.279  19.948  0.00  0.00    +0.000 C 
ENDBRANCH  23  26
ENDBRANCH  19  20
ENDBRANCH  18  19
ENDBRANCH  17  18
ENDBRANCH   3  17
TORSDOF 7
ENDMDL
MODEL 4
REMARK VINA RESULT:      -7.6      1.226      1.556
REMARK  Name = 
REMARK  10 active torsions:
REMARK  status: ('A' for Active; 'I' for Inactive)
REMARK    1  A    between atoms: C_1  and  C_2
REMARK    2  A    between atoms: C_2  and  C_3
REMARK    3  A    between atoms: C_8  and  C_9
REMARK    4  A    between atoms: C_12  and  C_13
REMARK    5  A    between atoms: N_15  and  C_16
REMARK    6  A    between atoms: C_16  and  C_17
REMARK    7  A    between atoms: C_17  and  O_18
REMARK    8  A    between atoms: O_18  and  C_19
REMARK    9  A    between atoms: C_22  and  O_23
REMARK   10  A    between atoms: O_23  and  C_24
REMARK                            x       y       z     vdW  Elec       q    Type
REMARK                         _______ _______ _______ _____ _____    ______ ____
ROOT
ATOM      1  C   UNL     1       4.772   3.872  16.843  0.00  0.00    +0.000 C 
ATOM      2  O   UNL     1       3.656   3.665  16.376  0.00  0.00    +0.000 OA
ATOM      3  N   UNL     1       5.095   3.455  18.118  0.00  0.00    +0.000 N 
ATOM      4  H   UNL     1       6.073   3.409  18.367  0.00  0.00    +0.000 HD
ENDROOT
BRANCH   1  14
ATOM      5  C   UNL     1       6.770   5.482  16.474  0.00  0.00    +0.000 A 
ATOM      6  N   UNL     1       7.600   5.802  15.426  0.00  0.00    +0.000 NA
ATOM      7  C   UNL     1       7.176   5.096  14.406  0.00  0.00    +0.000 A 
ATOM      8  C   UNL     1       7.638   5.052  13.063  0.00  0.00    +0.000 A 
ATOM      9  C   UNL     1       7.037   4.243  12.170  0.00  0.00    +0.000 A 
ATOM     10  C   UNL     1       5.912   3.393  12.548  0.00  0.00    +0.000 A 
ATOM     11  C   UNL     1       5.288   2.521  11.502  0.00  0.00    +0.000 C 
ATOM     12  C   UNL     1       5.477   3.439  13.824  0.00  0.00    +0.000 A 
ATOM     13  N   UNL     1       6.097   4.287  14.751  0.00  0.00    +0.000 N 
ATOM     14  C   UNL     1       5.839   4.508  16.103  0.00  0.00    +0.000 A 
BRANCH   5  16
ATOM     15  C   UNL     1       7.579   7.609  17.520  0.00  0.00    +0.000 C 
ATOM     16  C   UNL     1       6.957   6.239  17.747  0.00  0.00    +0.000 C 
ENDBRANCH   5  16
ENDBRANCH   1  14
BRANCH   3  17
ATOM     17  C   UNL     1       4.146   2.754  18.973  0.00  0.00    +0.000 C 
BRANCH  17  18
ATOM     18  C   UNL     1       3.556   3.673  20.043  0.00  0.00    +0.000 C 
BRANCH  18  19
ATOM     19  O   UNL     1       2.265   4.149  19.647  0.00  0.00    +0.000 OA
BRANCH  19  20
ATOM     20  C   UNL     1       2.128   5.516  19.598  0.00  0.00    +0.000 A 
ATOM     21  C   UNL     1       1.700   6.317  20.658  0.00  0.00    +0.000 A 
ATOM     22  C   UNL     1       1.568   7.698  20.492  0.00  0.00    +0.000 A 
ATOM     23  C   UNL     1       1.875   8.302  19.275  0.00  0.00    +0.000 A 
ATOM     24  C   UNL     1       2.311   7.511  18.214  0.00  0.00    +0.000 A 
ATOM     25  C   UNL     1       2.433   6.121  18.379  0.00  0.00    +0.000 A 
BRANCH  23  26
ATOM     26  O   UNL     1       1.643   9.648  19.231  0.00  0.00    +0.000 OA
ATOM     27  C   UNL     1       0.343  10.079  19.611  0.00  0.00    +0.000 C 
ENDBRANCH  23  26
ENDBRANCH  19  20
ENDBRANCH  18  19
ENDBRANCH  17  18
ENDBRANCH   3  17
TORSDOF 7
ENDMDL
MODEL 5
REMARK VINA RESULT:      -7.5      1.267      1.937
REMARK  Name = 
REMARK  10 active torsions:
REMARK  status: ('A' for Active; 'I' for Inactive)
REMARK    1  A    between atoms: C_1  and  C_2
REMARK    2  A    between atoms: C_2  and  C_3
REMARK    3  A    between atoms: C_8  and  C_9
REMARK    4  A    between atoms: C_12  and  C_13
REMARK    5  A    between atoms: N_15  and  C_16
REMARK    6  A    between atoms: C_16  and  C_17
REMARK    7  A    between atoms: C_17  and  O_18
REMARK    8  A    between atoms: O_18  and  C_19
REMARK    9  A    between atoms: C_22  and  O_23
REMARK   10  A    between atoms: O_23  and  C_24
REMARK                            x       y       z     vdW  Elec       q    Type
REMARK                         _______ _______ _______ _____ _____    ______ ____
ROOT
ATOM      1  C   UNL     1       4.848   3.953  16.786  0.00  0.00    +0.000 C 
ATOM      2  O   UNL     1       3.689   3.884  16.388  0.00  0.00    +0.000 OA
ATOM      3  N   UNL     1       5.210   3.424  18.008  0.00  0.00    +0.000 N 
ATOM      4  H   UNL     1       6.191   3.269  18.185  0.00  0.00    +0.000 HD
ENDROOT
BRANCH   1  14
ATOM      5  C   UNL     1       6.913   5.457  16.351  0.00  0.00    +0.000 A 
ATOM      6  N   UNL     1       7.727   5.732  15.277  0.00  0.00    +0.000 NA
ATOM      7  C   UNL     1       7.236   5.047  14.273  0.00  0.00    +0.000 A 
ATOM      8  C   UNL     1       7.653   4.977  12.916  0.00  0.00    +0.000 A 
ATOM      9  C   UNL     1       6.984   4.198  12.045  0.00  0.00    +0.000 A 
ATOM     10  C   UNL     1       5.829   3.408  12.460  0.00  0.00    +0.000 A 
ATOM     11  C   UNL     1       5.129   2.568  11.437  0.00  0.00    +0.000 C 
ATOM     12  C   UNL     1       5.437   3.479  13.749  0.00  0.00    +0.000 A 
ATOM     13  N   UNL     1       6.127   4.296  14.653  0.00  0.00    +0.000 N 
ATOM     14  C   UNL     1       5.923   4.532  16.012  0.00  0.00    +0.000 A 
BRANCH   5  16
ATOM     15  C   UNL     1       7.371   7.696  17.376  0.00  0.00    +0.000 C 
ATOM     16  C   UNL     1       7.178   6.206  17.616  0.00  0.00    +0.000 C 
ENDBRANCH   5  16
ENDBRANCH   1  14
BRANCH   3  17
ATOM     17  C   UNL     1       4.252   2.761  18.885  0.00  0.00    +0.000 C 
BRANCH  17  18
ATOM     18  C   UNL     1       3.738   3.697  19.979  0.00  0.00    +0.000 C 
BRANCH  18  19
ATOM     19  O   UNL     1       2.394   4.109  19.703  0.00  0.00    +0.000 OA
BRANCH  19  20
ATOM     20  C   UNL     1       2.194   5.466  19.628  0.00  0.00    +0.000 A 
ATOM     21  C   UNL     1       2.557   6.272  18.548  0.00  0.00    +0.000 A 
ATOM     22  C   UNL     1       2.333   7.651  18.588  0.00  0.00    +0.000 A 
ATOM     23  C   UNL     1       1.731   8.244  19.696  0.00  0.00    +0.000 A 
ATOM     24  C   UNL     1       1.358   7.445  20.775  0.00  0.00    +0.000 A 
ATOM     25  C   UNL     1       1.593   6.061  20.739  0.00  0.00    +0.000 A 
BRANCH  23  26
ATOM     26  O   UNL     1       1.629   9.604  19.629  0.00  0.00    +0.000 OA
ATOM     27  C   UNL     1       1.450  10.163  18.335  0.00  0.00    +0.000 C 
ENDBRANCH  23  26
ENDBRANCH  19  20
ENDBRANCH  18  19
ENDBRANCH  17  18
ENDBRANCH   3  17
TORSDOF 7
ENDMDL
MODEL 6
REMARK VINA RESULT:      -7.5      1.289      1.727
REMARK  Name = 
REMARK  10 active torsions:
REMARK  status: ('A' for Active; 'I' for Inactive)
REMARK    1  A    between atoms: C_1  and  C_2
REMARK    2  A    between atoms: C_2  and  C_3
REMARK    3  A    between atoms: C_8  and  C_9
REMARK    4  A    between atoms: C_12  and  C_13
REMARK    5  A    between atoms: N_15  and  C_16
REMARK    6  A    between atoms: C_16  and  C_17
REMARK    7  A    between atoms: C_17  and  O_18
REMARK    8  A    between atoms: O_18  and  C_19
REMARK    9  A    between atoms: C_22  and  O_23
REMARK   10  A    between atoms: O_23  and  C_24
REMARK                            x       y       z     vdW  Elec       q    Type
REMARK                         _______ _______ _______ _____ _____    ______ ____
ROOT
ATOM      1  C   UNL     1       4.642   4.477  16.945  0.00  0.00    +0.000 C 
ATOM      2  O   UNL     1       4.447   3.353  17.400  0.00  0.00    +0.000 OA
ATOM      3  N   UNL     1       3.762   5.508  17.203  0.00  0.00    +0.000 N 
ATOM      4  H   UNL     1       4.078   6.452  17.038  0.00  0.00    +0.000 HD
ENDROOT
BRANCH   1  14
ATOM      5  C   UNL     1       6.955   5.552  16.483  0.00  0.00    +0.000 A 
ATOM      6  N   UNL     1       7.801   5.649  15.404  0.00  0.00    +0.000 NA
ATOM      7  C   UNL     1       7.184   5.055  14.412  0.00  0.00    +0.000 A 
ATOM      8  C   UNL     1       7.575   4.885  13.056  0.00  0.00    +0.000 A 
ATOM      9  C   UNL     1       6.766   4.235  12.198  0.00  0.00    +0.000 A 
ATOM     10  C   UNL     1       5.483   3.687  12.627  0.00  0.00    +0.000 A 
ATOM     11  C   UNL     1       4.631   2.980  11.618  0.00  0.00    +0.000 C 
ATOM     12  C   UNL     1       5.117   3.852  13.914  0.00  0.00    +0.000 A 
ATOM     13  N   UNL     1       5.954   4.536  14.805  0.00  0.00    +0.000 N 
ATOM     14  C   UNL     1       5.805   4.828  16.160  0.00  0.00    +0.000 A 
BRANCH   5  16
ATOM     15  C   UNL     1       7.591   7.743  17.514  0.00  0.00    +0.000 C 
ATOM     16  C   UNL     1       7.363   6.256  17.735  0.00  0.00    +0.000 C 
ENDBRANCH   5  16
ENDBRANCH   1  14
BRANCH   3  17
ATOM     17  C   UNL     1       2.569   5.329  18.020  0.00  0.00    +0.000 C 
BRANCH  17  18
ATOM     18  C   UNL     1       2.515   6.327  19.177  0.00  0.00    +0.000 C 
BRANCH  18  19
ATOM     19  O   UNL     1       2.171   7.634  18.703  0.00  0.00    +0.000 OA
BRANCH  19  20
ATOM     20  C   UNL     1       1.627   8.479  19.639  0.00  0.00    +0.000 A 
ATOM     21  C   UNL     1       1.186   9.780  19.387  0.00  0.00    +0.000 A 
ATOM     22  C   UNL     1       0.674  10.566  20.422  0.00  0.00    +0.000 A 
ATOM     23  C   UNL     1       0.579  10.065  21.719  0.00  0.00    +0.000 A 
ATOM     24  C   UNL     1       1.009   8.765  21.978  0.00  0.00    +0.000 A 
ATOM     25  C   UNL     1       1.534   7.979  20.939  0.00  0.00    +0.000 A 
BRANCH  23  26
ATOM     26  O   UNL     1       0.119  10.959  22.643  0.00  0.00    +0.000 OA
ATOM     27  C   UNL     1      -1.183  10.721  23.162  0.00  0.00    +0.000 C 
ENDBRANCH  23  26
ENDBRANCH  19  20
ENDBRANCH  18  19
ENDBRANCH  17  18
ENDBRANCH   3  17
TORSDOF 7
ENDMDL
MODEL 7
REMARK VINA RESULT:      -7.3      2.384      4.945
REMARK  Name = 
REMARK  10 active torsions:
REMARK  status: ('A' for Active; 'I' for Inactive)
REMARK    1  A    between atoms: C_1  and  C_2
REMARK    2  A    between atoms: C_2  and  C_3
REMARK    3  A    between atoms: C_8  and  C_9
REMARK    4  A    between atoms: C_12  and  C_13
REMARK    5  A    between atoms: N_15  and  C_16
REMARK    6  A    between atoms: C_16  and  C_17
REMARK    7  A    between atoms: C_17  and  O_18
REMARK    8  A    between atoms: O_18  and  C_19
REMARK    9  A    between atoms: C_22  and  O_23
REMARK   10  A    between atoms: O_23  and  C_24
REMARK                            x       y       z     vdW  Elec       q    Type
REMARK                         _______ _______ _______ _____ _____    ______ ____
ROOT
ATOM      1  C   UNL     1       2.494   6.468  18.982  0.00  0.00    +0.000 C 
ATOM      2  O   UNL     1       2.268   6.315  20.179  0.00  0.00    +0.000 OA
ATOM      3  N   UNL     1       2.199   7.659  18.353  0.00  0.00    +0.000 N 
ATOM      4  H   UNL     1       2.625   7.838  17.455  0.00  0.00    +0.000 HD
ENDROOT
BRANCH   1  14
ATOM      5  C   UNL     1       2.663   4.218  17.705  0.00  0.00    +0.000 A 
ATOM      6  N   UNL     1       3.614   3.585  16.942  0.00  0.00    +0.000 NA
ATOM      7  C   UNL     1       4.662   4.372  16.952  0.00  0.00    +0.000 A 
ATOM      8  C   UNL     1       5.942   4.207  16.357  0.00  0.00    +0.000 A 
ATOM      9  C   UNL     1       6.882   5.160  16.506  0.00  0.00    +0.000 A 
ATOM     10  C   UNL     1       6.619   6.378  17.266  0.00  0.00    +0.000 A 
ATOM     11  C   UNL     1       7.713   7.394  17.394  0.00  0.00    +0.000 C 
ATOM     12  C   UNL     1       5.403   6.530  17.828  0.00  0.00    +0.000 A 
ATOM     13  N   UNL     1       4.428   5.535  17.681  0.00  0.00    +0.000 N 
ATOM     14  C   UNL     1       3.118   5.460  18.155  0.00  0.00    +0.000 A 
BRANCH   5  16
ATOM     15  C   UNL     1       1.305   2.952  19.386  0.00  0.00    +0.000 C 
ATOM     16  C   UNL     1       1.391   3.478  17.962  0.00  0.00    +0.000 C 
ENDBRANCH   5  16
ENDBRANCH   1  14
BRANCH   3  17
ATOM     17  C   UNL     1       1.614   8.791  19.060  0.00  0.00    +0.000 C 
BRANCH  17  18
ATOM     18  C   UNL     1       0.881   9.739  18.110  0.00  0.00    +0.000 C 
BRANCH  18  19
ATOM     19  O   UNL     1       0.097  10.687  18.844  0.00  0.00    +0.000 OA
BRANCH  19  20
ATOM     20  C   UNL     1      -1.208  10.819  18.436  0.00  0.00    +0.000 A 
ATOM     21  C   UNL     1      -2.145  11.680  19.010  0.00  0.00    +0.000 A 
ATOM     22  C   UNL     1      -3.458  11.714  18.534  0.00  0.00    +0.000 A 
ATOM     23  C   UNL     1      -3.853  10.904  17.471  0.00  0.00    +0.000 A 
ATOM     24  C   UNL     1      -2.922  10.048  16.887  0.00  0.00    +0.000 A 
ATOM     25  C   UNL     1      -1.605  10.006  17.373  0.00  0.00    +0.000 A 
BRANCH  23  26
ATOM     26  O   UNL     1      -5.177  10.992  17.149  0.00  0.00    +0.000 OA
ATOM     27  C   UNL     1      -6.076  11.238  18.222  0.00  0.00    +0.000 C 
ENDBRANCH  23  26
ENDBRANCH  19  20
ENDBRANCH  18  19
ENDBRANCH  17  18
ENDBRANCH   3  17
TORSDOF 7
ENDMDL
MODEL 8
REMARK VINA RESULT:      -7.3      1.772      2.647
REMARK  Name = 
REMARK  10 active torsions:
REMARK  status: ('A' for Active; 'I' for Inactive)
REMARK    1  A    between atoms: C_1  and  C_2
REMARK    2  A    between atoms: C_2  and  C_3
REMARK    3  A    between atoms: C_8  and  C_9
REMARK    4  A    between atoms: C_12  and  C_13
REMARK    5  A    between atoms: N_15  and  C_16
REMARK    6  A    between atoms: C_16  and  C_17
REMARK    7  A    between atoms: C_17  and  O_18
REMARK    8  A    between atoms: O_18  and  C_19
REMARK    9  A    between atoms: C_22  and  O_23
REMARK   10  A    between atoms: O_23  and  C_24
REMARK                            x       y       z     vdW  Elec       q    Type
REMARK                         _______ _______ _______ _____ _____    ______ ____
ROOT
ATOM      1  C   UNL     1       4.580   4.090  16.674  0.00  0.00    +0.000 C 
ATOM      2  O   UNL     1       3.485   4.643  16.703  0.00  0.00    +0.000 OA
ATOM      3  N   UNL     1       4.777   2.874  17.295  0.00  0.00    +0.000 N 
ATOM      4  H   UNL     1       5.592   2.337  17.038  0.00  0.00    +0.000 HD
ENDROOT
BRANCH   1  14
ATOM      5  C   UNL     1       6.710   5.531  16.347  0.00  0.00    +0.000 A 
ATOM      6  N   UNL     1       7.604   5.756  15.327  0.00  0.00    +0.000 NA
ATOM      7  C   UNL     1       7.167   5.055  14.309  0.00  0.00    +0.000 A 
ATOM      8  C   UNL     1       7.676   4.937  12.987  0.00  0.00    +0.000 A 
ATOM      9  C   UNL     1       7.050   4.151  12.091  0.00  0.00    +0.000 A 
ATOM     10  C   UNL     1       5.848   3.402  12.444  0.00  0.00    +0.000 A 
ATOM     11  C   UNL     1       5.200   2.550  11.396  0.00  0.00    +0.000 C 
ATOM     12  C   UNL     1       5.368   3.518  13.699  0.00  0.00    +0.000 A 
ATOM     13  N   UNL     1       6.015   4.342  14.629  0.00  0.00    +0.000 N 
ATOM     14  C   UNL     1       5.722   4.621  15.963  0.00  0.00    +0.000 A 
BRANCH   5  16
ATOM     15  C   UNL     1       7.714   5.540  18.641  0.00  0.00    +0.000 C 
ATOM     16  C   UNL     1       6.906   6.308  17.607  0.00  0.00    +0.000 C 
ENDBRANCH   5  16
ENDBRANCH   1  14
BRANCH   3  17
ATOM     17  C   UNL     1       3.711   2.183  18.010  0.00  0.00    +0.000 C 
BRANCH  17  18
ATOM     18  C   UNL     1       4.096   1.889  19.461  0.00  0.00    +0.000 C 
BRANCH  18  19
ATOM     19  O   UNL     1       3.059   2.309  20.355  0.00  0.00    +0.000 OA
BRANCH  19  20
ATOM     20  C   UNL     1       2.713   3.637  20.278  0.00  0.00    +0.000 A 
ATOM     21  C   UNL     1       1.414   4.136  20.398  0.00  0.00    +0.000 A 
ATOM     22  C   UNL     1       1.169   5.505  20.274  0.00  0.00    +0.000 A 
ATOM     23  C   UNL     1       2.213   6.399  20.045  0.00  0.00    +0.000 A 
ATOM     24  C   UNL     1       3.513   5.910  19.932  0.00  0.00    +0.000 A 
ATOM     25  C   UNL     1       3.758   4.532  20.046  0.00  0.00    +0.000 A 
BRANCH  23  26
ATOM     26  O   UNL     1       1.826   7.699  19.883  0.00  0.00    +0.000 OA
ATOM     27  C   UNL     1       1.323   8.359  21.037  0.00  0.00    +0.000 C 
ENDBRANCH  23  26
ENDBRANCH  19  20
ENDBRANCH  18  19
ENDBRANCH  17  18
ENDBRANCH   3  17
TORSDOF 7
ENDMDL
MODEL 9
REMARK VINA RESULT:      -7.3      3.318      4.622
REMARK  Name = 
REMARK  10 active torsions:
REMARK  status: ('A' for Active; 'I' for Inactive)
REMARK    1  A    between atoms: C_1  and  C_2
REMARK    2  A    between atoms: C_2  and  C_3
REMARK    3  A    between atoms: C_8  and  C_9
REMARK    4  A    between atoms: C_12  and  C_13
REMARK    5  A    between atoms: N_15  and  C_16
REMARK    6  A    between atoms: C_16  and  C_17
REMARK    7  A    between atoms: C_17  and  O_18
REMARK    8  A    between atoms: O_18  and  C_19
REMARK    9  A    between atoms: C_22  and  O_23
REMARK   10  A    between atoms: O_23  and  C_24
REMARK                            x       y       z     vdW  Elec       q    Type
REMARK                         _______ _______ _______ _____ _____    ______ ____
ROOT
ATOM      1  C   UNL     1       4.130   6.739  17.416  0.00  0.00    +0.000 C 
ATOM      2  O   UNL     1       4.429   6.987  16.252  0.00  0.00    +0.000 OA
ATOM      3  N   UNL     1       3.228   7.528  18.099  0.00  0.00    +0.000 N 
ATOM      4  H   UNL     1       2.818   7.156  18.944  0.00  0.00    +0.000 HD
ENDROOT
BRANCH   1  14
ATOM      5  C   UNL     1       5.935   5.269  18.556  0.00  0.00    +0.000 A 
ATOM      6  N   UNL     1       5.955   4.064  19.219  0.00  0.00    +0.000 NA
ATOM      7  C   UNL     1       4.723   3.617  19.181  0.00  0.00    +0.000 A 
ATOM      8  C   UNL     1       4.169   2.406  19.679  0.00  0.00    +0.000 A 
ATOM      9  C   UNL     1       2.857   2.150  19.520  0.00  0.00    +0.000 A 
ATOM     10  C   UNL     1       1.972   3.096  18.846  0.00  0.00    +0.000 A 
ATOM     11  C   UNL     1       0.524   2.744  18.700  0.00  0.00    +0.000 C 
ATOM     12  C   UNL     1       2.503   4.243  18.376  0.00  0.00    +0.000 A 
ATOM     13  N   UNL     1       3.870   4.505  18.533  0.00  0.00    +0.000 N 
ATOM     14  C   UNL     1       4.642   5.600  18.145  0.00  0.00    +0.000 A 
BRANCH   5  16
ATOM     15  C   UNL     1       8.137   5.887  19.577  0.00  0.00    +0.000 C 
ATOM     16  C   UNL     1       7.247   5.951  18.345  0.00  0.00    +0.000 C 
ENDBRANCH   5  16
ENDBRANCH   1  14
BRANCH   3  17
ATOM     17  C   UNL     1       2.584   8.684  17.489  0.00  0.00    +0.000 C 
BRANCH  17  18
ATOM     18  C   UNL     1       1.346   9.126  18.269  0.00  0.00    +0.000 C 
BRANCH  18  19
ATOM     19  O   UNL     1       1.421   8.686  19.631  0.00  0.00    +0.000 OA
BRANCH  19  20
ATOM     20  C   UNL     1       0.753   9.467  20.543  0.00  0.00    +0.000 A 
ATOM     21  C   UNL     1       0.449  10.819  20.371  0.00  0.00    +0.000 A 
ATOM     22  C   UNL     1      -0.210  11.528  21.378  0.00  0.00    +0.000 A 
ATOM     23  C   UNL     1      -0.590  10.900  22.562  0.00  0.00    +0.000 A 
ATOM     24  C   UNL     1      -0.298   9.549  22.738  0.00  0.00    +0.000 A 
ATOM     25  C   UNL     1       0.375   8.839  21.730  0.00  0.00    +0.000 A 
BRANCH  23  26
ATOM     26  O   UNL     1      -1.170  11.724  23.484  0.00  0.00    +0.000 OA
ATOM     27  C   UNL     1      -2.559  11.978  23.321  0.00  0.00    +0.000 C 
ENDBRANCH  23  26
ENDBRANCH  19  20
ENDBRANCH  18  19
ENDBRANCH  17  18
ENDBRANCH   3  17
TORSDOF 7
ENDMDL
