MODEL 1
REMARK VINA RESULT:      -6.7      0.000      0.000
REMARK  Name = 
REMARK  5 active torsions:
REMARK  status: ('A' for Active; 'I' for Inactive)
REMARK    1  A    between atoms: C_2  and  O_3
REMARK    2  A    between atoms: C_2  and  C_4
REMARK    3  A    between atoms: C_5  and  O_6
REMARK    4  A    between atoms: C_7  and  C_8
REMARK    5  A    between atoms: C_17  and  C_18
REMARK                            x       y       z     vdW  Elec       q    Type
REMARK                         _______ _______ _______ _____ _____    ______ ____
ROOT
ATOM      1  C   UNL     1      -0.649  10.924  18.910  0.00  0.00    +0.000 A 
ATOM      2  C   UNL     1      -0.764  11.656  20.102  0.00  0.00    +0.000 A 
ATOM      3  C   UNL     1      -1.989  12.232  20.404  0.00  0.00    +0.000 A 
ATOM      4  N   UNL     1      -3.051  12.069  19.574  0.00  0.00    +0.000 NA
ATOM      5  C   UNL     1      -2.976  11.356  18.427  0.00  0.00    +0.000 A 
ATOM      6  C   UNL     1      -4.112  11.220  17.589  0.00  0.00    +0.000 A 
ATOM      7  C   UNL     1      -4.022  10.489  16.389  0.00  0.00    +0.000 A 
ATOM      8  C   UNL     1      -2.849   9.841  16.039  0.00  0.00    +0.000 A 
ATOM      9  C   UNL     1      -1.741   9.941  16.872  0.00  0.00    +0.000 A 
ATOM     10  C   UNL     1      -1.767  10.728  18.053  0.00  0.00    +0.000 A 
ENDROOT
BRANCH   3  11
ATOM     11  C   UNL     1      -2.284  13.038  21.618  0.00  0.00    +0.000 A 
ATOM     12  C   UNL     1      -1.962  14.405  21.716  0.00  0.00    +0.000 A 
ATOM     13  C   UNL     1      -2.224  15.141  22.877  0.00  0.00    +0.000 A 
ATOM     14  C   UNL     1      -2.835  14.526  23.963  0.00  0.00    +0.000 A 
ATOM     15 CL   UNL     1      -3.148  15.428  25.395  0.00  0.00    +0.000 Cl
ATOM     16  C   UNL     1      -3.198  13.186  23.892  0.00  0.00    +0.000 A 
ATOM     17  C   UNL     1      -2.924  12.453  22.730  0.00  0.00    +0.000 A 
ENDBRANCH   3  11
BRANCH   6  18
ATOM     18  C   UNL     1      -5.412  11.834  17.941  0.00  0.00    +0.000 A 
ATOM     19  C   UNL     1      -6.275  11.509  19.043  0.00  0.00    +0.000 A 
ATOM     20  C   UNL     1      -7.430  12.259  19.069  0.00  0.00    +0.000 A 
ATOM     21  S   UNL     1      -7.487  13.383  17.789  0.00  0.00    +0.000 S 
ATOM     22  C   UNL     1      -5.980  12.845  17.181  0.00  0.00    +0.000 A 
ENDBRANCH   6  18
BRANCH   1  24
ATOM     23  O   UNL     1       1.031   9.278  19.066  0.00  0.00    +0.000 OA
ATOM     24  C   UNL     1       0.691  10.364  18.619  0.00  0.00    +0.000 C 
BRANCH  24  25
ATOM     25  O   UNL     1       1.536  11.188  17.972  0.00  0.00    +0.000 OA
ATOM     26  H   UNL     1       2.484  10.971  18.057  0.00  0.00    +0.000 HD
ENDBRANCH  24  25
ENDBRANCH   1  24
BRANCH   2  27
ATOM     27  O   UNL     1       0.294  11.802  20.965  0.00  0.00    +0.000 OA
ATOM     28  H   UNL     1      -0.031  11.819  21.894  0.00  0.00    +0.000 HD
ENDBRANCH   2  27
TORSDOF 5
ENDMDL
MODEL 2
REMARK VINA RESULT:      -6.6      0.450      1.239
REMARK  Name = 
REMARK  5 active torsions:
REMARK  status: ('A' for Active; 'I' for Inactive)
REMARK    1  A    between atoms: C_2  and  O_3
REMARK    2  A    between atoms: C_2  and  C_4
REMARK    3  A    between atoms: C_5  and  O_6
REMARK    4  A    between atoms: C_7  and  C_8
REMARK    5  A    between atoms: C_17  and  C_18
REMARK                            x       y       z     vdW  Elec       q    Type
REMARK                         _______ _______ _______ _____ _____    ______ ____
ROOT
ATOM      1  C   UNL     1      -0.649  10.842  18.955  0.00  0.00    +0.000 A 
ATOM      2  C   UNL     1      -0.775  11.575  20.145  0.00  0.00    +0.000 A 
ATOM      3  C   UNL     1      -1.987  12.194  20.411  0.00  0.00    +0.000 A 
ATOM      4  N   UNL     1      -3.027  12.072  19.547  0.00  0.00    +0.000 NA
ATOM      5  C   UNL     1      -2.942  11.359  18.400  0.00  0.00    +0.000 A 
ATOM      6  C   UNL     1      -4.055  11.267  17.526  0.00  0.00    +0.000 A 
ATOM      7  C   UNL     1      -3.953  10.536  16.327  0.00  0.00    +0.000 A 
ATOM      8  C   UNL     1      -2.794   9.847  16.012  0.00  0.00    +0.000 A 
ATOM      9  C   UNL     1      -1.710   9.904  16.880  0.00  0.00    +0.000 A 
ATOM     10  C   UNL     1      -1.745  10.689  18.063  0.00  0.00    +0.000 A 
ENDROOT
BRANCH   3  11
ATOM     11  C   UNL     1      -2.291  13.008  21.617  0.00  0.00    +0.000 A 
ATOM     12  C   UNL     1      -2.911  12.467  22.759  0.00  0.00    +0.000 A 
ATOM     13  C   UNL     1      -3.213  13.257  23.875  0.00  0.00    +0.000 A 
ATOM     14  C   UNL     1      -2.881  14.606  23.879  0.00  0.00    +0.000 A 
ATOM     15 CL   UNL     1      -3.261  15.578  25.247  0.00  0.00    +0.000 Cl
ATOM     16  C   UNL     1      -2.238  15.169  22.782  0.00  0.00    +0.000 A 
ATOM     17  C   UNL     1      -1.948  14.376  21.665  0.00  0.00    +0.000 A 
ENDBRANCH   3  11
BRANCH   6  18
ATOM     18  C   UNL     1      -5.342  11.927  17.839  0.00  0.00    +0.000 A 
ATOM     19  C   UNL     1      -6.040  12.916  17.065  0.00  0.00    +0.000 A 
ATOM     20  C   UNL     1      -7.208  13.344  17.656  0.00  0.00    +0.000 A 
ATOM     21  S   UNL     1      -7.500  12.550  19.136  0.00  0.00    +0.000 S 
ATOM     22  C   UNL     1      -6.048  11.654  19.001  0.00  0.00    +0.000 A 
ENDBRANCH   6  18
BRANCH   1  24
ATOM     23  O   UNL     1       1.057   9.261  19.341  0.00  0.00    +0.000 OA
ATOM     24  C   UNL     1       0.679  10.234  18.705  0.00  0.00    +0.000 C 
BRANCH  24  25
ATOM     25  O   UNL     1       1.476  10.910  17.856  0.00  0.00    +0.000 OA
ATOM     26  H   UNL     1       1.174  11.807  17.617  0.00  0.00    +0.000 HD
ENDBRANCH  24  25
ENDBRANCH   1  24
BRANCH   2  27
ATOM     27  O   UNL     1       0.260  11.680  21.043  0.00  0.00    +0.000 OA
ATOM     28  H   UNL     1       0.161  12.503  21.573  0.00  0.00    +0.000 HD
ENDBRANCH   2  27
TORSDOF 5
ENDMDL
MODEL 3
REMARK VINA RESULT:      -6.3      3.444      5.026
REMARK  Name = 
REMARK  5 active torsions:
REMARK  status: ('A' for Active; 'I' for Inactive)
REMARK    1  A    between atoms: C_2  and  O_3
REMARK    2  A    between atoms: C_2  and  C_4
REMARK    3  A    between atoms: C_5  and  O_6
REMARK    4  A    between atoms: C_7  and  C_8
REMARK    5  A    between atoms: C_17  and  C_18
REMARK                            x       y       z     vdW  Elec       q    Type
REMARK                         _______ _______ _______ _____ _____    ______ ____
ROOT
ATOM      1  C   UNL     1      -5.725  12.073  19.242  0.00  0.00    +0.000 A 
ATOM      2  C   UNL     1      -5.445  12.647  20.492  0.00  0.00    +0.000 A 
ATOM      3  C   UNL     1      -4.117  12.830  20.848  0.00  0.00    +0.000 A 
ATOM      4  N   UNL     1      -3.120  12.480  19.996  0.00  0.00    +0.000 NA
ATOM      5  C   UNL     1      -3.359  11.941  18.779  0.00  0.00    +0.000 A 
ATOM      6  C   UNL     1      -2.282  11.585  17.926  0.00  0.00    +0.000 A 
ATOM      7  C   UNL     1      -2.538  11.010  16.666  0.00  0.00    +0.000 A 
ATOM      8  C   UNL     1      -3.837  10.840  16.215  0.00  0.00    +0.000 A 
ATOM      9  C   UNL     1      -4.897  11.217  17.030  0.00  0.00    +0.000 A 
ATOM     10  C   UNL     1      -4.684  11.733  18.336  0.00  0.00    +0.000 A 
ENDROOT
BRANCH   3  11
ATOM     11  C   UNL     1      -3.643  13.417  22.129  0.00  0.00    +0.000 A 
ATOM     12  C   UNL     1      -3.809  12.769  23.367  0.00  0.00    +0.000 A 
ATOM     13  C   UNL     1      -3.380  13.352  24.566  0.00  0.00    +0.000 A 
ATOM     14  C   UNL     1      -2.754  14.592  24.548  0.00  0.00    +0.000 A 
ATOM     15 CL   UNL     1      -2.236  15.313  26.022  0.00  0.00    +0.000 Cl
ATOM     16  C   UNL     1      -2.543  15.249  23.340  0.00  0.00    +0.000 A 
ATOM     17  C   UNL     1      -2.984  14.665  22.146  0.00  0.00    +0.000 A 
ENDBRANCH   3  11
BRANCH   6  18
ATOM     18  C   UNL     1      -0.874  11.803  18.325  0.00  0.00    +0.000 A 
ATOM     19  C   UNL     1       0.064  10.835  18.823  0.00  0.00    +0.000 A 
ATOM     20  C   UNL     1       1.294  11.375  19.126  0.00  0.00    +0.000 A 
ATOM     21  S   UNL     1       1.354  13.046  18.793  0.00  0.00    +0.000 S 
ATOM     22  C   UNL     1      -0.277  13.053  18.273  0.00  0.00    +0.000 A 
ENDBRANCH   6  18
BRANCH   1  24
ATOM     23  O   UNL     1      -7.810  12.729  18.361  0.00  0.00    +0.000 OA
ATOM     24  C   UNL     1      -7.159  11.866  18.930  0.00  0.00    +0.000 C 
BRANCH  24  25
ATOM     25  O   UNL     1      -7.709  10.751  19.445  0.00  0.00    +0.000 OA
ATOM     26  H   UNL     1      -8.224  10.207  18.819  0.00  0.00    +0.000 HD
ENDBRANCH  24  25
ENDBRANCH   1  24
BRANCH   2  27
ATOM     27  O   UNL     1      -6.444  13.034  21.351  0.00  0.00    +0.000 OA
ATOM     28  H   UNL     1      -6.502  14.015  21.378  0.00  0.00    +0.000 HD
ENDBRANCH   2  27
TORSDOF 5
ENDMDL
MODEL 4
REMARK VINA RESULT:      -6.3      0.674      1.145
REMARK  Name = 
REMARK  5 active torsions:
REMARK  status: ('A' for Active; 'I' for Inactive)
REMARK    1  A    between atoms: C_2  and  O_3
REMARK    2  A    between atoms: C_2  and  C_4
REMARK    3  A    between atoms: C_5  and  O_6
REMARK    4  A    between atoms: C_7  and  C_8
REMARK    5  A    between atoms: C_17  and  C_18
REMARK                            x       y       z     vdW  Elec       q    Type
REMARK                         _______ _______ _______ _____ _____    ______ ____
ROOT
ATOM      1  C   UNL     1      -0.497  11.241  19.536  0.00  0.00    +0.000 A 
ATOM      2  C   UNL     1      -0.745  12.067  20.643  0.00  0.00    +0.000 A 
ATOM      3  C   UNL     1      -2.020  12.591  20.798  0.00  0.00    +0.000 A 
ATOM      4  N   UNL     1      -3.002  12.291  19.911  0.00  0.00    +0.000 NA
ATOM      5  C   UNL     1      -2.798  11.484  18.844  0.00  0.00    +0.000 A 
ATOM      6  C   UNL     1      -3.855  11.205  17.941  0.00  0.00    +0.000 A 
ATOM      7  C   UNL     1      -3.630  10.376  16.824  0.00  0.00    +0.000 A 
ATOM      8  C   UNL     1      -2.399   9.774  16.624  0.00  0.00    +0.000 A 
ATOM      9  C   UNL     1      -1.368  10.015  17.524  0.00  0.00    +0.000 A 
ATOM     10  C   UNL     1      -1.531  10.901  18.621  0.00  0.00    +0.000 A 
ENDROOT
BRANCH   3  11
ATOM     11  C   UNL     1      -2.454  13.483  21.906  0.00  0.00    +0.000 A 
ATOM     12  C   UNL     1      -2.871  12.990  23.156  0.00  0.00    +0.000 A 
ATOM     13  C   UNL     1      -3.302  13.846  24.178  0.00  0.00    +0.000 A 
ATOM     14  C   UNL     1      -3.303  15.220  23.975  0.00  0.00    +0.000 A 
ATOM     15 CL   UNL     1      -3.842  16.270  25.227  0.00  0.00    +0.000 Cl
ATOM     16  C   UNL     1      -2.867  15.747  22.764  0.00  0.00    +0.000 A 
ATOM     17  C   UNL     1      -2.447  14.885  21.743  0.00  0.00    +0.000 A 
ENDBRANCH   3  11
BRANCH   6  18
ATOM     18  C   UNL     1      -5.210  11.767  18.137  0.00  0.00    +0.000 A 
ATOM     19  C   UNL     1      -6.131  11.503  19.207  0.00  0.00    +0.000 A 
ATOM     20  C   UNL     1      -7.326  12.175  19.075  0.00  0.00    +0.000 A 
ATOM     21  S   UNL     1      -7.354  13.154  17.680  0.00  0.00    +0.000 S 
ATOM     22  C   UNL     1      -5.778  12.654  17.235  0.00  0.00    +0.000 A 
ENDBRANCH   6  18
BRANCH   1  24
ATOM     23  O   UNL     1       1.233   9.683  19.909  0.00  0.00    +0.000 OA
ATOM     24  C   UNL     1       0.891  10.740  19.399  0.00  0.00    +0.000 C 
BRANCH  24  25
ATOM     25  O   UNL     1       1.759  11.589  18.818  0.00  0.00    +0.000 OA
ATOM     26  H   UNL     1       2.704  11.375  18.938  0.00  0.00    +0.000 HD
ENDBRANCH  24  25
ENDBRANCH   1  24
BRANCH   2  27
ATOM     27  O   UNL     1       0.231  12.354  21.565  0.00  0.00    +0.000 OA
ATOM     28  H   UNL     1       0.008  13.184  22.043  0.00  0.00    +0.000 HD
ENDBRANCH   2  27
TORSDOF 5
ENDMDL
MODEL 5
REMARK VINA RESULT:      -6.2      3.525      5.057
REMARK  Name = 
REMARK  5 active torsions:
REMARK  status: ('A' for Active; 'I' for Inactive)
REMARK    1  A    between atoms: C_2  and  O_3
REMARK    2  A    between atoms: C_2  and  C_4
REMARK    3  A    between atoms: C_5  and  O_6
REMARK    4  A    between atoms: C_7  and  C_8
REMARK    5  A    between atoms: C_17  and  C_18
REMARK                            x       y       z     vdW  Elec       q    Type
REMARK                         _______ _______ _______ _____ _____    ______ ____
ROOT
ATOM      1  C   UNL     1      -5.377  11.821  18.746  0.00  0.00    +0.000 A 
ATOM      2  C   UNL     1      -5.421  12.695  19.843  0.00  0.00    +0.000 A 
ATOM      3  C   UNL     1      -4.228  13.034  20.463  0.00  0.00    +0.000 A 
ATOM      4  N   UNL     1      -3.048  12.546  20.000  0.00  0.00    +0.000 NA
ATOM      5  C   UNL     1      -2.971  11.716  18.935  0.00  0.00    +0.000 A 
ATOM      6  C   UNL     1      -1.715  11.227  18.494  0.00  0.00    +0.000 A 
ATOM      7  C   UNL     1      -1.644  10.351  17.393  0.00  0.00    +0.000 A 
ATOM      8  C   UNL     1      -2.785  10.003  16.690  0.00  0.00    +0.000 A 
ATOM      9  C   UNL     1      -4.016  10.505  17.095  0.00  0.00    +0.000 A 
ATOM     10  C   UNL     1      -4.140  11.332  18.242  0.00  0.00    +0.000 A 
ENDROOT
BRANCH   3  11
ATOM     11  C   UNL     1      -4.093  13.940  21.634  0.00  0.00    +0.000 A 
ATOM     12  C   UNL     1      -4.084  13.468  22.960  0.00  0.00    +0.000 A 
ATOM     13  C   UNL     1      -3.983  14.340  24.050  0.00  0.00    +0.000 A 
ATOM     14  C   UNL     1      -3.869  15.707  23.835  0.00  0.00    +0.000 A 
ATOM     15 CL   UNL     1      -3.756  16.780  25.176  0.00  0.00    +0.000 Cl
ATOM     16  C   UNL     1      -3.842  16.209  22.538  0.00  0.00    +0.000 A 
ATOM     17  C   UNL     1      -3.953  15.332  21.452  0.00  0.00    +0.000 A 
ENDBRANCH   3  11
BRANCH   6  18
ATOM     18  C   UNL     1      -0.454  11.614  19.165  0.00  0.00    +0.000 A 
ATOM     19  C   UNL     1       0.117  11.062  20.362  0.00  0.00    +0.000 A 
ATOM     20  C   UNL     1       1.295  11.670  20.733  0.00  0.00    +0.000 A 
ATOM     21  S   UNL     1       1.751  12.896  19.640  0.00  0.00    +0.000 S 
ATOM     22  C   UNL     1       0.354  12.634  18.685  0.00  0.00    +0.000 A 
ENDBRANCH   6  18
BRANCH   1  24
ATOM     23  O   UNL     1      -7.274  12.241  17.411  0.00  0.00    +0.000 OA
ATOM     24  C   UNL     1      -6.684  11.464  18.148  0.00  0.00    +0.000 C 
BRANCH  24  25
ATOM     25  O   UNL     1      -7.229  10.314  18.588  0.00  0.00    +0.000 OA
ATOM     26  H   UNL     1      -6.736   9.501  18.365  0.00  0.00    +0.000 HD
ENDBRANCH  24  25
ENDBRANCH   1  24
BRANCH   2  27
ATOM     27  O   UNL     1      -6.605  13.220  20.302  0.00  0.00    +0.000 OA
ATOM     28  H   UNL     1      -7.193  12.498  20.617  0.00  0.00    +0.000 HD
ENDBRANCH   2  27
TORSDOF 5
ENDMDL
MODEL 6
REMARK VINA RESULT:      -6.1      3.512      4.921
REMARK  Name = 
REMARK  5 active torsions:
REMARK  status: ('A' for Active; 'I' for Inactive)
REMARK    1  A    between atoms: C_2  and  O_3
REMARK    2  A    between atoms: C_2  and  C_4
REMARK    3  A    between atoms: C_5  and  O_6
REMARK    4  A    between atoms: C_7  and  C_8
REMARK    5  A    between atoms: C_17  and  C_18
REMARK                            x       y       z     vdW  Elec       q    Type
REMARK                         _______ _______ _______ _____ _____    ______ ____
ROOT
ATOM      1  C   UNL     1      -5.256  11.749  18.772  0.00  0.00    +0.000 A 
ATOM      2  C   UNL     1      -5.336  12.659  19.837  0.00  0.00    +0.000 A 
ATOM      3  C   UNL     1      -4.157  13.068  20.441  0.00  0.00    +0.000 A 
ATOM      4  N   UNL     1      -2.959  12.614  19.993  0.00  0.00    +0.000 NA
ATOM      5  C   UNL     1      -2.848  11.750  18.958  0.00  0.00    +0.000 A 
ATOM      6  C   UNL     1      -1.573  11.299  18.531  0.00  0.00    +0.000 A 
ATOM      7  C   UNL     1      -1.468  10.388  17.462  0.00  0.00    +0.000 A 
ATOM      8  C   UNL     1      -2.594   9.968  16.774  0.00  0.00    +0.000 A 
ATOM      9  C   UNL     1      -3.844  10.432  17.164  0.00  0.00    +0.000 A 
ATOM     10  C   UNL     1      -4.001  11.294  18.282  0.00  0.00    +0.000 A 
ENDROOT
BRANCH   3  11
ATOM     11  C   UNL     1      -4.059  14.020  21.580  0.00  0.00    +0.000 A 
ATOM     12  C   UNL     1      -3.942  15.411  21.397  0.00  0.00    +0.000 A 
ATOM     13  C   UNL     1      -3.824  16.288  22.481  0.00  0.00    +0.000 A 
ATOM     14  C   UNL     1      -3.841  15.791  23.778  0.00  0.00    +0.000 A 
ATOM     15 CL   UNL     1      -3.686  16.868  25.111  0.00  0.00    +0.000 Cl
ATOM     16  C   UNL     1      -3.988  14.426  24.001  0.00  0.00    +0.000 A 
ATOM     17  C   UNL     1      -4.096  13.553  22.911  0.00  0.00    +0.000 A 
ENDBRANCH   3  11
BRANCH   6  18
ATOM     18  C   UNL     1      -0.329  11.761  19.184  0.00  0.00    +0.000 A 
ATOM     19  C   UNL     1       0.265  11.278  20.400  0.00  0.00    +0.000 A 
ATOM     20  C   UNL     1       1.418  11.946  20.746  0.00  0.00    +0.000 A 
ATOM     21  S   UNL     1       1.823  13.147  19.607  0.00  0.00    +0.000 S 
ATOM     22  C   UNL     1       0.437  12.794  18.665  0.00  0.00    +0.000 A 
ENDBRANCH   6  18
BRANCH   1  24
ATOM     23  O   UNL     1      -7.053  10.247  18.499  0.00  0.00    +0.000 OA
ATOM     24  C   UNL     1      -6.549  11.317  18.190  0.00  0.00    +0.000 C 
BRANCH  24  25
ATOM     25  O   UNL     1      -7.033  12.100  17.208  0.00  0.00    +0.000 OA
ATOM     26  H   UNL     1      -7.985  11.998  17.018  0.00  0.00    +0.000 HD
ENDBRANCH  24  25
ENDBRANCH   1  24
BRANCH   2  27
ATOM     27  O   UNL     1      -6.539  13.150  20.280  0.00  0.00    +0.000 OA
ATOM     28  H   UNL     1      -6.682  12.894  21.219  0.00  0.00    +0.000 HD
ENDBRANCH   2  27
TORSDOF 5
ENDMDL
MODEL 7
REMARK VINA RESULT:      -6.1      3.308      5.238
REMARK  Name = 
REMARK  5 active torsions:
REMARK  status: ('A' for Active; 'I' for Inactive)
REMARK    1  A    between atoms: C_2  and  O_3
REMARK    2  A    between atoms: C_2  and  C_4
REMARK    3  A    between atoms: C_5  and  O_6
REMARK    4  A    between atoms: C_7  and  C_8
REMARK    5  A    between atoms: C_17  and  C_18
REMARK                            x       y       z     vdW  Elec       q    Type
REMARK                         _______ _______ _______ _____ _____    ______ ____
ROOT
ATOM      1  C   UNL     1      -4.919  12.961  21.889  0.00  0.00    +0.000 A 
ATOM      2  C   UNL     1      -3.560  13.312  21.889  0.00  0.00    +0.000 A 
ATOM      3  C   UNL     1      -2.778  12.915  20.815  0.00  0.00    +0.000 A 
ATOM      4  N   UNL     1      -3.325  12.225  19.782  0.00  0.00    +0.000 NA
ATOM      5  C   UNL     1      -4.634  11.887  19.744  0.00  0.00    +0.000 A 
ATOM      6  C   UNL     1      -5.158  11.158  18.645  0.00  0.00    +0.000 A 
ATOM      7  C   UNL     1      -6.518  10.797  18.621  0.00  0.00    +0.000 A 
ATOM      8  C   UNL     1      -7.377  11.196  19.631  0.00  0.00    +0.000 A 
ATOM      9  C   UNL     1      -6.879  11.940  20.694  0.00  0.00    +0.000 A 
ATOM     10  C   UNL     1      -5.500  12.263  20.795  0.00  0.00    +0.000 A 
ENDROOT
BRANCH   3  11
ATOM     11  C   UNL     1      -1.327  13.198  20.656  0.00  0.00    +0.000 A 
ATOM     12  C   UNL     1      -0.333  12.247  20.954  0.00  0.00    +0.000 A 
ATOM     13  C   UNL     1       1.029  12.542  20.824  0.00  0.00    +0.000 A 
ATOM     14  C   UNL     1       1.427  13.794  20.371  0.00  0.00    +0.000 A 
ATOM     15 CL   UNL     1       3.101  14.160  20.220  0.00  0.00    +0.000 Cl
ATOM     16  C   UNL     1       0.473  14.749  20.035  0.00  0.00    +0.000 A 
ATOM     17  C   UNL     1      -0.888  14.451  20.177  0.00  0.00    +0.000 A 
ENDBRANCH   3  11
BRANCH   6  18
ATOM     18  C   UNL     1      -4.304  10.758  17.504  0.00  0.00    +0.000 A 
ATOM     19  C   UNL     1      -3.307   9.725  17.465  0.00  0.00    +0.000 A 
ATOM     20  C   UNL     1      -2.672   9.628  16.247  0.00  0.00    +0.000 A 
ATOM     21  S   UNL     1      -3.279  10.755  15.122  0.00  0.00    +0.000 S 
ATOM     22  C   UNL     1      -4.371  11.396  16.275  0.00  0.00    +0.000 A 
ENDBRANCH   6  18
BRANCH   1  24
ATOM     23  O   UNL     1      -6.214  14.483  23.139  0.00  0.00    +0.000 OA
ATOM     24  C   UNL     1      -5.697  13.377  23.079  0.00  0.00    +0.000 C 
BRANCH  24  25
ATOM     25  O   UNL     1      -5.662  12.526  24.121  0.00  0.00    +0.000 OA
ATOM     26  H   UNL     1      -6.155  11.692  24.001  0.00  0.00    +0.000 HD
ENDBRANCH  24  25
ENDBRANCH   1  24
BRANCH   2  27
ATOM     27  O   UNL     1      -3.001  14.037  22.913  0.00  0.00    +0.000 OA
ATOM     28  H   UNL     1      -3.623  14.741  23.204  0.00  0.00    +0.000 HD
ENDBRANCH   2  27
TORSDOF 5
ENDMDL
MODEL 8
REMARK VINA RESULT:      -6.0      2.997      5.612
REMARK  Name = 
REMARK  5 active torsions:
REMARK  status: ('A' for Active; 'I' for Inactive)
REMARK    1  A    between atoms: C_2  and  O_3
REMARK    2  A    between atoms: C_2  and  C_4
REMARK    3  A    between atoms: C_5  and  O_6
REMARK    4  A    between atoms: C_7  and  C_8
REMARK    5  A    between atoms: C_17  and  C_18
REMARK                            x       y       z     vdW  Elec       q    Type
REMARK                         _______ _______ _______ _____ _____    ______ ____
ROOT
ATOM      1  C   UNL     1      -0.729  11.572  20.937  0.00  0.00    +0.000 A 
ATOM      2  C   UNL     1      -0.986  11.143  19.626  0.00  0.00    +0.000 A 
ATOM      3  C   UNL     1      -2.244  11.379  19.091  0.00  0.00    +0.000 A 
ATOM      4  N   UNL     1      -3.190  12.029  19.816  0.00  0.00    +0.000 NA
ATOM      5  C   UNL     1      -2.967  12.470  21.075  0.00  0.00    +0.000 A 
ATOM      6  C   UNL     1      -3.990  13.138  21.795  0.00  0.00    +0.000 A 
ATOM      7  C   UNL     1      -3.756  13.581  23.111  0.00  0.00    +0.000 A 
ATOM      8  C   UNL     1      -2.511  13.427  23.700  0.00  0.00    +0.000 A 
ATOM      9  C   UNL     1      -1.493  12.803  22.989  0.00  0.00    +0.000 A 
ATOM     10  C   UNL     1      -1.709  12.278  21.688  0.00  0.00    +0.000 A 
ENDROOT
BRANCH   3  11
ATOM     11  C   UNL     1      -2.685  10.991  17.725  0.00  0.00    +0.000 A 
ATOM     12  C   UNL     1      -2.012  10.021  16.959  0.00  0.00    +0.000 A 
ATOM     13  C   UNL     1      -2.427   9.689  15.664  0.00  0.00    +0.000 A 
ATOM     14  C   UNL     1      -3.543  10.308  15.114  0.00  0.00    +0.000 A 
ATOM     15 CL   UNL     1      -4.047   9.907  13.519  0.00  0.00    +0.000 Cl
ATOM     16  C   UNL     1      -4.253  11.248  15.853  0.00  0.00    +0.000 A 
ATOM     17  C   UNL     1      -3.826  11.583  17.145  0.00  0.00    +0.000 A 
ENDBRANCH   3  11
BRANCH   6  18
ATOM     18  C   UNL     1      -5.320  13.390  21.197  0.00  0.00    +0.000 A 
ATOM     19  C   UNL     1      -6.456  12.511  21.163  0.00  0.00    +0.000 A 
ATOM     20  C   UNL     1      -7.539  13.046  20.503  0.00  0.00    +0.000 A 
ATOM     21  S   UNL     1      -7.222  14.621  19.934  0.00  0.00    +0.000 S 
ATOM     22  C   UNL     1      -5.623  14.576  20.545  0.00  0.00    +0.000 A 
ENDBRANCH   6  18
BRANCH   1  24
ATOM     23  O   UNL     1       0.779  10.363  22.286  0.00  0.00    +0.000 OA
ATOM     24  C   UNL     1       0.617  11.258  21.470  0.00  0.00    +0.000 C 
BRANCH  24  25
ATOM     25  O   UNL     1       1.595  12.112  21.113  0.00  0.00    +0.000 OA
ATOM     26  H   UNL     1       2.384  11.704  20.707  0.00  0.00    +0.000 HD
ENDBRANCH  24  25
ENDBRANCH   1  24
BRANCH   2  27
ATOM     27  O   UNL     1      -0.028  10.511  18.871  0.00  0.00    +0.000 OA
ATOM     28  H   UNL     1      -0.169  10.708  17.917  0.00  0.00    +0.000 HD
ENDBRANCH   2  27
TORSDOF 5
ENDMDL
MODEL 9
REMARK VINA RESULT:      -6.0      3.536      5.112
REMARK  Name = 
REMARK  5 active torsions:
REMARK  status: ('A' for Active; 'I' for Inactive)
REMARK    1  A    between atoms: C_2  and  O_3
REMARK    2  A    between atoms: C_2  and  C_4
REMARK    3  A    between atoms: C_5  and  O_6
REMARK    4  A    between atoms: C_7  and  C_8
REMARK    5  A    between atoms: C_17  and  C_18
REMARK                            x       y       z     vdW  Elec       q    Type
REMARK                         _______ _______ _______ _____ _____    ______ ____
ROOT
ATOM      1  C   UNL     1      -5.344  12.194  18.335  0.00  0.00    +0.000 A 
ATOM      2  C   UNL     1      -5.348  12.981  19.496  0.00  0.00    +0.000 A 
ATOM      3  C   UNL     1      -4.192  13.031  20.261  0.00  0.00    +0.000 A 
ATOM      4  N   UNL     1      -3.082  12.351  19.877  0.00  0.00    +0.000 NA
ATOM      5  C   UNL     1      -3.042  11.597  18.755  0.00  0.00    +0.000 A 
ATOM      6  C   UNL     1      -1.859  10.899  18.400  0.00  0.00    +0.000 A 
ATOM      7  C   UNL     1      -1.829  10.104  17.238  0.00  0.00    +0.000 A 
ATOM      8  C   UNL     1      -2.926  10.040  16.394  0.00  0.00    +0.000 A 
ATOM      9  C   UNL     1      -4.077  10.748  16.717  0.00  0.00    +0.000 A 
ATOM     10  C   UNL     1      -4.174  11.503  17.915  0.00  0.00    +0.000 A 
ENDROOT
BRANCH   3  11
ATOM     11  C   UNL     1      -4.025  13.810  21.517  0.00  0.00    +0.000 A 
ATOM     12  C   UNL     1      -4.134  13.223  22.791  0.00  0.00    +0.000 A 
ATOM     13  C   UNL     1      -4.000  13.979  23.962  0.00  0.00    +0.000 A 
ATOM     14  C   UNL     1      -3.731  15.339  23.881  0.00  0.00    +0.000 A 
ATOM     15 CL   UNL     1      -3.576  16.270  25.320  0.00  0.00    +0.000 Cl
ATOM     16  C   UNL     1      -3.584  15.949  22.640  0.00  0.00    +0.000 A 
ATOM     17  C   UNL     1      -3.730  15.189  21.472  0.00  0.00    +0.000 A 
ENDBRANCH   3  11
BRANCH   6  18
ATOM     18  C   UNL     1      -0.634  10.979  19.226  0.00  0.00    +0.000 A 
ATOM     19  C   UNL     1       0.441  11.927  19.125  0.00  0.00    +0.000 A 
ATOM     20  C   UNL     1       1.449  11.706  20.036  0.00  0.00    +0.000 A 
ATOM     21  S   UNL     1       1.112  10.375  21.047  0.00  0.00    +0.000 S 
ATOM     22  C   UNL     1      -0.370  10.075  20.244  0.00  0.00    +0.000 A 
ENDBRANCH   6  18
BRANCH   1  24
ATOM     23  O   UNL     1      -6.902  13.018  16.769  0.00  0.00    +0.000 OA
ATOM     24  C   UNL     1      -6.617  12.147  17.578  0.00  0.00    +0.000 C 
BRANCH  24  25
ATOM     25  O   UNL     1      -7.478  11.182  17.951  0.00  0.00    +0.000 OA
ATOM     26  H   UNL     1      -8.210  11.470  18.529  0.00  0.00    +0.000 HD
ENDBRANCH  24  25
ENDBRANCH   1  24
BRANCH   2  27
ATOM     27  O   UNL     1      -6.455  13.699  19.878  0.00  0.00    +0.000 OA
ATOM     28  H   UNL     1      -6.456  14.576  19.433  0.00  0.00    +0.000 HD
ENDBRANCH   2  27
TORSDOF 5
ENDMDL
