MODEL 1
REMARK VINA RESULT:      -6.9      0.000      0.000
REMARK  Name = 
REMARK  3 active torsions:
REMARK  status: ('A' for Active; 'I' for Inactive)
REMARK    1  A    between atoms: O_1  and  C_2
REMARK    2  A    between atoms: C_6  and  C_7
REMARK    3  A    between atoms: N_8  and  C_9
REMARK                            x       y       z     vdW  Elec       q    Type
REMARK                         _______ _______ _______ _____ _____    ______ ____
ROOT
ATOM      1  C   UNL     1       5.290   3.832  16.093  0.00  0.00    +0.000 C 
ATOM      2  N   UNL     1       4.467   4.671  16.629  0.00  0.00    +0.000 NA
ENDROOT
BRANCH   2   3
ATOM      3  C   UNL     1       3.650   4.239  17.697  0.00  0.00    +0.000 A 
ATOM      4  C   UNL     1       2.406   3.629  17.471  0.00  0.00    +0.000 A 
ATOM      5  C   UNL     1       1.599   3.218  18.537  0.00  0.00    +0.000 A 
ATOM      6  C   UNL     1       2.016   3.440  19.847  0.00  0.00    +0.000 A 
ATOM      7 CL   UNL     1       1.018   2.939  21.154  0.00  0.00    +0.000 Cl
ATOM      8  C   UNL     1       3.229   4.070  20.102  0.00  0.00    +0.000 A 
ATOM      9  C   UNL     1       4.038   4.468  19.033  0.00  0.00    +0.000 A 
ATOM     10 CL   UNL     1       5.535   5.252  19.407  0.00  0.00    +0.000 Cl
ENDBRANCH   2   3
BRANCH   1  15
ATOM     11  C   UNL     1       7.087   5.273  15.099  0.00  0.00    +0.000 A 
ATOM     12  N   UNL     1       7.636   5.366  13.846  0.00  0.00    +0.000 N 
ATOM     13  N   UNL     1       7.118   4.495  12.963  0.00  0.00    +0.000 NA
ATOM     14  C   UNL     1       6.206   3.831  13.681  0.00  0.00    +0.000 A 
ATOM     15  C   UNL     1       6.139   4.276  15.019  0.00  0.00    +0.000 A 
ATOM     16  H   UNL     1       8.361   5.992  13.516  0.00  0.00    +0.000 HD
BRANCH  11  17
ATOM     17  O   UNL     1       7.460   6.035  16.125  0.00  0.00    +0.000 OA
ATOM     18  H   UNL     1       8.022   5.526  16.734  0.00  0.00    +0.000 HD
ENDBRANCH  11  17
ENDBRANCH   1  15
TORSDOF 3
ENDMDL
MODEL 2
REMARK VINA RESULT:      -6.9      1.243      1.386
REMARK  Name = 
REMARK  3 active torsions:
REMARK  status: ('A' for Active; 'I' for Inactive)
REMARK    1  A    between atoms: O_1  and  C_2
REMARK    2  A    between atoms: C_6  and  C_7
REMARK    3  A    between atoms: N_8  and  C_9
REMARK                            x       y       z     vdW  Elec       q    Type
REMARK                         _______ _______ _______ _____ _____    ______ ____
ROOT
ATOM      1  C   UNL     1       5.175   3.872  16.382  0.00  0.00    +0.000 C 
ATOM      2  N   UNL     1       4.929   4.673  17.364  0.00  0.00    +0.000 NA
ENDROOT
BRANCH   2   3
ATOM      3  C   UNL     1       4.103   4.226  18.419  0.00  0.00    +0.000 A 
ATOM      4  C   UNL     1       4.311   2.986  19.044  0.00  0.00    +0.000 A 
ATOM      5  C   UNL     1       3.477   2.549  20.077  0.00  0.00    +0.000 A 
ATOM      6  C   UNL     1       2.403   3.338  20.481  0.00  0.00    +0.000 A 
ATOM      7 CL   UNL     1       1.376   2.792  21.748  0.00  0.00    +0.000 Cl
ATOM      8  C   UNL     1       2.152   4.556  19.860  0.00  0.00    +0.000 A 
ATOM      9  C   UNL     1       2.996   4.995  18.835  0.00  0.00    +0.000 A 
ATOM     10 CL   UNL     1       2.635   6.517  18.094  0.00  0.00    +0.000 Cl
ENDBRANCH   2   3
BRANCH   1  15
ATOM     11  C   UNL     1       7.009   5.286  15.417  0.00  0.00    +0.000 A 
ATOM     12  N   UNL     1       7.559   5.392  14.165  0.00  0.00    +0.000 N 
ATOM     13  N   UNL     1       7.017   4.556  13.264  0.00  0.00    +0.000 NA
ATOM     14  C   UNL     1       6.089   3.900  13.969  0.00  0.00    +0.000 A 
ATOM     15  C   UNL     1       6.034   4.317  15.317  0.00  0.00    +0.000 A 
ATOM     16  H   UNL     1       8.300   6.006  13.849  0.00  0.00    +0.000 HD
BRANCH  11  17
ATOM     17  O   UNL     1       7.403   6.015  16.459  0.00  0.00    +0.000 OA
ATOM     18  H   UNL     1       7.490   6.949  16.201  0.00  0.00    +0.000 HD
ENDBRANCH  11  17
ENDBRANCH   1  15
TORSDOF 3
ENDMDL
MODEL 3
REMARK VINA RESULT:      -6.5      1.565      1.930
REMARK  Name = 
REMARK  3 active torsions:
REMARK  status: ('A' for Active; 'I' for Inactive)
REMARK    1  A    between atoms: O_1  and  C_2
REMARK    2  A    between atoms: C_6  and  C_7
REMARK    3  A    between atoms: N_8  and  C_9
REMARK                            x       y       z     vdW  Elec       q    Type
REMARK                         _______ _______ _______ _____ _____    ______ ____
ROOT
ATOM      1  C   UNL     1       5.320   4.309  17.284  0.00  0.00    +0.000 C 
ATOM      2  N   UNL     1       4.325   3.486  17.281  0.00  0.00    +0.000 NA
ENDROOT
BRANCH   2   3
ATOM      3  C   UNL     1       3.613   3.270  18.481  0.00  0.00    +0.000 A 
ATOM      4  C   UNL     1       4.185   2.583  19.563  0.00  0.00    +0.000 A 
ATOM      5  C   UNL     1       3.465   2.363  20.741  0.00  0.00    +0.000 A 
ATOM      6  C   UNL     1       2.148   2.805  20.840  0.00  0.00    +0.000 A 
ATOM      7 CL   UNL     1       1.264   2.526  22.289  0.00  0.00    +0.000 Cl
ATOM      8  C   UNL     1       1.543   3.461  19.774  0.00  0.00    +0.000 A 
ATOM      9  C   UNL     1       2.272   3.690  18.602  0.00  0.00    +0.000 A 
ATOM     10 CL   UNL     1       1.470   4.507  17.304  0.00  0.00    +0.000 Cl
ENDBRANCH   2   3
BRANCH   1  15
ATOM     11  C   UNL     1       7.011   5.500  15.863  0.00  0.00    +0.000 A 
ATOM     12  N   UNL     1       7.395   5.377  14.552  0.00  0.00    +0.000 N 
ATOM     13  N   UNL     1       6.744   4.408  13.887  0.00  0.00    +0.000 NA
ATOM     14  C   UNL     1       5.916   3.902  14.807  0.00  0.00    +0.000 A 
ATOM     15  C   UNL     1       6.034   4.546  16.058  0.00  0.00    +0.000 A 
ATOM     16  H   UNL     1       8.087   5.913  14.042  0.00  0.00    +0.000 HD
BRANCH  11  17
ATOM     17  O   UNL     1       7.533   6.389  16.704  0.00  0.00    +0.000 OA
ATOM     18  H   UNL     1       8.495   6.261  16.773  0.00  0.00    +0.000 HD
ENDBRANCH  11  17
ENDBRANCH   1  15
TORSDOF 3
ENDMDL
MODEL 4
REMARK VINA RESULT:      -6.4      3.333      6.368
REMARK  Name = 
REMARK  3 active torsions:
REMARK  status: ('A' for Active; 'I' for Inactive)
REMARK    1  A    between atoms: O_1  and  C_2
REMARK    2  A    between atoms: C_6  and  C_7
REMARK    3  A    between atoms: N_8  and  C_9
REMARK                            x       y       z     vdW  Elec       q    Type
REMARK                         _______ _______ _______ _____ _____    ______ ____
ROOT
ATOM      1  C   UNL     1       3.738   3.472  18.011  0.00  0.00    +0.000 C 
ATOM      2  N   UNL     1       4.912   4.008  18.021  0.00  0.00    +0.000 NA
ENDROOT
BRANCH   2   3
ATOM      3  C   UNL     1       5.547   4.285  16.790  0.00  0.00    +0.000 A 
ATOM      4  C   UNL     1       4.897   4.077  15.563  0.00  0.00    +0.000 A 
ATOM      5  C   UNL     1       5.540   4.341  14.350  0.00  0.00    +0.000 A 
ATOM      6  C   UNL     1       6.858   4.792  14.350  0.00  0.00    +0.000 A 
ATOM      7 CL   UNL     1       7.647   5.109  12.856  0.00  0.00    +0.000 Cl
ATOM      8  C   UNL     1       7.539   4.978  15.548  0.00  0.00    +0.000 A 
ATOM      9  C   UNL     1       6.887   4.724  16.758  0.00  0.00    +0.000 A 
ATOM     10 CL   UNL     1       7.782   4.967  18.219  0.00  0.00    +0.000 Cl
ENDBRANCH   2   3
BRANCH   1  15
ATOM     11  C   UNL     1       3.637   2.567  20.349  0.00  0.00    +0.000 A 
ATOM     12  N   UNL     1       2.653   2.525  21.303  0.00  0.00    +0.000 N 
ATOM     13  N   UNL     1       1.502   3.101  20.917  0.00  0.00    +0.000 NA
ATOM     14  C   UNL     1       1.765   3.519  19.674  0.00  0.00    +0.000 A 
ATOM     15  C   UNL     1       3.080   3.209  19.264  0.00  0.00    +0.000 A 
ATOM     16  H   UNL     1       2.687   2.124  22.233  0.00  0.00    +0.000 HD
BRANCH  11  17
ATOM     17  O   UNL     1       4.856   2.062  20.526  0.00  0.00    +0.000 OA
ATOM     18  H   UNL     1       5.379   2.644  21.105  0.00  0.00    +0.000 HD
ENDBRANCH  11  17
ENDBRANCH   1  15
TORSDOF 3
ENDMDL
MODEL 5
REMARK VINA RESULT:      -6.4      3.663      6.582
REMARK  Name = 
REMARK  3 active torsions:
REMARK  status: ('A' for Active; 'I' for Inactive)
REMARK    1  A    between atoms: O_1  and  C_2
REMARK    2  A    between atoms: C_6  and  C_7
REMARK    3  A    between atoms: N_8  and  C_9
REMARK                            x       y       z     vdW  Elec       q    Type
REMARK                         _______ _______ _______ _____ _____    ______ ____
ROOT
ATOM      1  C   UNL     1       3.431   3.292  18.710  0.00  0.00    +0.000 C 
ATOM      2  N   UNL     1       4.324   4.225  18.720  0.00  0.00    +0.000 NA
ENDROOT
BRANCH   2   3
ATOM      3  C   UNL     1       5.090   4.450  17.555  0.00  0.00    +0.000 A 
ATOM      4  C   UNL     1       4.651   4.024  16.292  0.00  0.00    +0.000 A 
ATOM      5  C   UNL     1       5.424   4.240  15.147  0.00  0.00    +0.000 A 
ATOM      6  C   UNL     1       6.664   4.863  15.257  0.00  0.00    +0.000 A 
ATOM      7 CL   UNL     1       7.615   5.121  13.848  0.00  0.00    +0.000 Cl
ATOM      8  C   UNL     1       7.140   5.268  16.499  0.00  0.00    +0.000 A 
ATOM      9  C   UNL     1       6.358   5.061  17.639  0.00  0.00    +0.000 A 
ATOM     10 CL   UNL     1       7.001   5.580  19.160  0.00  0.00    +0.000 Cl
ENDBRANCH   2   3
BRANCH   1  15
ATOM     11  C   UNL     1       1.288   2.785  19.912  0.00  0.00    +0.000 A 
ATOM     12  N   UNL     1       0.952   2.678  21.237  0.00  0.00    +0.000 N 
ATOM     13  N   UNL     1       1.986   2.869  22.073  0.00  0.00    +0.000 NA
ATOM     14  C   UNL     1       3.012   3.109  21.249  0.00  0.00    +0.000 A 
ATOM     15  C   UNL     1       2.635   3.075  19.889  0.00  0.00    +0.000 A 
ATOM     16  H   UNL     1       0.047   2.480  21.647  0.00  0.00    +0.000 HD
BRANCH  11  17
ATOM     17  O   UNL     1       0.419   2.625  18.916  0.00  0.00    +0.000 OA
ATOM     18  H   UNL     1      -0.083   1.800  19.038  0.00  0.00    +0.000 HD
ENDBRANCH  11  17
ENDBRANCH   1  15
TORSDOF 3
ENDMDL
MODEL 6
REMARK VINA RESULT:      -6.3      3.647      6.614
REMARK  Name = 
REMARK  3 active torsions:
REMARK  status: ('A' for Active; 'I' for Inactive)
REMARK    1  A    between atoms: O_1  and  C_2
REMARK    2  A    between atoms: C_6  and  C_7
REMARK    3  A    between atoms: N_8  and  C_9
REMARK                            x       y       z     vdW  Elec       q    Type
REMARK                         _______ _______ _______ _____ _____    ______ ____
ROOT
ATOM      1  C   UNL     1       3.576   3.234  18.911  0.00  0.00    +0.000 C 
ATOM      2  N   UNL     1       3.487   4.318  18.216  0.00  0.00    +0.000 NA
ENDROOT
BRANCH   2   3
ATOM      3  C   UNL     1       4.386   4.521  17.146  0.00  0.00    +0.000 A 
ATOM      4  C   UNL     1       5.054   3.449  16.533  0.00  0.00    +0.000 A 
ATOM      5  C   UNL     1       5.953   3.662  15.484  0.00  0.00    +0.000 A 
ATOM      6  C   UNL     1       6.217   4.960  15.053  0.00  0.00    +0.000 A 
ATOM      7 CL   UNL     1       7.329   5.218  13.767  0.00  0.00    +0.000 Cl
ATOM      8  C   UNL     1       5.596   6.044  15.661  0.00  0.00    +0.000 A 
ATOM      9  C   UNL     1       4.688   5.824  16.702  0.00  0.00    +0.000 A 
ATOM     10 CL   UNL     1       3.946   7.210  17.427  0.00  0.00    +0.000 Cl
ENDBRANCH   2   3
BRANCH   1  15
ATOM     11  C   UNL     1       1.276   2.930  19.867  0.00  0.00    +0.000 A 
ATOM     12  N   UNL     1       0.802   2.735  21.139  0.00  0.00    +0.000 N 
ATOM     13  N   UNL     1       1.767   2.681  22.073  0.00  0.00    +0.000 NA
ATOM     14  C   UNL     1       2.891   2.850  21.369  0.00  0.00    +0.000 A 
ATOM     15  C   UNL     1       2.647   3.016  19.987  0.00  0.00    +0.000 A 
ATOM     16  H   UNL     1      -0.157   2.633  21.449  0.00  0.00    +0.000 HD
BRANCH  11  17
ATOM     17  O   UNL     1       0.494   3.006  18.793  0.00  0.00    +0.000 OA
ATOM     18  H   UNL     1       0.401   2.128  18.383  0.00  0.00    +0.000 HD
ENDBRANCH  11  17
ENDBRANCH   1  15
TORSDOF 3
ENDMDL
MODEL 7
REMARK VINA RESULT:      -6.3      1.956      2.277
REMARK  Name = 
REMARK  3 active torsions:
REMARK  status: ('A' for Active; 'I' for Inactive)
REMARK    1  A    between atoms: O_1  and  C_2
REMARK    2  A    between atoms: C_6  and  C_7
REMARK    3  A    between atoms: N_8  and  C_9
REMARK                            x       y       z     vdW  Elec       q    Type
REMARK                         _______ _______ _______ _____ _____    ______ ____
ROOT
ATOM      1  C   UNL     1       5.155   4.249  17.794  0.00  0.00    +0.000 C 
ATOM      2  N   UNL     1       3.885   4.472  17.851  0.00  0.00    +0.000 NA
ENDROOT
BRANCH   2   3
ATOM      3  C   UNL     1       3.158   4.005  18.969  0.00  0.00    +0.000 A 
ATOM      4  C   UNL     1       2.774   4.866  20.009  0.00  0.00    +0.000 A 
ATOM      5  C   UNL     1       2.067   4.390  21.118  0.00  0.00    +0.000 A 
ATOM      6  C   UNL     1       1.761   3.035  21.213  0.00  0.00    +0.000 A 
ATOM      7 CL   UNL     1       0.898   2.452  22.582  0.00  0.00    +0.000 Cl
ATOM      8  C   UNL     1       2.157   2.152  20.214  0.00  0.00    +0.000 A 
ATOM      9  C   UNL     1       2.852   2.635  19.102  0.00  0.00    +0.000 A 
ATOM     10 CL   UNL     1       3.324   1.492  17.891  0.00  0.00    +0.000 Cl
ENDBRANCH   2   3
BRANCH   1  15
ATOM     11  C   UNL     1       7.266   4.657  16.501  0.00  0.00    +0.000 A 
ATOM     12  N   UNL     1       7.536   5.266  15.303  0.00  0.00    +0.000 N 
ATOM     13  N   UNL     1       6.442   5.734  14.677  0.00  0.00    +0.000 NA
ATOM     14  C   UNL     1       5.446   5.412  15.510  0.00  0.00    +0.000 A 
ATOM     15  C   UNL     1       5.900   4.743  16.667  0.00  0.00    +0.000 A 
ATOM     16  H   UNL     1       8.430   5.403  14.848  0.00  0.00    +0.000 HD
BRANCH  11  17
ATOM     17  O   UNL     1       8.201   4.117  17.280  0.00  0.00    +0.000 OA
ATOM     18  H   UNL     1       7.838   3.935  18.164  0.00  0.00    +0.000 HD
ENDBRANCH  11  17
ENDBRANCH   1  15
TORSDOF 3
ENDMDL
MODEL 8
REMARK VINA RESULT:      -6.3      3.282      6.326
REMARK  Name = 
REMARK  3 active torsions:
REMARK  status: ('A' for Active; 'I' for Inactive)
REMARK    1  A    between atoms: O_1  and  C_2
REMARK    2  A    between atoms: C_6  and  C_7
REMARK    3  A    between atoms: N_8  and  C_9
REMARK                            x       y       z     vdW  Elec       q    Type
REMARK                         _______ _______ _______ _____ _____    ______ ____
ROOT
ATOM      1  C   UNL     1       3.514   3.762  18.087  0.00  0.00    +0.000 C 
ATOM      2  N   UNL     1       4.730   4.195  18.129  0.00  0.00    +0.000 NA
ENDROOT
BRANCH   2   3
ATOM      3  C   UNL     1       5.418   4.417  16.916  0.00  0.00    +0.000 A 
ATOM      4  C   UNL     1       4.810   4.189  15.672  0.00  0.00    +0.000 A 
ATOM      5  C   UNL     1       5.506   4.399  14.478  0.00  0.00    +0.000 A 
ATOM      6  C   UNL     1       6.836   4.813  14.515  0.00  0.00    +0.000 A 
ATOM      7 CL   UNL     1       7.690   5.063  13.044  0.00  0.00    +0.000 Cl
ATOM      8  C   UNL     1       7.475   5.016  15.733  0.00  0.00    +0.000 A 
ATOM      9  C   UNL     1       6.771   4.817  16.924  0.00  0.00    +0.000 A 
ATOM     10 CL   UNL     1       7.617   5.079  18.411  0.00  0.00    +0.000 Cl
ENDBRANCH   2   3
BRANCH   1  15
ATOM     11  C   UNL     1       2.679   4.471  20.344  0.00  0.00    +0.000 A 
ATOM     12  N   UNL     1       1.940   3.846  21.316  0.00  0.00    +0.000 N 
ATOM     13  N   UNL     1       1.571   2.595  20.992  0.00  0.00    +0.000 NA
ATOM     14  C   UNL     1       2.096   2.421  19.775  0.00  0.00    +0.000 A 
ATOM     15  C   UNL     1       2.803   3.556  19.321  0.00  0.00    +0.000 A 
ATOM     16  H   UNL     1       1.651   4.201  22.219  0.00  0.00    +0.000 HD
BRANCH  11  17
ATOM     17  O   UNL     1       3.140   5.715  20.455  0.00  0.00    +0.000 OA
ATOM     18  H   UNL     1       4.096   5.735  20.278  0.00  0.00    +0.000 HD
ENDBRANCH  11  17
ENDBRANCH   1  15
TORSDOF 3
ENDMDL
MODEL 9
REMARK VINA RESULT:      -6.3      1.263      1.559
REMARK  Name = 
REMARK  3 active torsions:
REMARK  status: ('A' for Active; 'I' for Inactive)
REMARK    1  A    between atoms: O_1  and  C_2
REMARK    2  A    between atoms: C_6  and  C_7
REMARK    3  A    between atoms: N_8  and  C_9
REMARK                            x       y       z     vdW  Elec       q    Type
REMARK                         _______ _______ _______ _____ _____    ______ ____
ROOT
ATOM      1  C   UNL     1       5.414   3.824  15.770  0.00  0.00    +0.000 C 
ATOM      2  N   UNL     1       4.732   4.668  16.470  0.00  0.00    +0.000 NA
ENDROOT
BRANCH   2   3
ATOM      3  C   UNL     1       3.882   4.183  17.489  0.00  0.00    +0.000 A 
ATOM      4  C   UNL     1       2.679   3.524  17.191  0.00  0.00    +0.000 A 
ATOM      5  C   UNL     1       1.839   3.060  18.208  0.00  0.00    +0.000 A 
ATOM      6  C   UNL     1       2.180   3.278  19.541  0.00  0.00    +0.000 A 
ATOM      7 CL   UNL     1       1.140   2.712  20.788  0.00  0.00    +0.000 Cl
ATOM      8  C   UNL     1       3.349   3.956  19.866  0.00  0.00    +0.000 A 
ATOM      9  C   UNL     1       4.192   4.407  18.846  0.00  0.00    +0.000 A 
ATOM     10 CL   UNL     1       5.632   5.249  19.307  0.00  0.00    +0.000 Cl
ENDBRANCH   2   3
BRANCH   1  15
ATOM     11  C   UNL     1       6.357   3.866  13.446  0.00  0.00    +0.000 A 
ATOM     12  N   UNL     1       7.342   4.603  12.841  0.00  0.00    +0.000 N 
ATOM     13  N   UNL     1       7.918   5.506  13.653  0.00  0.00    +0.000 NA
ATOM     14  C   UNL     1       7.277   5.331  14.814  0.00  0.00    +0.000 A 
ATOM     15  C   UNL     1       6.296   4.317  14.747  0.00  0.00    +0.000 A 
ATOM     16  H   UNL     1       7.677   4.551  11.886  0.00  0.00    +0.000 HD
BRANCH  11  17
ATOM     17  O   UNL     1       5.653   2.924  12.822  0.00  0.00    +0.000 OA
ATOM     18  H   UNL     1       5.543   3.154  11.883  0.00  0.00    +0.000 HD
ENDBRANCH  11  17
ENDBRANCH   1  15
TORSDOF 3
ENDMDL
