MODEL 1
REMARK VINA RESULT:      -7.2      0.000      0.000
REMARK  Name = 
REMARK  6 active torsions:
REMARK  status: ('A' for Active; 'I' for Inactive)
REMARK    1  A    between atoms: C_1  and  C_2
REMARK    2  A    between atoms: C_2  and  O_3
REMARK    3  A    between atoms: O_3  and  C_4
REMARK    4  A    between atoms: C_4  and  C_6
REMARK    5  A    between atoms: C_6  and  C_7
REMARK    6  A    between atoms: C_10  and  O_11
REMARK                            x       y       z     vdW  Elec       q    Type
REMARK                         _______ _______ _______ _____ _____    ______ ____
ROOT
ATOM      1  C   UNL     1       6.064   5.585  16.478  0.00  0.00    +0.000 A 
ATOM      2  C   UNL     1       7.136   6.409  16.868  0.00  0.00    +0.000 A 
ATOM      3  C   UNL     1       7.636   6.373  18.170  0.00  0.00    +0.000 A 
ATOM      4  C   UNL     1       7.078   5.513  19.119  0.00  0.00    +0.000 A 
ATOM      5  C   UNL     1       6.010   4.681  18.762  0.00  0.00    +0.000 A 
ATOM      6  N   UNL     1       5.472   3.842  19.690  0.00  0.00    +0.000 NA
ATOM      7  C   UNL     1       4.441   3.010  19.400  0.00  0.00    +0.000 A 
ATOM      8  C   UNL     1       3.901   2.990  18.117  0.00  0.00    +0.000 A 
ATOM      9  C   UNL     1       4.427   3.832  17.136  0.00  0.00    +0.000 A 
ATOM     10  C   UNL     1       5.492   4.704  17.439  0.00  0.00    +0.000 A 
ENDROOT
BRANCH   4  11
ATOM     11  O   UNL     1       7.566   5.477  20.378  0.00  0.00    +0.000 OA
ATOM     12  H   UNL     1       7.022   5.695  21.148  0.00  0.00    +0.000 HD
ENDBRANCH   4  11
BRANCH   1  13
ATOM     13  C   UNL     1       5.581   5.674  15.042  0.00  0.00    +0.000 C 
BRANCH  13  14
ATOM     14  C   UNL     1       6.453   4.895  14.099  0.00  0.00    +0.000 C 
ATOM     15  O   UNL     1       7.554   5.332  13.791  0.00  0.00    +0.000 OA
BRANCH  14  16
ATOM     16  O   UNL     1       6.012   3.702  13.623  0.00  0.00    +0.000 OA
BRANCH  16  18
ATOM     17  C   UNL     1       4.648   3.269  11.729  0.00  0.00    +0.000 C 
ATOM     18  C   UNL     1       6.056   3.290  12.302  0.00  0.00    +0.000 C 
ENDBRANCH  16  18
ENDBRANCH  14  16
ENDBRANCH  13  14
ENDBRANCH   1  13
TORSDOF 5
ENDMDL
MODEL 2
REMARK VINA RESULT:      -7.1      1.138      2.701
REMARK  Name = 
REMARK  6 active torsions:
REMARK  status: ('A' for Active; 'I' for Inactive)
REMARK    1  A    between atoms: C_1  and  C_2
REMARK    2  A    between atoms: C_2  and  O_3
REMARK    3  A    between atoms: O_3  and  C_4
REMARK    4  A    between atoms: C_4  and  C_6
REMARK    5  A    between atoms: C_6  and  C_7
REMARK    6  A    between atoms: C_10  and  O_11
REMARK                            x       y       z     vdW  Elec       q    Type
REMARK                         _______ _______ _______ _____ _____    ______ ____
ROOT
ATOM      1  C   UNL     1       5.362   4.881  16.319  0.00  0.00    +0.000 A 
ATOM      2  C   UNL     1       4.358   3.908  16.483  0.00  0.00    +0.000 A 
ATOM      3  C   UNL     1       4.143   3.297  17.718  0.00  0.00    +0.000 A 
ATOM      4  C   UNL     1       4.924   3.639  18.825  0.00  0.00    +0.000 A 
ATOM      5  C   UNL     1       5.931   4.604  18.693  0.00  0.00    +0.000 A 
ATOM      6  N   UNL     1       6.687   4.937  19.775  0.00  0.00    +0.000 NA
ATOM      7  C   UNL     1       7.672   5.868  19.709  0.00  0.00    +0.000 A 
ATOM      8  C   UNL     1       7.933   6.522  18.509  0.00  0.00    +0.000 A 
ATOM      9  C   UNL     1       7.177   6.212  17.377  0.00  0.00    +0.000 A 
ATOM     10  C   UNL     1       6.160   5.238  17.442  0.00  0.00    +0.000 A 
ENDROOT
BRANCH   4  11
ATOM     11  O   UNL     1       4.711   3.049  20.020  0.00  0.00    +0.000 OA
ATOM     12  H   UNL     1       4.200   3.476  20.722  0.00  0.00    +0.000 HD
ENDBRANCH   4  11
BRANCH   1  13
ATOM     13  C   UNL     1       5.530   5.508  14.948  0.00  0.00    +0.000 C 
BRANCH  13  14
ATOM     14  C   UNL     1       6.606   4.836  14.142  0.00  0.00    +0.000 C 
ATOM     15  O   UNL     1       7.697   5.376  14.019  0.00  0.00    +0.000 OA
BRANCH  14  16
ATOM     16  O   UNL     1       6.354   3.623  13.584  0.00  0.00    +0.000 OA
BRANCH  16  18
ATOM     17  C   UNL     1       4.758   3.343  11.849  0.00  0.00    +0.000 C 
ATOM     18  C   UNL     1       6.231   3.365  12.230  0.00  0.00    +0.000 C 
ENDBRANCH  16  18
ENDBRANCH  14  16
ENDBRANCH  13  14
ENDBRANCH   1  13
TORSDOF 5
ENDMDL
MODEL 3
REMARK VINA RESULT:      -7.0      2.859      5.116
REMARK  Name = 
REMARK  6 active torsions:
REMARK  status: ('A' for Active; 'I' for Inactive)
REMARK    1  A    between atoms: C_1  and  C_2
REMARK    2  A    between atoms: C_2  and  O_3
REMARK    3  A    between atoms: O_3  and  C_4
REMARK    4  A    between atoms: C_4  and  C_6
REMARK    5  A    between atoms: C_6  and  C_7
REMARK    6  A    between atoms: C_10  and  O_11
REMARK                            x       y       z     vdW  Elec       q    Type
REMARK                         _______ _______ _______ _____ _____    ______ ____
ROOT
ATOM      1  C   UNL     1       4.311   4.106  17.539  0.00  0.00    +0.000 A 
ATOM      2  C   UNL     1       4.555   4.547  18.853  0.00  0.00    +0.000 A 
ATOM      3  C   UNL     1       5.717   5.249  19.173  0.00  0.00    +0.000 A 
ATOM      4  C   UNL     1       6.669   5.530  18.190  0.00  0.00    +0.000 A 
ATOM      5  C   UNL     1       6.455   5.103  16.873  0.00  0.00    +0.000 A 
ATOM      6  N   UNL     1       7.384   5.382  15.917  0.00  0.00    +0.000 NA
ATOM      7  C   UNL     1       7.228   4.999  14.625  0.00  0.00    +0.000 A 
ATOM      8  C   UNL     1       6.087   4.303  14.237  0.00  0.00    +0.000 A 
ATOM      9  C   UNL     1       5.109   4.001  15.186  0.00  0.00    +0.000 A 
ATOM     10  C   UNL     1       5.274   4.390  16.531  0.00  0.00    +0.000 A 
ENDROOT
BRANCH   4  11
ATOM     11  O   UNL     1       7.791   6.213  18.501  0.00  0.00    +0.000 OA
ATOM     12  H   UNL     1       8.117   6.943  17.957  0.00  0.00    +0.000 HD
ENDBRANCH   4  11
BRANCH   1  13
ATOM     13  C   UNL     1       3.020   3.356  17.267  0.00  0.00    +0.000 C 
BRANCH  13  14
ATOM     14  C   UNL     1       2.829   2.192  18.197  0.00  0.00    +0.000 C 
ATOM     15  O   UNL     1       3.669   1.303  18.236  0.00  0.00    +0.000 OA
BRANCH  14  16
ATOM     16  O   UNL     1       1.735   2.161  19.002  0.00  0.00    +0.000 OA
BRANCH  16  18
ATOM     17  C   UNL     1       1.087   3.934  20.442  0.00  0.00    +0.000 C 
ATOM     18  C   UNL     1       1.698   2.545  20.331  0.00  0.00    +0.000 C 
ENDBRANCH  16  18
ENDBRANCH  14  16
ENDBRANCH  13  14
ENDBRANCH   1  13
TORSDOF 5
ENDMDL
MODEL 4
REMARK VINA RESULT:      -6.9      2.908      5.222
REMARK  Name = 
REMARK  6 active torsions:
REMARK  status: ('A' for Active; 'I' for Inactive)
REMARK    1  A    between atoms: C_1  and  C_2
REMARK    2  A    between atoms: C_2  and  O_3
REMARK    3  A    between atoms: O_3  and  C_4
REMARK    4  A    between atoms: C_4  and  C_6
REMARK    5  A    between atoms: C_6  and  C_7
REMARK    6  A    between atoms: C_10  and  O_11
REMARK                            x       y       z     vdW  Elec       q    Type
REMARK                         _______ _______ _______ _____ _____    ______ ____
ROOT
ATOM      1  C   UNL     1       4.632   3.943  17.874  0.00  0.00    +0.000 A 
ATOM      2  C   UNL     1       4.955   4.471  19.138  0.00  0.00    +0.000 A 
ATOM      3  C   UNL     1       6.043   5.328  19.304  0.00  0.00    +0.000 A 
ATOM      4  C   UNL     1       6.839   5.682  18.212  0.00  0.00    +0.000 A 
ATOM      5  C   UNL     1       6.543   5.172  16.941  0.00  0.00    +0.000 A 
ATOM      6  N   UNL     1       7.321   5.522  15.880  0.00  0.00    +0.000 NA
ATOM      7  C   UNL     1       7.079   5.065  14.625  0.00  0.00    +0.000 A 
ATOM      8  C   UNL     1       6.003   4.214  14.390  0.00  0.00    +0.000 A 
ATOM      9  C   UNL     1       5.180   3.834  15.451  0.00  0.00    +0.000 A 
ATOM     10  C   UNL     1       5.436   4.301  16.756  0.00  0.00    +0.000 A 
ENDROOT
BRANCH   4  11
ATOM     11  O   UNL     1       7.890   6.514  18.374  0.00  0.00    +0.000 OA
ATOM     12  H   UNL     1       8.109   7.199  17.727  0.00  0.00    +0.000 HD
ENDBRANCH   4  11
BRANCH   1  13
ATOM     13  C   UNL     1       3.428   3.025  17.771  0.00  0.00    +0.000 C 
BRANCH  13  14
ATOM     14  C   UNL     1       2.153   3.710  18.174  0.00  0.00    +0.000 C 
ATOM     15  O   UNL     1       1.810   4.737  17.605  0.00  0.00    +0.000 OA
BRANCH  14  16
ATOM     16  O   UNL     1       1.386   3.158  19.151  0.00  0.00    +0.000 OA
BRANCH  16  18
ATOM     17  C   UNL     1       1.725   2.983  21.494  0.00  0.00    +0.000 C 
ATOM     18  C   UNL     1       1.064   3.751  20.360  0.00  0.00    +0.000 C 
ENDBRANCH  16  18
ENDBRANCH  14  16
ENDBRANCH  13  14
ENDBRANCH   1  13
TORSDOF 5
ENDMDL
MODEL 5
REMARK VINA RESULT:      -6.7      2.259      2.642
REMARK  Name = 
REMARK  6 active torsions:
REMARK  status: ('A' for Active; 'I' for Inactive)
REMARK    1  A    between atoms: C_1  and  C_2
REMARK    2  A    between atoms: C_2  and  O_3
REMARK    3  A    between atoms: O_3  and  C_4
REMARK    4  A    between atoms: C_4  and  C_6
REMARK    5  A    between atoms: C_6  and  C_7
REMARK    6  A    between atoms: C_10  and  O_11
REMARK                            x       y       z     vdW  Elec       q    Type
REMARK                         _______ _______ _______ _____ _____    ______ ____
ROOT
ATOM      1  C   UNL     1       5.148   4.938  16.792  0.00  0.00    +0.000 A 
ATOM      2  C   UNL     1       5.283   6.336  16.859  0.00  0.00    +0.000 A 
ATOM      3  C   UNL     1       4.282   7.131  17.417  0.00  0.00    +0.000 A 
ATOM      4  C   UNL     1       3.117   6.551  17.924  0.00  0.00    +0.000 A 
ATOM      5  C   UNL     1       2.952   5.160  17.872  0.00  0.00    +0.000 A 
ATOM      6  N   UNL     1       1.816   4.599  18.369  0.00  0.00    +0.000 NA
ATOM      7  C   UNL     1       1.605   3.259  18.351  0.00  0.00    +0.000 A 
ATOM      8  C   UNL     1       2.568   2.409  17.816  0.00  0.00    +0.000 A 
ATOM      9  C   UNL     1       3.749   2.945  17.299  0.00  0.00    +0.000 A 
ATOM     10  C   UNL     1       3.965   4.338  17.309  0.00  0.00    +0.000 A 
ENDROOT
BRANCH   4  11
ATOM     11  O   UNL     1       2.150   7.322  18.467  0.00  0.00    +0.000 OA
ATOM     12  H   UNL     1       2.303   7.859  19.257  0.00  0.00    +0.000 HD
ENDBRANCH   4  11
BRANCH   1  13
ATOM     13  C   UNL     1       6.284   4.139  16.179  0.00  0.00    +0.000 C 
BRANCH  13  14
ATOM     14  C   UNL     1       6.551   4.530  14.753  0.00  0.00    +0.000 C 
ATOM     15  O   UNL     1       7.520   5.228  14.487  0.00  0.00    +0.000 OA
BRANCH  14  16
ATOM     16  O   UNL     1       5.722   4.077  13.777  0.00  0.00    +0.000 OA
BRANCH  16  18
ATOM     17  C   UNL     1       4.890   3.126  11.767  0.00  0.00    +0.000 C 
ATOM     18  C   UNL     1       6.117   3.541  12.564  0.00  0.00    +0.000 C 
ENDBRANCH  16  18
ENDBRANCH  14  16
ENDBRANCH  13  14
ENDBRANCH   1  13
TORSDOF 5
ENDMDL
MODEL 6
REMARK VINA RESULT:      -6.7      2.566      5.254
REMARK  Name = 
REMARK  6 active torsions:
REMARK  status: ('A' for Active; 'I' for Inactive)
REMARK    1  A    between atoms: C_1  and  C_2
REMARK    2  A    between atoms: C_2  and  O_3
REMARK    3  A    between atoms: O_3  and  C_4
REMARK    4  A    between atoms: C_4  and  C_6
REMARK    5  A    between atoms: C_6  and  C_7
REMARK    6  A    between atoms: C_10  and  O_11
REMARK                            x       y       z     vdW  Elec       q    Type
REMARK                         _______ _______ _______ _____ _____    ______ ____
ROOT
ATOM      1  C   UNL     1       5.130   4.101  18.178  0.00  0.00    +0.000 A 
ATOM      2  C   UNL     1       5.508   4.867  19.296  0.00  0.00    +0.000 A 
ATOM      3  C   UNL     1       6.474   5.867  19.192  0.00  0.00    +0.000 A 
ATOM      4  C   UNL     1       7.091   6.131  17.967  0.00  0.00    +0.000 A 
ATOM      5  C   UNL     1       6.736   5.386  16.834  0.00  0.00    +0.000 A 
ATOM      6  N   UNL     1       7.338   5.649  15.642  0.00  0.00    +0.000 NA
ATOM      7  C   UNL     1       7.031   4.965  14.511  0.00  0.00    +0.000 A 
ATOM      8  C   UNL     1       6.069   3.960  14.545  0.00  0.00    +0.000 A 
ATOM      9  C   UNL     1       5.427   3.661  15.748  0.00  0.00    +0.000 A 
ATOM     10  C   UNL     1       5.751   4.366  16.925  0.00  0.00    +0.000 A 
ENDROOT
BRANCH   4  11
ATOM     11  O   UNL     1       8.023   7.103  17.867  0.00  0.00    +0.000 OA
ATOM     12  H   UNL     1       8.827   7.103  18.405  0.00  0.00    +0.000 HD
ENDBRANCH   4  11
BRANCH   1  13
ATOM     13  C   UNL     1       4.066   3.037  18.368  0.00  0.00    +0.000 C 
BRANCH  13  14
ATOM     14  C   UNL     1       4.049   2.491  19.768  0.00  0.00    +0.000 C 
ATOM     15  O   UNL     1       4.944   1.742  20.137  0.00  0.00    +0.000 OA
BRANCH  14  16
ATOM     16  O   UNL     1       3.050   2.862  20.611  0.00  0.00    +0.000 OA
BRANCH  16  18
ATOM     17  C   UNL     1       0.938   3.886  20.255  0.00  0.00    +0.000 C 
ATOM     18  C   UNL     1       1.704   2.586  20.441  0.00  0.00    +0.000 C 
ENDBRANCH  16  18
ENDBRANCH  14  16
ENDBRANCH  13  14
ENDBRANCH   1  13
TORSDOF 5
ENDMDL
MODEL 7
REMARK VINA RESULT:      -6.7      2.693      5.086
REMARK  Name = 
REMARK  6 active torsions:
REMARK  status: ('A' for Active; 'I' for Inactive)
REMARK    1  A    between atoms: C_1  and  C_2
REMARK    2  A    between atoms: C_2  and  O_3
REMARK    3  A    between atoms: O_3  and  C_4
REMARK    4  A    between atoms: C_4  and  C_6
REMARK    5  A    between atoms: C_6  and  C_7
REMARK    6  A    between atoms: C_10  and  O_11
REMARK                            x       y       z     vdW  Elec       q    Type
REMARK                         _______ _______ _______ _____ _____    ______ ____
ROOT
ATOM      1  C   UNL     1       4.758   3.849  16.969  0.00  0.00    +0.000 A 
ATOM      2  C   UNL     1       4.782   3.697  15.570  0.00  0.00    +0.000 A 
ATOM      3  C   UNL     1       5.782   4.288  14.798  0.00  0.00    +0.000 A 
ATOM      4  C   UNL     1       6.787   5.049  15.402  0.00  0.00    +0.000 A 
ATOM      5  C   UNL     1       6.790   5.218  16.793  0.00  0.00    +0.000 A 
ATOM      6  N   UNL     1       7.773   5.958  17.376  0.00  0.00    +0.000 NA
ATOM      7  C   UNL     1       7.831   6.151  18.718  0.00  0.00    +0.000 A 
ATOM      8  C   UNL     1       6.868   5.581  19.546  0.00  0.00    +0.000 A 
ATOM      9  C   UNL     1       5.846   4.813  18.987  0.00  0.00    +0.000 A 
ATOM     10  C   UNL     1       5.780   4.619  17.592  0.00  0.00    +0.000 A 
ENDROOT
BRANCH   4  11
ATOM     11  O   UNL     1       7.756   5.617  14.653  0.00  0.00    +0.000 OA
ATOM     12  H   UNL     1       7.969   6.558  14.714  0.00  0.00    +0.000 HD
ENDBRANCH   4  11
BRANCH   1  13
ATOM     13  C   UNL     1       3.643   3.169  17.741  0.00  0.00    +0.000 C 
BRANCH  13  14
ATOM     14  C   UNL     1       2.388   3.994  17.777  0.00  0.00    +0.000 C 
ATOM     15  O   UNL     1       2.462   5.213  17.708  0.00  0.00    +0.000 OA
BRANCH  14  16
ATOM     16  O   UNL     1       1.186   3.365  17.859  0.00  0.00    +0.000 OA
BRANCH  16  18
ATOM     17  C   UNL     1       0.992   3.244  20.222  0.00  0.00    +0.000 C 
ATOM     18  C   UNL     1       0.772   2.542  18.891  0.00  0.00    +0.000 C 
ENDBRANCH  16  18
ENDBRANCH  14  16
ENDBRANCH  13  14
ENDBRANCH   1  13
TORSDOF 5
ENDMDL
MODEL 8
REMARK VINA RESULT:      -6.6      2.505      3.885
REMARK  Name = 
REMARK  6 active torsions:
REMARK  status: ('A' for Active; 'I' for Inactive)
REMARK    1  A    between atoms: C_1  and  C_2
REMARK    2  A    between atoms: C_2  and  O_3
REMARK    3  A    between atoms: O_3  and  C_4
REMARK    4  A    between atoms: C_4  and  C_6
REMARK    5  A    between atoms: C_6  and  C_7
REMARK    6  A    between atoms: C_10  and  O_11
REMARK                            x       y       z     vdW  Elec       q    Type
REMARK                         _______ _______ _______ _____ _____    ______ ____
ROOT
ATOM      1  C   UNL     1       4.341   5.510  17.117  0.00  0.00    +0.000 A 
ATOM      2  C   UNL     1       4.053   6.798  17.607  0.00  0.00    +0.000 A 
ATOM      3  C   UNL     1       3.245   6.978  18.729  0.00  0.00    +0.000 A 
ATOM      4  C   UNL     1       2.702   5.877  19.395  0.00  0.00    +0.000 A 
ATOM      5  C   UNL     1       2.970   4.582  18.933  0.00  0.00    +0.000 A 
ATOM      6  N   UNL     1       2.440   3.512  19.587  0.00  0.00    +0.000 NA
ATOM      7  C   UNL     1       2.670   2.236  19.189  0.00  0.00    +0.000 A 
ATOM      8  C   UNL     1       3.475   1.986  18.080  0.00  0.00    +0.000 A 
ATOM      9  C   UNL     1       4.039   3.056  17.384  0.00  0.00    +0.000 A 
ATOM     10  C   UNL     1       3.794   4.383  17.792  0.00  0.00    +0.000 A 
ENDROOT
BRANCH   4  11
ATOM     11  O   UNL     1       1.923   6.054  20.485  0.00  0.00    +0.000 OA
ATOM     12  H   UNL     1       0.957   6.060  20.432  0.00  0.00    +0.000 HD
ENDBRANCH   4  11
BRANCH   1  13
ATOM     13  C   UNL     1       5.234   5.394  15.897  0.00  0.00    +0.000 C 
BRANCH  13  14
ATOM     14  C   UNL     1       6.690   5.324  16.261  0.00  0.00    +0.000 C 
ATOM     15  O   UNL     1       7.215   4.236  16.456  0.00  0.00    +0.000 OA
BRANCH  14  16
ATOM     16  O   UNL     1       7.408   6.475  16.340  0.00  0.00    +0.000 OA
BRANCH  16  18
ATOM     17  C   UNL     1       7.785   6.406  18.683  0.00  0.00    +0.000 C 
ATOM     18  C   UNL     1       7.532   7.276  17.462  0.00  0.00    +0.000 C 
ENDBRANCH  16  18
ENDBRANCH  14  16
ENDBRANCH  13  14
ENDBRANCH   1  13
TORSDOF 5
ENDMDL
MODEL 9
REMARK VINA RESULT:      -6.6      2.916      4.538
REMARK  Name = 
REMARK  6 active torsions:
REMARK  status: ('A' for Active; 'I' for Inactive)
REMARK    1  A    between atoms: C_1  and  C_2
REMARK    2  A    between atoms: C_2  and  O_3
REMARK    3  A    between atoms: O_3  and  C_4
REMARK    4  A    between atoms: C_4  and  C_6
REMARK    5  A    between atoms: C_6  and  C_7
REMARK    6  A    between atoms: C_10  and  O_11
REMARK                            x       y       z     vdW  Elec       q    Type
REMARK                         _______ _______ _______ _____ _____    ______ ____
ROOT
ATOM      1  C   UNL     1       4.670   4.842  17.583  0.00  0.00    +0.000 A 
ATOM      2  C   UNL     1       4.742   3.650  18.327  0.00  0.00    +0.000 A 
ATOM      3  C   UNL     1       4.014   3.490  19.505  0.00  0.00    +0.000 A 
ATOM      4  C   UNL     1       3.192   4.518  19.974  0.00  0.00    +0.000 A 
ATOM      5  C   UNL     1       3.098   5.717  19.256  0.00  0.00    +0.000 A 
ATOM      6  N   UNL     1       2.294   6.715  19.716  0.00  0.00    +0.000 NA
ATOM      7  C   UNL     1       2.159   7.895  19.059  0.00  0.00    +0.000 A 
ATOM      8  C   UNL     1       2.853   8.114  17.872  0.00  0.00    +0.000 A 
ATOM      9  C   UNL     1       3.685   7.115  17.366  0.00  0.00    +0.000 A 
ATOM     10  C   UNL     1       3.832   5.892  18.052  0.00  0.00    +0.000 A 
ENDROOT
BRANCH   4  11
ATOM     11  O   UNL     1       2.484   4.361  21.114  0.00  0.00    +0.000 OA
ATOM     12  H   UNL     1       1.929   5.065  21.477  0.00  0.00    +0.000 HD
ENDBRANCH   4  11
BRANCH   1  13
ATOM     13  C   UNL     1       5.485   4.937  16.306  0.00  0.00    +0.000 C 
BRANCH  13  14
ATOM     14  C   UNL     1       6.915   5.317  16.569  0.00  0.00    +0.000 C 
ATOM     15  O   UNL     1       7.779   4.451  16.585  0.00  0.00    +0.000 OA
BRANCH  14  16
ATOM     16  O   UNL     1       7.227   6.625  16.760  0.00  0.00    +0.000 OA
BRANCH  16  18
ATOM     17  C   UNL     1       7.910   8.674  17.745  0.00  0.00    +0.000 C 
ATOM     18  C   UNL     1       7.759   7.170  17.915  0.00  0.00    +0.000 C 
ENDBRANCH  16  18
ENDBRANCH  14  16
ENDBRANCH  13  14
ENDBRANCH   1  13
TORSDOF 5
ENDMDL
