MODEL 1
REMARK VINA RESULT:      -6.5      0.000      0.000
REMARK  Name = 
REMARK  6 active torsions:
REMARK  status: ('A' for Active; 'I' for Inactive)
REMARK    1  A    between atoms: C_1  and  C_2
REMARK    2  A    between atoms: C_2  and  N_3
REMARK    3  A    between atoms: C_2  and  C_4
REMARK    4  A    between atoms: C_2  and  C_12
REMARK    5  A    between atoms: C_5  and  C_6
REMARK    6  A    between atoms: C_12  and  O_14
REMARK                            x       y       z     vdW  Elec       q    Type
REMARK                         _______ _______ _______ _____ _____    ______ ____
ROOT
ATOM      1  C   UNL     1       5.905   4.707  19.205  0.00  0.00    +0.000 C 
ATOM      2  C   UNL     1       5.770   4.863  17.686  0.00  0.00    +0.000 C 
ENDROOT
BRANCH   2   3
ATOM      3  N   UNL     1       5.247   3.610  17.068  0.00  0.00    +0.000 NA
ATOM      4  H   UNL     1       5.951   2.885  17.241  0.00  0.00    +0.000 HD
ATOM      5  H   UNL     1       5.279   3.728  16.052  0.00  0.00    +0.000 HD
ENDBRANCH   2   3
BRANCH   2   6
ATOM      6  C   UNL     1       4.910   6.013  17.221  0.00  0.00    +0.000 C 
ATOM      7  C   UNL     1       3.626   6.304  17.494  0.00  0.00    +0.000 C 
BRANCH   7   8
ATOM      8  C   UNL     1       2.698   5.579  18.358  0.00  0.00    +0.000 A 
ATOM      9  C   UNL     1       1.995   4.474  17.860  0.00  0.00    +0.000 A 
ATOM     10  C   UNL     1       1.230   3.686  18.723  0.00  0.00    +0.000 A 
ATOM     11  C   UNL     1       1.156   4.001  20.076  0.00  0.00    +0.000 A 
ATOM     12  C   UNL     1       1.818   5.127  20.569  0.00  0.00    +0.000 A 
ATOM     13  C   UNL     1       2.569   5.929  19.702  0.00  0.00    +0.000 A 
ENDBRANCH   7   8
ENDBRANCH   2   6
BRANCH   2  14
ATOM     14  C   UNL     1       7.196   5.090  17.087  0.00  0.00    +0.000 C 
ATOM     15  O   UNL     1       7.519   5.947  16.287  0.00  0.00    +0.000 OA
BRANCH  14  16
ATOM     16  O   UNL     1       8.059   4.127  17.530  0.00  0.00    +0.000 OA
ATOM     17  H   UNL     1       8.874   4.614  17.818  0.00  0.00    +0.000 HD
ENDBRANCH  14  16
ENDBRANCH   2  14
TORSDOF 5
ENDMDL
MODEL 2
REMARK VINA RESULT:      -6.5      0.402      1.353
REMARK  Name = 
REMARK  6 active torsions:
REMARK  status: ('A' for Active; 'I' for Inactive)
REMARK    1  A    between atoms: C_1  and  C_2
REMARK    2  A    between atoms: C_2  and  N_3
REMARK    3  A    between atoms: C_2  and  C_4
REMARK    4  A    between atoms: C_2  and  C_12
REMARK    5  A    between atoms: C_5  and  C_6
REMARK    6  A    between atoms: C_12  and  O_14
REMARK                            x       y       z     vdW  Elec       q    Type
REMARK                         _______ _______ _______ _____ _____    ______ ____
ROOT
ATOM      1  C   UNL     1       6.191   5.249  19.276  0.00  0.00    +0.000 C 
ATOM      2  C   UNL     1       5.880   5.201  17.777  0.00  0.00    +0.000 C 
ENDROOT
BRANCH   2   3
ATOM      3  N   UNL     1       5.473   3.827  17.363  0.00  0.00    +0.000 NA
ATOM      4  H   UNL     1       4.526   3.908  16.977  0.00  0.00    +0.000 HD
ATOM      5  H   UNL     1       5.332   3.275  18.213  0.00  0.00    +0.000 HD
ENDBRANCH   2   3
BRANCH   2   6
ATOM      6  C   UNL     1       4.824   6.169  17.296  0.00  0.00    +0.000 C 
ATOM      7  C   UNL     1       3.511   6.231  17.574  0.00  0.00    +0.000 C 
BRANCH   7   8
ATOM      8  C   UNL     1       2.731   5.370  18.460  0.00  0.00    +0.000 A 
ATOM      9  C   UNL     1       2.589   5.704  19.814  0.00  0.00    +0.000 A 
ATOM     10  C   UNL     1       1.718   4.973  20.626  0.00  0.00    +0.000 A 
ATOM     11  C   UNL     1       0.998   3.906  20.096  0.00  0.00    +0.000 A 
ATOM     12  C   UNL     1       1.171   3.542  18.759  0.00  0.00    +0.000 A 
ATOM     13  C   UNL     1       2.057   4.261  17.949  0.00  0.00    +0.000 A 
ENDBRANCH   7   8
ENDBRANCH   2   6
BRANCH   2  14
ATOM     14  C   UNL     1       7.190   5.531  16.992  0.00  0.00    +0.000 C 
ATOM     15  O   UNL     1       7.492   6.601  16.500  0.00  0.00    +0.000 OA
BRANCH  14  16
ATOM     16  O   UNL     1       7.959   4.409  16.853  0.00  0.00    +0.000 OA
ATOM     17  H   UNL     1       8.565   4.595  16.090  0.00  0.00    +0.000 HD
ENDBRANCH  14  16
ENDBRANCH   2  14
TORSDOF 5
ENDMDL
MODEL 3
REMARK VINA RESULT:      -6.4      1.413      1.910
REMARK  Name = 
REMARK  6 active torsions:
REMARK  status: ('A' for Active; 'I' for Inactive)
REMARK    1  A    between atoms: C_1  and  C_2
REMARK    2  A    between atoms: C_2  and  N_3
REMARK    3  A    between atoms: C_2  and  C_4
REMARK    4  A    between atoms: C_2  and  C_12
REMARK    5  A    between atoms: C_5  and  C_6
REMARK    6  A    between atoms: C_12  and  O_14
REMARK                            x       y       z     vdW  Elec       q    Type
REMARK                         _______ _______ _______ _____ _____    ______ ____
ROOT
ATOM      1  C   UNL     1       5.266   6.220  17.805  0.00  0.00    +0.000 C 
ATOM      2  C   UNL     1       5.796   4.803  17.565  0.00  0.00    +0.000 C 
ENDROOT
BRANCH   2   3
ATOM      3  N   UNL     1       6.225   4.171  18.846  0.00  0.00    +0.000 NA
ATOM      4  H   UNL     1       5.585   4.516  19.569  0.00  0.00    +0.000 HD
ATOM      5  H   UNL     1       7.122   4.587  19.112  0.00  0.00    +0.000 HD
ENDBRANCH   2   3
BRANCH   2   6
ATOM      6  C   UNL     1       4.844   3.858  16.869  0.00  0.00    +0.000 C 
ATOM      7  C   UNL     1       3.698   3.305  17.302  0.00  0.00    +0.000 C 
BRANCH   7   8
ATOM      8  C   UNL     1       3.032   3.492  18.589  0.00  0.00    +0.000 A 
ATOM      9  C   UNL     1       2.143   4.562  18.767  0.00  0.00    +0.000 A 
ATOM     10  C   UNL     1       1.386   4.652  19.938  0.00  0.00    +0.000 A 
ATOM     11  C   UNL     1       1.519   3.688  20.933  0.00  0.00    +0.000 A 
ATOM     12  C   UNL     1       2.436   2.646  20.779  0.00  0.00    +0.000 A 
ATOM     13  C   UNL     1       3.209   2.564  19.615  0.00  0.00    +0.000 A 
ENDBRANCH   7   8
ENDBRANCH   2   6
BRANCH   2  14
ATOM     14  C   UNL     1       7.073   4.901  16.670  0.00  0.00    +0.000 C 
ATOM     15  O   UNL     1       7.189   5.531  15.636  0.00  0.00    +0.000 OA
BRANCH  14  16
ATOM     16  O   UNL     1       8.067   4.103  17.167  0.00  0.00    +0.000 OA
ATOM     17  H   UNL     1       8.914   4.496  16.832  0.00  0.00    +0.000 HD
ENDBRANCH  14  16
ENDBRANCH   2  14
TORSDOF 5
ENDMDL
MODEL 4
REMARK VINA RESULT:      -6.3      1.312      1.733
REMARK  Name = 
REMARK  6 active torsions:
REMARK  status: ('A' for Active; 'I' for Inactive)
REMARK    1  A    between atoms: C_1  and  C_2
REMARK    2  A    between atoms: C_2  and  N_3
REMARK    3  A    between atoms: C_2  and  C_4
REMARK    4  A    between atoms: C_2  and  C_12
REMARK    5  A    between atoms: C_5  and  C_6
REMARK    6  A    between atoms: C_12  and  O_14
REMARK                            x       y       z     vdW  Elec       q    Type
REMARK                         _______ _______ _______ _____ _____    ______ ____
ROOT
ATOM      1  C   UNL     1       5.569   6.258  17.626  0.00  0.00    +0.000 C 
ATOM      2  C   UNL     1       5.840   4.763  17.429  0.00  0.00    +0.000 C 
ENDROOT
BRANCH   2   3
ATOM      3  N   UNL     1       6.085   4.091  18.738  0.00  0.00    +0.000 NA
ATOM      4  H   UNL     1       6.817   4.632  19.210  0.00  0.00    +0.000 HD
ATOM      5  H   UNL     1       6.544   3.196  18.547  0.00  0.00    +0.000 HD
ENDBRANCH   2   3
BRANCH   2   6
ATOM      6  C   UNL     1       4.765   3.993  16.698  0.00  0.00    +0.000 C 
ATOM      7  C   UNL     1       3.555   3.583  17.115  0.00  0.00    +0.000 C 
BRANCH   7   8
ATOM      8  C   UNL     1       2.925   3.797  18.416  0.00  0.00    +0.000 A 
ATOM      9  C   UNL     1       2.933   2.774  19.375  0.00  0.00    +0.000 A 
ATOM     10  C   UNL     1       2.474   3.027  20.669  0.00  0.00    +0.000 A 
ATOM     11  C   UNL     1       1.998   4.291  21.008  0.00  0.00    +0.000 A 
ATOM     12  C   UNL     1       1.946   5.300  20.044  0.00  0.00    +0.000 A 
ATOM     13  C   UNL     1       2.388   5.042  18.741  0.00  0.00    +0.000 A 
ENDBRANCH   7   8
ENDBRANCH   2   6
BRANCH   2  14
ATOM     14  C   UNL     1       7.155   4.606  16.599  0.00  0.00    +0.000 C 
ATOM     15  O   UNL     1       7.299   4.848  15.416  0.00  0.00    +0.000 OA
BRANCH  14  16
ATOM     16  O   UNL     1       8.149   4.075  17.373  0.00  0.00    +0.000 OA
ATOM     17  H   UNL     1       8.993   4.271  16.891  0.00  0.00    +0.000 HD
ENDBRANCH  14  16
ENDBRANCH   2  14
TORSDOF 5
ENDMDL
MODEL 5
REMARK VINA RESULT:      -6.3      1.582      2.208
REMARK  Name = 
REMARK  6 active torsions:
REMARK  status: ('A' for Active; 'I' for Inactive)
REMARK    1  A    between atoms: C_1  and  C_2
REMARK    2  A    between atoms: C_2  and  N_3
REMARK    3  A    between atoms: C_2  and  C_4
REMARK    4  A    between atoms: C_2  and  C_12
REMARK    5  A    between atoms: C_5  and  C_6
REMARK    6  A    between atoms: C_12  and  O_14
REMARK                            x       y       z     vdW  Elec       q    Type
REMARK                         _______ _______ _______ _____ _____    ______ ____
ROOT
ATOM      1  C   UNL     1       5.116   4.015  16.542  0.00  0.00    +0.000 C 
ATOM      2  C   UNL     1       5.590   5.211  17.374  0.00  0.00    +0.000 C 
ENDROOT
BRANCH   2   3
ATOM      3  N   UNL     1       6.878   5.748  16.848  0.00  0.00    +0.000 NA
ATOM      4  H   UNL     1       7.408   6.079  17.661  0.00  0.00    +0.000 HD
ATOM      5  H   UNL     1       6.670   6.611  16.339  0.00  0.00    +0.000 HD
ENDBRANCH   2   3
BRANCH   2   6
ATOM      6  C   UNL     1       4.612   6.357  17.488  0.00  0.00    +0.000 C 
ATOM      7  C   UNL     1       3.376   6.396  18.015  0.00  0.00    +0.000 C 
BRANCH   7   8
ATOM      8  C   UNL     1       2.633   5.317  18.661  0.00  0.00    +0.000 A 
ATOM      9  C   UNL     1       2.506   5.292  20.057  0.00  0.00    +0.000 A 
ATOM     10  C   UNL     1       1.667   4.356  20.665  0.00  0.00    +0.000 A 
ATOM     11  C   UNL     1       0.964   3.439  19.889  0.00  0.00    +0.000 A 
ATOM     12  C   UNL     1       1.123   3.430  18.502  0.00  0.00    +0.000 A 
ATOM     13  C   UNL     1       1.977   4.355  17.892  0.00  0.00    +0.000 A 
ENDBRANCH   7   8
ENDBRANCH   2   6
BRANCH   2  14
ATOM     14  C   UNL     1       5.878   4.715  18.828  0.00  0.00    +0.000 C 
ATOM     15  O   UNL     1       6.427   5.342  19.714  0.00  0.00    +0.000 OA
BRANCH  14  16
ATOM     16  O   UNL     1       5.489   3.412  18.974  0.00  0.00    +0.000 OA
ATOM     17  H   UNL     1       5.770   3.153  19.890  0.00  0.00    +0.000 HD
ENDBRANCH  14  16
ENDBRANCH   2  14
TORSDOF 5
ENDMDL
MODEL 6
REMARK VINA RESULT:      -6.3      1.582      1.828
REMARK  Name = 
REMARK  6 active torsions:
REMARK  status: ('A' for Active; 'I' for Inactive)
REMARK    1  A    between atoms: C_1  and  C_2
REMARK    2  A    between atoms: C_2  and  N_3
REMARK    3  A    between atoms: C_2  and  C_4
REMARK    4  A    between atoms: C_2  and  C_12
REMARK    5  A    between atoms: C_5  and  C_6
REMARK    6  A    between atoms: C_12  and  O_14
REMARK                            x       y       z     vdW  Elec       q    Type
REMARK                         _______ _______ _______ _____ _____    ______ ____
ROOT
ATOM      1  C   UNL     1       4.846   3.951  16.620  0.00  0.00    +0.000 C 
ATOM      2  C   UNL     1       5.443   5.127  17.400  0.00  0.00    +0.000 C 
ENDROOT
BRANCH   2   3
ATOM      3  N   UNL     1       6.745   5.551  16.808  0.00  0.00    +0.000 NA
ATOM      4  H   UNL     1       6.949   4.890  16.051  0.00  0.00    +0.000 HD
ATOM      5  H   UNL     1       7.477   5.351  17.495  0.00  0.00    +0.000 HD
ENDBRANCH   2   3
BRANCH   2   6
ATOM      6  C   UNL     1       4.560   6.348  17.519  0.00  0.00    +0.000 C 
ATOM      7  C   UNL     1       3.326   6.480  18.035  0.00  0.00    +0.000 C 
BRANCH   7   8
ATOM      8  C   UNL     1       2.491   5.456  18.659  0.00  0.00    +0.000 A 
ATOM      9  C   UNL     1       1.828   4.513  17.862  0.00  0.00    +0.000 A 
ATOM     10  C   UNL     1       1.160   3.441  18.459  0.00  0.00    +0.000 A 
ATOM     11  C   UNL     1       1.142   3.313  19.845  0.00  0.00    +0.000 A 
ATOM     12  C   UNL     1       1.762   4.275  20.644  0.00  0.00    +0.000 A 
ATOM     13  C   UNL     1       2.416   5.360  20.048  0.00  0.00    +0.000 A 
ENDBRANCH   7   8
ENDBRANCH   2   6
BRANCH   2  14
ATOM     14  C   UNL     1       5.752   4.646  18.854  0.00  0.00    +0.000 C 
ATOM     15  O   UNL     1       6.337   5.272  19.717  0.00  0.00    +0.000 OA
BRANCH  14  16
ATOM     16  O   UNL     1       5.334   3.356  19.029  0.00  0.00    +0.000 OA
ATOM     17  H   UNL     1       4.560   3.243  18.420  0.00  0.00    +0.000 HD
ENDBRANCH  14  16
ENDBRANCH   2  14
TORSDOF 5
ENDMDL
MODEL 7
REMARK VINA RESULT:      -6.3      1.571      2.218
REMARK  Name = 
REMARK  6 active torsions:
REMARK  status: ('A' for Active; 'I' for Inactive)
REMARK    1  A    between atoms: C_1  and  C_2
REMARK    2  A    between atoms: C_2  and  N_3
REMARK    3  A    between atoms: C_2  and  C_4
REMARK    4  A    between atoms: C_2  and  C_12
REMARK    5  A    between atoms: C_5  and  C_6
REMARK    6  A    between atoms: C_12  and  O_14
REMARK                            x       y       z     vdW  Elec       q    Type
REMARK                         _______ _______ _______ _____ _____    ______ ____
ROOT
ATOM      1  C   UNL     1       4.656   6.018  18.098  0.00  0.00    +0.000 C 
ATOM      2  C   UNL     1       5.359   4.785  17.522  0.00  0.00    +0.000 C 
ENDROOT
BRANCH   2   3
ATOM      3  N   UNL     1       6.200   4.120  18.559  0.00  0.00    +0.000 NA
ATOM      4  H   UNL     1       5.709   4.238  19.452  0.00  0.00    +0.000 HD
ATOM      5  H   UNL     1       7.045   4.684  18.683  0.00  0.00    +0.000 HD
ENDBRANCH   2   3
BRANCH   2   6
ATOM      6  C   UNL     1       4.454   3.742  16.910  0.00  0.00    +0.000 C 
ATOM      7  C   UNL     1       3.390   3.104  17.427  0.00  0.00    +0.000 C 
BRANCH   7   8
ATOM      8  C   UNL     1       2.789   3.269  18.749  0.00  0.00    +0.000 A 
ATOM      9  C   UNL     1       1.579   3.963  18.886  0.00  0.00    +0.000 A 
ATOM     10  C   UNL     1       0.923   3.986  20.119  0.00  0.00    +0.000 A 
ATOM     11  C   UNL     1       1.474   3.331  21.216  0.00  0.00    +0.000 A 
ATOM     12  C   UNL     1       2.702   2.676  21.096  0.00  0.00    +0.000 A 
ATOM     13  C   UNL     1       3.369   2.668  19.866  0.00  0.00    +0.000 A 
ENDBRANCH   7   8
ENDBRANCH   2   6
BRANCH   2  14
ATOM     14  C   UNL     1       6.335   5.256  16.396  0.00  0.00    +0.000 C 
ATOM     15  O   UNL     1       7.393   4.741  16.089  0.00  0.00    +0.000 OA
BRANCH  14  16
ATOM     16  O   UNL     1       5.876   6.408  15.818  0.00  0.00    +0.000 OA
ATOM     17  H   UNL     1       5.044   6.152  15.343  0.00  0.00    +0.000 HD
ENDBRANCH  14  16
ENDBRANCH   2  14
TORSDOF 5
ENDMDL
MODEL 8
REMARK VINA RESULT:      -6.2      1.279      1.866
REMARK  Name = 
REMARK  6 active torsions:
REMARK  status: ('A' for Active; 'I' for Inactive)
REMARK    1  A    between atoms: C_1  and  C_2
REMARK    2  A    between atoms: C_2  and  N_3
REMARK    3  A    between atoms: C_2  and  C_4
REMARK    4  A    between atoms: C_2  and  C_12
REMARK    5  A    between atoms: C_5  and  C_6
REMARK    6  A    between atoms: C_12  and  O_14
REMARK                            x       y       z     vdW  Elec       q    Type
REMARK                         _______ _______ _______ _____ _____    ______ ____
ROOT
ATOM      1  C   UNL     1       5.199   6.006  18.241  0.00  0.00    +0.000 C 
ATOM      2  C   UNL     1       5.567   4.635  17.664  0.00  0.00    +0.000 C 
ENDROOT
BRANCH   2   3
ATOM      3  N   UNL     1       5.888   3.668  18.754  0.00  0.00    +0.000 NA
ATOM      4  H   UNL     1       5.084   3.670  19.390  0.00  0.00    +0.000 HD
ATOM      5  H   UNL     1       6.635   4.077  19.321  0.00  0.00    +0.000 HD
ENDBRANCH   2   3
BRANCH   2   6
ATOM      6  C   UNL     1       4.530   4.004  16.764  0.00  0.00    +0.000 C 
ATOM      7  C   UNL     1       3.296   3.552  17.046  0.00  0.00    +0.000 C 
BRANCH   7   8
ATOM      8  C   UNL     1       2.594   3.572  18.327  0.00  0.00    +0.000 A 
ATOM      9  C   UNL     1       2.552   2.417  19.120  0.00  0.00    +0.000 A 
ATOM     10  C   UNL     1       2.022   2.476  20.411  0.00  0.00    +0.000 A 
ATOM     11  C   UNL     1       1.524   3.677  20.908  0.00  0.00    +0.000 A 
ATOM     12  C   UNL     1       1.523   4.819  20.106  0.00  0.00    +0.000 A 
ATOM     13  C   UNL     1       2.037   4.758  18.805  0.00  0.00    +0.000 A 
ENDBRANCH   7   8
ENDBRANCH   2   6
BRANCH   2  14
ATOM     14  C   UNL     1       6.869   4.793  16.814  0.00  0.00    +0.000 C 
ATOM     15  O   UNL     1       7.964   4.330  17.070  0.00  0.00    +0.000 OA
BRANCH  14  16
ATOM     16  O   UNL     1       6.643   5.609  15.740  0.00  0.00    +0.000 OA
ATOM     17  H   UNL     1       7.435   5.499  15.153  0.00  0.00    +0.000 HD
ENDBRANCH  14  16
ENDBRANCH   2  14
TORSDOF 5
ENDMDL
MODEL 9
REMARK VINA RESULT:      -6.2      1.759      2.536
REMARK  Name = 
REMARK  6 active torsions:
REMARK  status: ('A' for Active; 'I' for Inactive)
REMARK    1  A    between atoms: C_1  and  C_2
REMARK    2  A    between atoms: C_2  and  N_3
REMARK    3  A    between atoms: C_2  and  C_4
REMARK    4  A    between atoms: C_2  and  C_12
REMARK    5  A    between atoms: C_5  and  C_6
REMARK    6  A    between atoms: C_12  and  O_14
REMARK                            x       y       z     vdW  Elec       q    Type
REMARK                         _______ _______ _______ _____ _____    ______ ____
ROOT
ATOM      1  C   UNL     1       5.231   6.340  16.143  0.00  0.00    +0.000 C 
ATOM      2  C   UNL     1       6.479   5.937  16.934  0.00  0.00    +0.000 C 
ENDROOT
BRANCH   2   3
ATOM      3  N   UNL     1       7.613   6.863  16.645  0.00  0.00    +0.000 NA
ATOM      4  H   UNL     1       7.969   7.179  17.553  0.00  0.00    +0.000 HD
ATOM      5  H   UNL     1       7.221   7.716  16.238  0.00  0.00    +0.000 HD
ENDBRANCH   2   3
BRANCH   2   6
ATOM      6  C   UNL     1       6.307   5.858  18.433  0.00  0.00    +0.000 C 
ATOM      7  C   UNL     1       5.315   5.322  19.166  0.00  0.00    +0.000 C 
BRANCH   7   8
ATOM      8  C   UNL     1       4.115   4.632  18.699  0.00  0.00    +0.000 A 
ATOM      9  C   UNL     1       2.923   5.347  18.519  0.00  0.00    +0.000 A 
ATOM     10  C   UNL     1       1.821   4.727  17.924  0.00  0.00    +0.000 A 
ATOM     11  C   UNL     1       1.900   3.398  17.520  0.00  0.00    +0.000 A 
ATOM     12  C   UNL     1       3.071   2.669  17.738  0.00  0.00    +0.000 A 
ATOM     13  C   UNL     1       4.170   3.283  18.351  0.00  0.00    +0.000 A 
ENDBRANCH   7   8
ENDBRANCH   2   6
BRANCH   2  14
ATOM     14  C   UNL     1       6.930   4.521  16.453  0.00  0.00    +0.000 C 
ATOM     15  O   UNL     1       6.354   3.808  15.653  0.00  0.00    +0.000 OA
BRANCH  14  16
ATOM     16  O   UNL     1       8.058   4.127  17.118  0.00  0.00    +0.000 OA
ATOM     17  H   UNL     1       8.806   4.280  16.484  0.00  0.00    +0.000 HD
ENDBRANCH  14  16
ENDBRANCH   2  14
TORSDOF 5
ENDMDL
