MODEL 1
REMARK VINA RESULT:      -7.7      0.000      0.000
REMARK  Name = 
REMARK  4 active torsions:
REMARK  status: ('A' for Active; 'I' for Inactive)
REMARK    1  A    between atoms: C_1  and  C_2
REMARK    2  A    between atoms: N_6  and  C_7
REMARK    3  A    between atoms: C_12  and  C_13
REMARK    4  A    between atoms: N_17  and  C_18
REMARK                            x       y       z     vdW  Elec       q    Type
REMARK                         _______ _______ _______ _____ _____    ______ ____
ROOT
ATOM      1  C   UNL     1       2.716   5.650  19.190  0.00  0.00    +0.000 A 
ATOM      2  N   UNL     1       2.024   6.815  19.380  0.00  0.00    +0.000 NA
ATOM      3  C   UNL     1       2.341   7.867  18.599  0.00  0.00    +0.000 A 
ATOM      4  C   UNL     1       3.349   7.786  17.672  0.00  0.00    +0.000 A 
ATOM      5  N   UNL     1       4.036   6.649  17.476  0.00  0.00    +0.000 NA
ATOM      6  C   UNL     1       3.737   5.547  18.233  0.00  0.00    +0.000 A 
ENDROOT
BRANCH   1  12
ATOM      7  C   UNL     1       1.080   3.240  18.220  0.00  0.00    +0.000 C 
ATOM      8  C   UNL     1       1.630   3.425  19.592  0.00  0.00    +0.000 A 
ATOM      9  N   UNL     1       1.429   2.582  20.588  0.00  0.00    +0.000 NA
ATOM     10  C   UNL     1       1.979   3.170  21.687  0.00  0.00    +0.000 A 
ATOM     11  C   UNL     1       2.511   4.391  21.369  0.00  0.00    +0.000 A 
ATOM     12  N   UNL     1       2.295   4.572  20.022  0.00  0.00    +0.000 N 
ENDBRANCH   1  12
BRANCH   6  13
ATOM     13  C   UNL     1       4.591   4.316  17.940  0.00  0.00    +0.000 C 
ATOM     14  C   UNL     1       5.914   4.208  18.715  0.00  0.00    +0.000 C 
ATOM     15  C   UNL     1       7.035   5.045  18.105  0.00  0.00    +0.000 C 
ATOM     16  C   UNL     1       7.184   4.851  16.593  0.00  0.00    +0.000 C 
ATOM     17  N   UNL     1       5.906   5.047  15.905  0.00  0.00    +0.000 NA
ATOM     18  C   UNL     1       4.887   4.119  16.431  0.00  0.00    +0.000 C 
BRANCH  17  19
ATOM     19  C   UNL     1       6.001   5.001  14.440  0.00  0.00    +0.000 C 
ATOM     20  C   UNL     1       7.445   5.087  13.918  0.00  0.00    +0.000 C 
ATOM     21  C   UNL     1       7.352   4.609  12.479  0.00  0.00    +0.000 C 
ATOM     22  C   UNL     1       6.250   3.559  12.476  0.00  0.00    +0.000 C 
ATOM     23  C   UNL     1       5.542   3.666  13.829  0.00  0.00    +0.000 C 
ENDBRANCH  17  19
ENDBRANCH   6  13
TORSDOF 3
ENDMDL
MODEL 2
REMARK VINA RESULT:      -7.4      0.725      1.103
REMARK  Name = 
REMARK  4 active torsions:
REMARK  status: ('A' for Active; 'I' for Inactive)
REMARK    1  A    between atoms: C_1  and  C_2
REMARK    2  A    between atoms: N_6  and  C_7
REMARK    3  A    between atoms: C_12  and  C_13
REMARK    4  A    between atoms: N_17  and  C_18
REMARK                            x       y       z     vdW  Elec       q    Type
REMARK                         _______ _______ _______ _____ _____    ______ ____
ROOT
ATOM      1  C   UNL     1       2.809   5.701  19.066  0.00  0.00    +0.000 A 
ATOM      2  N   UNL     1       1.871   6.673  18.848  0.00  0.00    +0.000 NA
ATOM      3  C   UNL     1       2.224   7.726  18.085  0.00  0.00    +0.000 A 
ATOM      4  C   UNL     1       3.493   7.841  17.575  0.00  0.00    +0.000 A 
ATOM      5  N   UNL     1       4.424   6.895  17.781  0.00  0.00    +0.000 NA
ATOM      6  C   UNL     1       4.106   5.797  18.536  0.00  0.00    +0.000 A 
ENDROOT
BRANCH   1  12
ATOM      7  C   UNL     1       1.874   3.018  17.904  0.00  0.00    +0.000 C 
ATOM      8  C   UNL     1       2.003   3.344  19.352  0.00  0.00    +0.000 A 
ATOM      9  N   UNL     1       1.672   2.517  20.327  0.00  0.00    +0.000 NA
ATOM     10  C   UNL     1       1.814   3.230  21.480  0.00  0.00    +0.000 A 
ATOM     11  C   UNL     1       2.222   4.509  21.213  0.00  0.00    +0.000 A 
ATOM     12  N   UNL     1       2.348   4.601  19.846  0.00  0.00    +0.000 N 
ENDBRANCH   1  12
BRANCH   6  13
ATOM     13  C   UNL     1       5.242   4.795  18.722  0.00  0.00    +0.000 C 
ATOM     14  C   UNL     1       6.550   5.353  19.307  0.00  0.00    +0.000 C 
ATOM     15  C   UNL     1       7.424   6.046  18.265  0.00  0.00    +0.000 C 
ATOM     16  C   UNL     1       7.618   5.221  16.989  0.00  0.00    +0.000 C 
ATOM     17  N   UNL     1       6.331   4.789  16.437  0.00  0.00    +0.000 NA
ATOM     18  C   UNL     1       5.579   4.002  17.433  0.00  0.00    +0.000 C 
BRANCH  17  19
ATOM     19  C   UNL     1       6.435   4.101  15.144  0.00  0.00    +0.000 C 
ATOM     20  C   UNL     1       5.113   4.073  14.359  0.00  0.00    +0.000 C 
ATOM     21  C   UNL     1       5.526   3.717  12.941  0.00  0.00    +0.000 C 
ATOM     22  C   UNL     1       6.896   4.353  12.752  0.00  0.00    +0.000 C 
ATOM     23  C   UNL     1       7.363   4.802  14.139  0.00  0.00    +0.000 C 
ENDBRANCH  17  19
ENDBRANCH   6  13
TORSDOF 3
ENDMDL
MODEL 3
REMARK VINA RESULT:      -7.3      0.662      1.391
REMARK  Name = 
REMARK  4 active torsions:
REMARK  status: ('A' for Active; 'I' for Inactive)
REMARK    1  A    between atoms: C_1  and  C_2
REMARK    2  A    between atoms: N_6  and  C_7
REMARK    3  A    between atoms: C_12  and  C_13
REMARK    4  A    between atoms: N_17  and  C_18
REMARK                            x       y       z     vdW  Elec       q    Type
REMARK                         _______ _______ _______ _____ _____    ______ ____
ROOT
ATOM      1  C   UNL     1       2.616   5.503  18.368  0.00  0.00    +0.000 A 
ATOM      2  N   UNL     1       1.830   6.610  18.540  0.00  0.00    +0.000 NA
ATOM      3  C   UNL     1       2.334   7.802  18.162  0.00  0.00    +0.000 A 
ATOM      4  C   UNL     1       3.605   7.909  17.657  0.00  0.00    +0.000 A 
ATOM      5  N   UNL     1       4.387   6.831  17.483  0.00  0.00    +0.000 NA
ATOM      6  C   UNL     1       3.912   5.596  17.835  0.00  0.00    +0.000 A 
ENDROOT
BRANCH   1  12
ATOM      7  C   UNL     1       2.385   4.501  21.260  0.00  0.00    +0.000 C 
ATOM      8  C   UNL     1       1.802   3.840  20.059  0.00  0.00    +0.000 A 
ATOM      9  N   UNL     1       1.149   2.693  20.092  0.00  0.00    +0.000 NA
ATOM     10  C   UNL     1       0.899   2.374  18.791  0.00  0.00    +0.000 A 
ATOM     11  C   UNL     1       1.413   3.324  17.950  0.00  0.00    +0.000 A 
ATOM     12  N   UNL     1       2.000   4.277  18.750  0.00  0.00    +0.000 N 
ENDBRANCH   1  12
BRANCH   6  13
ATOM     13  C   UNL     1       4.890   4.445  17.613  0.00  0.00    +0.000 C 
ATOM     14  C   UNL     1       6.254   4.568  18.312  0.00  0.00    +0.000 C 
ATOM     15  C   UNL     1       7.236   5.457  17.555  0.00  0.00    +0.000 C 
ATOM     16  C   UNL     1       7.332   5.125  16.062  0.00  0.00    +0.000 C 
ATOM     17  N   UNL     1       6.007   5.103  15.439  0.00  0.00    +0.000 NA
ATOM     18  C   UNL     1       5.132   4.126  16.115  0.00  0.00    +0.000 C 
BRANCH  17  19
ATOM     19  C   UNL     1       6.033   4.915  13.983  0.00  0.00    +0.000 C 
ATOM     20  C   UNL     1       7.454   4.887  13.395  0.00  0.00    +0.000 C 
ATOM     21  C   UNL     1       7.277   4.281  12.014  0.00  0.00    +0.000 C 
ATOM     22  C   UNL     1       6.134   3.285  12.156  0.00  0.00    +0.000 C 
ATOM     23  C   UNL     1       5.494   3.551  13.521  0.00  0.00    +0.000 C 
ENDBRANCH  17  19
ENDBRANCH   6  13
TORSDOF 3
ENDMDL
MODEL 4
REMARK VINA RESULT:      -7.2      0.824      1.671
REMARK  Name = 
REMARK  4 active torsions:
REMARK  status: ('A' for Active; 'I' for Inactive)
REMARK    1  A    between atoms: C_1  and  C_2
REMARK    2  A    between atoms: N_6  and  C_7
REMARK    3  A    between atoms: C_12  and  C_13
REMARK    4  A    between atoms: N_17  and  C_18
REMARK                            x       y       z     vdW  Elec       q    Type
REMARK                         _______ _______ _______ _____ _____    ______ ____
ROOT
ATOM      1  C   UNL     1       2.593   5.558  18.315  0.00  0.00    +0.000 A 
ATOM      2  N   UNL     1       1.744   6.610  18.103  0.00  0.00    +0.000 NA
ATOM      3  C   UNL     1       2.278   7.770  17.675  0.00  0.00    +0.000 A 
ATOM      4  C   UNL     1       3.631   7.907  17.494  0.00  0.00    +0.000 A 
ATOM      5  N   UNL     1       4.476   6.883  17.698  0.00  0.00    +0.000 NA
ATOM      6  C   UNL     1       3.978   5.678  18.117  0.00  0.00    +0.000 A 
ENDROOT
BRANCH   1  12
ATOM      7  C   UNL     1       2.108   4.754  21.238  0.00  0.00    +0.000 C 
ATOM      8  C   UNL     1       1.638   4.007  20.038  0.00  0.00    +0.000 A 
ATOM      9  N   UNL     1       0.989   2.858  20.092  0.00  0.00    +0.000 NA
ATOM     10  C   UNL     1       0.858   2.447  18.799  0.00  0.00    +0.000 A 
ATOM     11  C   UNL     1       1.442   3.342  17.943  0.00  0.00    +0.000 A 
ATOM     12  N   UNL     1       1.950   4.354  18.725  0.00  0.00    +0.000 N 
ENDBRANCH   1  12
BRANCH   6  13
ATOM     13  C   UNL     1       5.027   4.591  18.336  0.00  0.00    +0.000 C 
ATOM     14  C   UNL     1       6.315   5.026  19.054  0.00  0.00    +0.000 C 
ATOM     15  C   UNL     1       7.316   5.709  18.128  0.00  0.00    +0.000 C 
ATOM     16  C   UNL     1       7.562   4.939  16.826  0.00  0.00    +0.000 C 
ATOM     17  N   UNL     1       6.301   4.627  16.149  0.00  0.00    +0.000 NA
ATOM     18  C   UNL     1       5.418   3.844  17.035  0.00  0.00    +0.000 C 
BRANCH  17  19
ATOM     19  C   UNL     1       6.467   4.001  14.831  0.00  0.00    +0.000 C 
ATOM     20  C   UNL     1       5.162   3.928  14.020  0.00  0.00    +0.000 C 
ATOM     21  C   UNL     1       5.620   3.657  12.597  0.00  0.00    +0.000 C 
ATOM     22  C   UNL     1       6.952   4.380  12.460  0.00  0.00    +0.000 C 
ATOM     23  C   UNL     1       7.369   4.797  13.873  0.00  0.00    +0.000 C 
ENDBRANCH  17  19
ENDBRANCH   6  13
TORSDOF 3
ENDMDL
MODEL 5
REMARK VINA RESULT:      -7.1      1.964      6.269
REMARK  Name = 
REMARK  4 active torsions:
REMARK  status: ('A' for Active; 'I' for Inactive)
REMARK    1  A    between atoms: C_1  and  C_2
REMARK    2  A    between atoms: N_6  and  C_7
REMARK    3  A    between atoms: C_12  and  C_13
REMARK    4  A    between atoms: N_17  and  C_18
REMARK                            x       y       z     vdW  Elec       q    Type
REMARK                         _______ _______ _______ _____ _____    ______ ____
ROOT
ATOM      1  C   UNL     1       6.752   4.949  16.507  0.00  0.00    +0.000 A 
ATOM      2  N   UNL     1       7.382   5.209  15.320  0.00  0.00    +0.000 NA
ATOM      3  C   UNL     1       6.765   4.825  14.185  0.00  0.00    +0.000 A 
ATOM      4  C   UNL     1       5.564   4.162  14.217  0.00  0.00    +0.000 A 
ATOM      5  N   UNL     1       4.935   3.901  15.375  0.00  0.00    +0.000 NA
ATOM      6  C   UNL     1       5.514   4.288  16.554  0.00  0.00    +0.000 A 
ENDROOT
BRANCH   1  12
ATOM      7  C   UNL     1       7.221   7.912  17.160  0.00  0.00    +0.000 C 
ATOM      8  C   UNL     1       7.595   6.758  18.025  0.00  0.00    +0.000 A 
ATOM      9  N   UNL     1       8.234   6.875  19.175  0.00  0.00    +0.000 NA
ATOM     10  C   UNL     1       8.497   5.601  19.581  0.00  0.00    +0.000 A 
ATOM     11  C   UNL     1       8.029   4.693  18.669  0.00  0.00    +0.000 A 
ATOM     12  N   UNL     1       7.445   5.422  17.659  0.00  0.00    +0.000 N 
ENDBRANCH   1  12
BRANCH   6  13
ATOM     13  C   UNL     1       4.723   3.925  17.808  0.00  0.00    +0.000 C 
ATOM     14  C   UNL     1       3.504   3.011  17.600  0.00  0.00    +0.000 C 
ATOM     15  C   UNL     1       2.266   3.763  17.121  0.00  0.00    +0.000 C 
ATOM     16  C   UNL     1       1.965   5.022  17.940  0.00  0.00    +0.000 C 
ATOM     17  N   UNL     1       3.142   5.889  18.032  0.00  0.00    +0.000 NA
ATOM     18  C   UNL     1       4.277   5.160  18.631  0.00  0.00    +0.000 C 
BRANCH  17  19
ATOM     19  C   UNL     1       2.890   7.174  18.696  0.00  0.00    +0.000 C 
ATOM     20  C   UNL     1       1.989   8.117  17.881  0.00  0.00    +0.000 C 
ATOM     21  C   UNL     1       1.526   9.156  18.888  0.00  0.00    +0.000 C 
ATOM     22  C   UNL     1       1.414   8.411  20.210  0.00  0.00    +0.000 C 
ATOM     23  C   UNL     1       2.088   7.052  20.003  0.00  0.00    +0.000 C 
ENDBRANCH  17  19
ENDBRANCH   6  13
TORSDOF 3
ENDMDL
MODEL 6
REMARK VINA RESULT:      -7.0      2.026      6.366
REMARK  Name = 
REMARK  4 active torsions:
REMARK  status: ('A' for Active; 'I' for Inactive)
REMARK    1  A    between atoms: C_1  and  C_2
REMARK    2  A    between atoms: N_6  and  C_7
REMARK    3  A    between atoms: C_12  and  C_13
REMARK    4  A    between atoms: N_17  and  C_18
REMARK                            x       y       z     vdW  Elec       q    Type
REMARK                         _______ _______ _______ _____ _____    ______ ____
ROOT
ATOM      1  C   UNL     1       6.791   5.654  16.752  0.00  0.00    +0.000 A 
ATOM      2  N   UNL     1       7.257   5.506  15.474  0.00  0.00    +0.000 NA
ATOM      3  C   UNL     1       6.741   4.508  14.730  0.00  0.00    +0.000 A 
ATOM      4  C   UNL     1       5.808   3.644  15.247  0.00  0.00    +0.000 A 
ATOM      5  N   UNL     1       5.342   3.778  16.499  0.00  0.00    +0.000 NA
ATOM      6  C   UNL     1       5.824   4.789  17.288  0.00  0.00    +0.000 A 
ENDROOT
BRANCH   1  12
ATOM      7  C   UNL     1       8.336   5.416  19.395  0.00  0.00    +0.000 C 
ATOM      8  C   UNL     1       8.133   6.668  18.612  0.00  0.00    +0.000 A 
ATOM      9  N   UNL     1       8.558   7.857  18.999  0.00  0.00    +0.000 NA
ATOM     10  C   UNL     1       8.065   8.740  18.086  0.00  0.00    +0.000 A 
ATOM     11  C   UNL     1       7.321   8.092  17.136  0.00  0.00    +0.000 A 
ATOM     12  N   UNL     1       7.353   6.755  17.461  0.00  0.00    +0.000 N 
ENDBRANCH   1  12
BRANCH   6  13
ATOM     13  C   UNL     1       5.240   4.837  18.698  0.00  0.00    +0.000 C 
ATOM     14  C   UNL     1       4.588   3.541  19.207  0.00  0.00    +0.000 C 
ATOM     15  C   UNL     1       3.163   3.347  18.698  0.00  0.00    +0.000 C 
ATOM     16  C   UNL     1       2.284   4.590  18.865  0.00  0.00    +0.000 C 
ATOM     17  N   UNL     1       2.925   5.774  18.288  0.00  0.00    +0.000 NA
ATOM     18  C   UNL     1       4.243   6.005  18.910  0.00  0.00    +0.000 C 
BRANCH  17  19
ATOM     19  C   UNL     1       2.083   6.977  18.299  0.00  0.00    +0.000 C 
ATOM     20  C   UNL     1       1.975   7.635  19.686  0.00  0.00    +0.000 C 
ATOM     21  C   UNL     1       1.444   9.028  19.400  0.00  0.00    +0.000 C 
ATOM     22  C   UNL     1       2.036   9.414  18.052  0.00  0.00    +0.000 C 
ATOM     23  C   UNL     1       2.645   8.138  17.463  0.00  0.00    +0.000 C 
ENDBRANCH  17  19
ENDBRANCH   6  13
TORSDOF 3
ENDMDL
MODEL 7
REMARK VINA RESULT:      -6.8      6.314     10.319
REMARK  Name = 
REMARK  4 active torsions:
REMARK  status: ('A' for Active; 'I' for Inactive)
REMARK    1  A    between atoms: C_1  and  C_2
REMARK    2  A    between atoms: N_6  and  C_7
REMARK    3  A    between atoms: C_12  and  C_13
REMARK    4  A    between atoms: N_17  and  C_18
REMARK                            x       y       z     vdW  Elec       q    Type
REMARK                         _______ _______ _______ _____ _____    ______ ____
ROOT
ATOM      1  C   UNL     1       0.314  11.133  19.294  0.00  0.00    +0.000 A 
ATOM      2  N   UNL     1       1.156  12.172  19.585  0.00  0.00    +0.000 NA
ATOM      3  C   UNL     1       0.819  13.397  19.136  0.00  0.00    +0.000 A 
ATOM      4  C   UNL     1      -0.309  13.592  18.380  0.00  0.00    +0.000 A 
ATOM      5  N   UNL     1      -1.144  12.581  18.087  0.00  0.00    +0.000 NA
ATOM      6  C   UNL     1      -0.853  11.321  18.537  0.00  0.00    +0.000 A 
ENDROOT
BRANCH   1  12
ATOM      7  C   UNL     1       1.982   9.039  17.792  0.00  0.00    +0.000 C 
ATOM      8  C   UNL     1       1.546   8.950  19.214  0.00  0.00    +0.000 A 
ATOM      9  N   UNL     1       1.785   7.913  19.996  0.00  0.00    +0.000 NA
ATOM     10  C   UNL     1       1.117   8.165  21.157  0.00  0.00    +0.000 A 
ATOM     11  C   UNL     1       0.451   9.360  21.086  0.00  0.00    +0.000 A 
ATOM     12  N   UNL     1       0.716   9.879  19.839  0.00  0.00    +0.000 N 
ENDBRANCH   1  12
BRANCH   6  13
ATOM     13  C   UNL     1      -1.857  10.246  18.131  0.00  0.00    +0.000 C 
ATOM     14  C   UNL     1      -1.875   9.861  16.643  0.00  0.00    +0.000 C 
ATOM     15  C   UNL     1      -2.674  10.835  15.781  0.00  0.00    +0.000 C 
ATOM     16  C   UNL     1      -4.058  11.159  16.355  0.00  0.00    +0.000 C 
ATOM     17  N   UNL     1      -3.964  11.597  17.750  0.00  0.00    +0.000 NA
ATOM     18  C   UNL     1      -3.309  10.563  18.574  0.00  0.00    +0.000 C 
BRANCH  17  19
ATOM     19  C   UNL     1      -5.238  12.045  18.324  0.00  0.00    +0.000 C 
ATOM     20  C   UNL     1      -6.261  10.910  18.503  0.00  0.00    +0.000 C 
ATOM     21  C   UNL     1      -7.292  11.482  19.461  0.00  0.00    +0.000 C 
ATOM     22  C   UNL     1      -6.511  12.404  20.386  0.00  0.00    +0.000 C 
ATOM     23  C   UNL     1      -5.122  12.570  19.765  0.00  0.00    +0.000 C 
ENDBRANCH  17  19
ENDBRANCH   6  13
TORSDOF 3
ENDMDL
MODEL 8
REMARK VINA RESULT:      -6.7      2.012      6.368
REMARK  Name = 
REMARK  4 active torsions:
REMARK  status: ('A' for Active; 'I' for Inactive)
REMARK    1  A    between atoms: C_1  and  C_2
REMARK    2  A    between atoms: N_6  and  C_7
REMARK    3  A    between atoms: C_12  and  C_13
REMARK    4  A    between atoms: N_17  and  C_18
REMARK                            x       y       z     vdW  Elec       q    Type
REMARK                         _______ _______ _______ _____ _____    ______ ____
ROOT
ATOM      1  C   UNL     1       6.733   5.578  16.311  0.00  0.00    +0.000 A 
ATOM      2  N   UNL     1       7.266   5.637  15.052  0.00  0.00    +0.000 NA
ATOM      3  C   UNL     1       6.784   4.785  14.127  0.00  0.00    +0.000 A 
ATOM      4  C   UNL     1       5.818   3.863  14.443  0.00  0.00    +0.000 A 
ATOM      5  N   UNL     1       5.286   3.794  15.674  0.00  0.00    +0.000 NA
ATOM      6  C   UNL     1       5.732   4.652  16.644  0.00  0.00    +0.000 A 
ENDROOT
BRANCH   1  12
ATOM      7  C   UNL     1       8.233   4.879  18.897  0.00  0.00    +0.000 C 
ATOM      8  C   UNL     1       8.024   6.250  18.354  0.00  0.00    +0.000 A 
ATOM      9  N   UNL     1       8.422   7.353  18.961  0.00  0.00    +0.000 NA
ATOM     10  C   UNL     1       7.931   8.382  18.215  0.00  0.00    +0.000 A 
ATOM     11  C   UNL     1       7.215   7.911  17.147  0.00  0.00    +0.000 A 
ATOM     12  N   UNL     1       7.264   6.538  17.222  0.00  0.00    +0.000 N 
ENDBRANCH   1  12
BRANCH   6  13
ATOM     13  C   UNL     1       5.073   4.475  18.010  0.00  0.00    +0.000 C 
ATOM     14  C   UNL     1       3.962   3.415  18.096  0.00  0.00    +0.000 C 
ATOM     15  C   UNL     1       2.614   3.918  17.587  0.00  0.00    +0.000 C 
ATOM     16  C   UNL     1       2.217   5.281  18.165  0.00  0.00    +0.000 C 
ATOM     17  N   UNL     1       3.285   6.266  17.979  0.00  0.00    +0.000 NA
ATOM     18  C   UNL     1       4.535   5.800  18.609  0.00  0.00    +0.000 C 
BRANCH  17  19
ATOM     19  C   UNL     1       2.923   7.627  18.395  0.00  0.00    +0.000 C 
ATOM     20  C   UNL     1       2.016   8.354  17.388  0.00  0.00    +0.000 C 
ATOM     21  C   UNL     1       1.439   9.519  18.174  0.00  0.00    +0.000 C 
ATOM     22  C   UNL     1       1.297   9.007  19.600  0.00  0.00    +0.000 C 
ATOM     23  C   UNL     1       2.058   7.680  19.665  0.00  0.00    +0.000 C 
ENDBRANCH  17  19
ENDBRANCH   6  13
TORSDOF 3
ENDMDL
MODEL 9
REMARK VINA RESULT:      -6.6      6.395     10.361
REMARK  Name = 
REMARK  4 active torsions:
REMARK  status: ('A' for Active; 'I' for Inactive)
REMARK    1  A    between atoms: C_1  and  C_2
REMARK    2  A    between atoms: N_6  and  C_7
REMARK    3  A    between atoms: C_12  and  C_13
REMARK    4  A    between atoms: N_17  and  C_18
REMARK                            x       y       z     vdW  Elec       q    Type
REMARK                         _______ _______ _______ _____ _____    ______ ____
ROOT
ATOM      1  C   UNL     1       0.647  11.196  18.710  0.00  0.00    +0.000 A 
ATOM      2  N   UNL     1       1.510  12.242  18.894  0.00  0.00    +0.000 NA
ATOM      3  C   UNL     1       1.005  13.490  18.838  0.00  0.00    +0.000 A 
ATOM      4  C   UNL     1      -0.323  13.708  18.568  0.00  0.00    +0.000 A 
ATOM      5  N   UNL     1      -1.181  12.691  18.386  0.00  0.00    +0.000 NA
ATOM      6  C   UNL     1      -0.717  11.404  18.451  0.00  0.00    +0.000 A 
ENDROOT
BRANCH   1  12
ATOM      7  C   UNL     1       0.738   9.546  21.298  0.00  0.00    +0.000 C 
ATOM      8  C   UNL     1       1.225   9.101  19.962  0.00  0.00    +0.000 A 
ATOM      9  N   UNL     1       1.815   7.941  19.740  0.00  0.00    +0.000 NA
ATOM     10  C   UNL     1       2.219   7.974  18.439  0.00  0.00    +0.000 A 
ATOM     11  C   UNL     1       1.888   9.170  17.858  0.00  0.00    +0.000 A 
ATOM     12  N   UNL     1       1.248   9.909  18.826  0.00  0.00    +0.000 N 
ENDBRANCH   1  12
BRANCH   6  13
ATOM     13  C   UNL     1      -1.772  10.328  18.210  0.00  0.00    +0.000 C 
ATOM     14  C   UNL     1      -1.847   9.758  16.784  0.00  0.00    +0.000 C 
ATOM     15  C   UNL     1      -2.633  10.646  15.824  0.00  0.00    +0.000 C 
ATOM     16  C   UNL     1      -3.987  11.097  16.384  0.00  0.00    +0.000 C 
ATOM     17  N   UNL     1      -3.836  11.704  17.709  0.00  0.00    +0.000 NA
ATOM     18  C   UNL     1      -3.197  10.757  18.643  0.00  0.00    +0.000 C 
BRANCH  17  19
ATOM     19  C   UNL     1      -5.077  12.273  18.251  0.00  0.00    +0.000 C 
ATOM     20  C   UNL     1      -6.105  12.641  17.168  0.00  0.00    +0.000 C 
ATOM     21  C   UNL     1      -7.411  12.798  17.928  0.00  0.00    +0.000 C 
ATOM     22  C   UNL     1      -7.336  11.789  19.065  0.00  0.00    +0.000 C 
ATOM     23  C   UNL     1      -5.889  11.290  19.110  0.00  0.00    +0.000 C 
ENDBRANCH  17  19
ENDBRANCH   6  13
TORSDOF 3
ENDMDL
