MODEL 1
REMARK VINA RESULT:      -7.9      0.000      0.000
REMARK  Name = 
REMARK  11 active torsions:
REMARK  status: ('A' for Active; 'I' for Inactive)
REMARK    1  A    between atoms: C_1  and  O_2
REMARK    2  A    between atoms: O_2  and  C_3
REMARK    3  A    between atoms: C_3  and  C_5
REMARK    4  A    between atoms: C_8  and  C_9
REMARK    5  A    between atoms: C_10  and  C_11
REMARK    6  A    between atoms: C_11  and  C_12
REMARK    7  A    between atoms: C_12  and  C_13
REMARK    8  A    between atoms: C_13  and  C_14
REMARK    9  A    between atoms: C_14  and  C_15
REMARK   10  A    between atoms: C_15  and  C_17
REMARK   11  A    between atoms: C_20  and  C_21
REMARK                            x       y       z     vdW  Elec       q    Type
REMARK                         _______ _______ _______ _____ _____    ______ ____
ROOT
ATOM      1  C   UNL     1       1.933   3.040  18.752  0.00  0.00    +0.000 C 
ENDROOT
BRANCH   1   2
ATOM      2  C   UNL     1       1.502   2.496  20.119  0.00  0.00    +0.000 C 
BRANCH   2   3
ATOM      3  C   UNL     1       1.875   3.432  21.270  0.00  0.00    +0.000 C 
BRANCH   3   5
ATOM      4  C   UNL     1       1.751   5.998  20.537  0.00  0.00    +0.000 C 
ATOM      5  C   UNL     1       1.800   4.854  20.902  0.00  0.00    +0.000 C 
BRANCH   4   9
ATOM      6  C   UNL     1       1.595   9.948  19.020  0.00  0.00    +0.000 A 
ATOM      7  C   UNL     1       2.212   8.936  18.271  0.00  0.00    +0.000 A 
ATOM      8  C   UNL     1       2.276   7.631  18.774  0.00  0.00    +0.000 A 
ATOM      9  C   UNL     1       1.723   7.333  20.021  0.00  0.00    +0.000 A 
ATOM     10  C   UNL     1       1.113   8.343  20.771  0.00  0.00    +0.000 A 
ATOM     11  C   UNL     1       1.043   9.646  20.271  0.00  0.00    +0.000 A 
BRANCH   6  12
ATOM     12  C   UNL     1       1.479  11.339  18.520  0.00  0.00    +0.000 C 
ATOM     13  O   UNL     1       2.409  11.960  18.033  0.00  0.00    +0.000 OA
BRANCH  12  15
ATOM     14  C   UNL     1       0.062  13.191  18.513  0.00  0.00    +0.000 C 
ATOM     15  O   UNL     1       0.202  11.776  18.650  0.00  0.00    +0.000 OA
ENDBRANCH  12  15
ENDBRANCH   6  12
ENDBRANCH   4   9
ENDBRANCH   3   5
ENDBRANCH   2   3
ENDBRANCH   1   2
BRANCH   1  16
ATOM     16  C   UNL     1       3.223   2.388  18.257  0.00  0.00    +0.000 C 
BRANCH  16  17
ATOM     17  C   UNL     1       4.442   3.187  18.700  0.00  0.00    +0.000 C 
ATOM     18  O   UNL     1       4.897   3.037  19.833  0.00  0.00    +0.000 OA
BRANCH  17  19
ATOM     19  C   UNL     1       4.979   4.119  17.722  0.00  0.00    +0.000 A 
ATOM     20  N   UNL     1       5.213   5.405  17.918  0.00  0.00    +0.000 NA
ATOM     21  C   UNL     1       5.734   5.827  16.722  0.00  0.00    +0.000 A 
ATOM     22  C   UNL     1       5.791   4.786  15.826  0.00  0.00    +0.000 A 
ATOM     23  O   UNL     1       5.296   3.675  16.463  0.00  0.00    +0.000 OA
BRANCH  22  24
ATOM     24  C   UNL     1       6.277   4.633  14.466  0.00  0.00    +0.000 A 
ATOM     25  C   UNL     1       5.717   3.731  13.568  0.00  0.00    +0.000 A 
ATOM     26  C   UNL     1       6.305   3.582  12.315  0.00  0.00    +0.000 A 
ATOM     27  C   UNL     1       7.422   4.342  11.992  0.00  0.00    +0.000 A 
ATOM     28  C   UNL     1       7.898   5.238  12.934  0.00  0.00    +0.000 A 
ATOM     29  N   UNL     1       7.350   5.404  14.160  0.00  0.00    +0.000 NA
ENDBRANCH  22  24
ENDBRANCH  17  19
ENDBRANCH  16  17
ENDBRANCH   1  16
TORSDOF 10
ENDMDL
MODEL 2
REMARK VINA RESULT:      -7.8      2.640      3.286
REMARK  Name = 
REMARK  11 active torsions:
REMARK  status: ('A' for Active; 'I' for Inactive)
REMARK    1  A    between atoms: C_1  and  O_2
REMARK    2  A    between atoms: O_2  and  C_3
REMARK    3  A    between atoms: C_3  and  C_5
REMARK    4  A    between atoms: C_8  and  C_9
REMARK    5  A    between atoms: C_10  and  C_11
REMARK    6  A    between atoms: C_11  and  C_12
REMARK    7  A    between atoms: C_12  and  C_13
REMARK    8  A    between atoms: C_13  and  C_14
REMARK    9  A    between atoms: C_14  and  C_15
REMARK   10  A    between atoms: C_15  and  C_17
REMARK   11  A    between atoms: C_20  and  C_21
REMARK                            x       y       z     vdW  Elec       q    Type
REMARK                         _______ _______ _______ _____ _____    ______ ____
ROOT
ATOM      1  C   UNL     1       1.372   3.996  19.674  0.00  0.00    +0.000 C 
ENDROOT
BRANCH   1   2
ATOM      2  C   UNL     1       2.038   4.979  20.644  0.00  0.00    +0.000 C 
BRANCH   2   3
ATOM      3  C   UNL     1       2.405   6.307  19.979  0.00  0.00    +0.000 C 
BRANCH   3   5
ATOM      4  C   UNL     1       1.104   8.385  21.042  0.00  0.00    +0.000 C 
ATOM      5  C   UNL     1       1.720   7.460  20.582  0.00  0.00    +0.000 C 
BRANCH   4   9
ATOM      6  C   UNL     1      -1.315  11.539  22.498  0.00  0.00    +0.000 A 
ATOM      7  C   UNL     1      -0.739  11.632  21.224  0.00  0.00    +0.000 A 
ATOM      8  C   UNL     1       0.071  10.597  20.742  0.00  0.00    +0.000 A 
ATOM      9  C   UNL     1       0.305   9.467  21.530  0.00  0.00    +0.000 A 
ATOM     10  C   UNL     1      -0.264   9.377  22.803  0.00  0.00    +0.000 A 
ATOM     11  C   UNL     1      -1.077  10.406  23.286  0.00  0.00    +0.000 A 
BRANCH   6  12
ATOM     12  C   UNL     1      -2.200  12.597  23.041  0.00  0.00    +0.000 C 
ATOM     13  O   UNL     1      -1.926  13.786  23.016  0.00  0.00    +0.000 OA
BRANCH  12  15
ATOM     14  C   UNL     1      -4.480  12.912  23.422  0.00  0.00    +0.000 C 
ATOM     15  O   UNL     1      -3.346  12.048  23.516  0.00  0.00    +0.000 OA
ENDBRANCH  12  15
ENDBRANCH   6  12
ENDBRANCH   4   9
ENDBRANCH   3   5
ENDBRANCH   2   3
ENDBRANCH   1   2
BRANCH   1  16
ATOM     16  C   UNL     1       1.862   4.186  18.240  0.00  0.00    +0.000 C 
BRANCH  16  17
ATOM     17  C   UNL     1       2.964   3.191  17.904  0.00  0.00    +0.000 C 
ATOM     18  O   UNL     1       2.789   1.989  18.102  0.00  0.00    +0.000 OA
BRANCH  17  19
ATOM     19  C   UNL     1       4.195   3.759  17.379  0.00  0.00    +0.000 A 
ATOM     20  N   UNL     1       5.166   4.308  18.090  0.00  0.00    +0.000 NA
ATOM     21  C   UNL     1       6.099   4.659  17.149  0.00  0.00    +0.000 A 
ATOM     22  C   UNL     1       5.664   4.325  15.888  0.00  0.00    +0.000 A 
ATOM     23  O   UNL     1       4.426   3.747  16.027  0.00  0.00    +0.000 OA
BRANCH  22  24
ATOM     24  C   UNL     1       6.231   4.413  14.554  0.00  0.00    +0.000 A 
ATOM     25  C   UNL     1       5.765   3.648  13.491  0.00  0.00    +0.000 A 
ATOM     26  C   UNL     1       6.429   3.726  12.270  0.00  0.00    +0.000 A 
ATOM     27  C   UNL     1       7.526   4.568  12.143  0.00  0.00    +0.000 A 
ATOM     28  C   UNL     1       7.907   5.317  13.244  0.00  0.00    +0.000 A 
ATOM     29  N   UNL     1       7.284   5.261  14.444  0.00  0.00    +0.000 NA
ENDBRANCH  22  24
ENDBRANCH  17  19
ENDBRANCH  16  17
ENDBRANCH   1  16
TORSDOF 10
ENDMDL
MODEL 3
REMARK VINA RESULT:      -7.2      5.632      8.935
REMARK  Name = 
REMARK  11 active torsions:
REMARK  status: ('A' for Active; 'I' for Inactive)
REMARK    1  A    between atoms: C_1  and  O_2
REMARK    2  A    between atoms: O_2  and  C_3
REMARK    3  A    between atoms: C_3  and  C_5
REMARK    4  A    between atoms: C_8  and  C_9
REMARK    5  A    between atoms: C_10  and  C_11
REMARK    6  A    between atoms: C_11  and  C_12
REMARK    7  A    between atoms: C_12  and  C_13
REMARK    8  A    between atoms: C_13  and  C_14
REMARK    9  A    between atoms: C_14  and  C_15
REMARK   10  A    between atoms: C_15  and  C_17
REMARK   11  A    between atoms: C_20  and  C_21
REMARK                            x       y       z     vdW  Elec       q    Type
REMARK                         _______ _______ _______ _____ _____    ______ ____
ROOT
ATOM      1  C   UNL     1       5.468   5.763  17.421  0.00  0.00    +0.000 C 
ENDROOT
BRANCH   1   2
ATOM      2  C   UNL     1       6.648   6.660  17.027  0.00  0.00    +0.000 C 
BRANCH   2   3
ATOM      3  C   UNL     1       7.659   6.838  18.161  0.00  0.00    +0.000 C 
BRANCH   3   5
ATOM      4  C   UNL     1       8.612   9.321  18.414  0.00  0.00    +0.000 C 
ATOM      5  C   UNL     1       8.164   8.214  18.271  0.00  0.00    +0.000 C 
BRANCH   4   9
ATOM      6  C   UNL     1      10.259  13.135  19.226  0.00  0.00    +0.000 A 
ATOM      7  C   UNL     1       9.438  12.953  18.105  0.00  0.00    +0.000 A 
ATOM      8  C   UNL     1       8.901  11.691  17.825  0.00  0.00    +0.000 A 
ATOM      9  C   UNL     1       9.179  10.611  18.665  0.00  0.00    +0.000 A 
ATOM     10  C   UNL     1      10.002  10.790  19.781  0.00  0.00    +0.000 A 
ATOM     11  C   UNL     1      10.537  12.049  20.065  0.00  0.00    +0.000 A 
BRANCH   6  12
ATOM     12  C   UNL     1      10.831  14.457  19.578  0.00  0.00    +0.000 C 
ATOM     13  O   UNL     1      11.997  14.761  19.385  0.00  0.00    +0.000 OA
BRANCH  12  15
ATOM     14  C   UNL     1       9.655  16.458  19.343  0.00  0.00    +0.000 C 
ATOM     15  O   UNL     1       9.867  15.261  20.092  0.00  0.00    +0.000 OA
ENDBRANCH  12  15
ENDBRANCH   6  12
ENDBRANCH   4   9
ENDBRANCH   3   5
ENDBRANCH   2   3
ENDBRANCH   1   2
BRANCH   1  16
ATOM     16  C   UNL     1       4.128   6.476  17.255  0.00  0.00    +0.000 C 
BRANCH  16  17
ATOM     17  C   UNL     1       3.392   6.569  18.585  0.00  0.00    +0.000 C 
ATOM     18  O   UNL     1       3.557   5.701  19.442  0.00  0.00    +0.000 OA
BRANCH  17  19
ATOM     19  C   UNL     1       2.497   7.705  18.738  0.00  0.00    +0.000 A 
ATOM     20  N   UNL     1       2.050   8.481  17.766  0.00  0.00    +0.000 NA
ATOM     21  C   UNL     1       1.232   9.372  18.411  0.00  0.00    +0.000 A 
ATOM     22  C   UNL     1       1.214   9.120  19.763  0.00  0.00    +0.000 A 
ATOM     23  O   UNL     1       2.038   8.045  19.986  0.00  0.00    +0.000 OA
BRANCH  22  24
ATOM     24  C   UNL     1       0.515   9.692  20.900  0.00  0.00    +0.000 A 
ATOM     25  C   UNL     1       0.309   8.989  22.082  0.00  0.00    +0.000 A 
ATOM     26  C   UNL     1      -0.454   9.580  23.086  0.00  0.00    +0.000 A 
ATOM     27  C   UNL     1      -0.977  10.851  22.887  0.00  0.00    +0.000 A 
ATOM     28  C   UNL     1      -0.699  11.492  21.691  0.00  0.00    +0.000 A 
ATOM     29  N   UNL     1       0.036  10.944  20.696  0.00  0.00    +0.000 NA
ENDBRANCH  22  24
ENDBRANCH  17  19
ENDBRANCH  16  17
ENDBRANCH   1  16
TORSDOF 10
ENDMDL
MODEL 4
REMARK VINA RESULT:      -7.2      5.117      7.588
REMARK  Name = 
REMARK  11 active torsions:
REMARK  status: ('A' for Active; 'I' for Inactive)
REMARK    1  A    between atoms: C_1  and  O_2
REMARK    2  A    between atoms: O_2  and  C_3
REMARK    3  A    between atoms: C_3  and  C_5
REMARK    4  A    between atoms: C_8  and  C_9
REMARK    5  A    between atoms: C_10  and  C_11
REMARK    6  A    between atoms: C_11  and  C_12
REMARK    7  A    between atoms: C_12  and  C_13
REMARK    8  A    between atoms: C_13  and  C_14
REMARK    9  A    between atoms: C_14  and  C_15
REMARK   10  A    between atoms: C_15  and  C_17
REMARK   11  A    between atoms: C_20  and  C_21
REMARK                            x       y       z     vdW  Elec       q    Type
REMARK                         _______ _______ _______ _____ _____    ______ ____
ROOT
ATOM      1  C   UNL     1       6.615   5.141  18.591  0.00  0.00    +0.000 C 
ENDROOT
BRANCH   1   2
ATOM      2  C   UNL     1       6.356   6.558  18.065  0.00  0.00    +0.000 C 
BRANCH   2   3
ATOM      3  C   UNL     1       7.498   7.081  17.191  0.00  0.00    +0.000 C 
BRANCH   3   5
ATOM      4  C   UNL     1       8.490   9.375  18.135  0.00  0.00    +0.000 C 
ATOM      5  C   UNL     1       8.075   8.337  17.692  0.00  0.00    +0.000 C 
BRANCH   4   9
ATOM      6  C   UNL     1       9.746  13.091  19.727  0.00  0.00    +0.000 A 
ATOM      7  C   UNL     1       9.885  11.923  20.488  0.00  0.00    +0.000 A 
ATOM      8  C   UNL     1       9.460  10.693  19.971  0.00  0.00    +0.000 A 
ATOM      9  C   UNL     1       8.900  10.627  18.694  0.00  0.00    +0.000 A 
ATOM     10  C   UNL     1       8.756  11.793  17.936  0.00  0.00    +0.000 A 
ATOM     11  C   UNL     1       9.182  13.022  18.447  0.00  0.00    +0.000 A 
BRANCH   6  12
ATOM     12  C   UNL     1      10.204  14.413  20.220  0.00  0.00    +0.000 C 
ATOM     13  O   UNL     1      11.365  14.663  20.498  0.00  0.00    +0.000 OA
BRANCH  12  15
ATOM     14  C   UNL     1       8.353  15.141  21.438  0.00  0.00    +0.000 C 
ATOM     15  O   UNL     1       9.162  15.279  20.269  0.00  0.00    +0.000 OA
ENDBRANCH  12  15
ENDBRANCH   6  12
ENDBRANCH   4   9
ENDBRANCH   3   5
ENDBRANCH   2   3
ENDBRANCH   1   2
BRANCH   1  16
ATOM     16  C   UNL     1       5.516   4.166  18.172  0.00  0.00    +0.000 C 
BRANCH  16  17
ATOM     17  C   UNL     1       4.703   3.711  19.377  0.00  0.00    +0.000 C 
ATOM     18  O   UNL     1       5.005   2.674  19.967  0.00  0.00    +0.000 OA
BRANCH  17  19
ATOM     19  C   UNL     1       3.575   4.554  19.737  0.00  0.00    +0.000 A 
ATOM     20  N   UNL     1       2.623   4.254  20.605  0.00  0.00    +0.000 NA
ATOM     21  C   UNL     1       1.825   5.369  20.609  0.00  0.00    +0.000 A 
ATOM     22  C   UNL     1       2.308   6.313  19.734  0.00  0.00    +0.000 A 
ATOM     23  O   UNL     1       3.439   5.791  19.158  0.00  0.00    +0.000 OA
BRANCH  22  24
ATOM     24  C   UNL     1       1.914   7.662  19.366  0.00  0.00    +0.000 A 
ATOM     25  C   UNL     1       2.114   8.178  18.091  0.00  0.00    +0.000 A 
ATOM     26  C   UNL     1       1.793   9.512  17.852  0.00  0.00    +0.000 A 
ATOM     27  C   UNL     1       1.276  10.284  18.883  0.00  0.00    +0.000 A 
ATOM     28  C   UNL     1       1.081   9.684  20.116  0.00  0.00    +0.000 A 
ATOM     29  N   UNL     1       1.385   8.391  20.380  0.00  0.00    +0.000 NA
ENDBRANCH  22  24
ENDBRANCH  17  19
ENDBRANCH  16  17
ENDBRANCH   1  16
TORSDOF 10
ENDMDL
MODEL 5
REMARK VINA RESULT:      -7.2      4.130      5.615
REMARK  Name = 
REMARK  11 active torsions:
REMARK  status: ('A' for Active; 'I' for Inactive)
REMARK    1  A    between atoms: C_1  and  O_2
REMARK    2  A    between atoms: O_2  and  C_3
REMARK    3  A    between atoms: C_3  and  C_5
REMARK    4  A    between atoms: C_8  and  C_9
REMARK    5  A    between atoms: C_10  and  C_11
REMARK    6  A    between atoms: C_11  and  C_12
REMARK    7  A    between atoms: C_12  and  C_13
REMARK    8  A    between atoms: C_13  and  C_14
REMARK    9  A    between atoms: C_14  and  C_15
REMARK   10  A    between atoms: C_15  and  C_17
REMARK   11  A    between atoms: C_20  and  C_21
REMARK                            x       y       z     vdW  Elec       q    Type
REMARK                         _______ _______ _______ _____ _____    ______ ____
ROOT
ATOM      1  C   UNL     1       6.126   5.352  16.136  0.00  0.00    +0.000 C 
ENDROOT
BRANCH   1   2
ATOM      2  C   UNL     1       5.252   4.092  16.158  0.00  0.00    +0.000 C 
BRANCH   2   3
ATOM      3  C   UNL     1       4.565   3.875  17.508  0.00  0.00    +0.000 C 
BRANCH   3   5
ATOM      4  C   UNL     1       3.256   6.061  18.312  0.00  0.00    +0.000 C 
ATOM      5  C   UNL     1       3.846   5.066  17.985  0.00  0.00    +0.000 C 
BRANCH   4   9
ATOM      6  C   UNL     1       1.160   9.620  19.239  0.00  0.00    +0.000 A 
ATOM      7  C   UNL     1       1.646   9.414  17.940  0.00  0.00    +0.000 A 
ATOM      8  C   UNL     1       2.350   8.244  17.632  0.00  0.00    +0.000 A 
ATOM      9  C   UNL     1       2.567   7.278  18.616  0.00  0.00    +0.000 A 
ATOM     10  C   UNL     1       2.087   7.485  19.913  0.00  0.00    +0.000 A 
ATOM     11  C   UNL     1       1.380   8.650  20.224  0.00  0.00    +0.000 A 
BRANCH   6  12
ATOM     12  C   UNL     1       0.387  10.830  19.608  0.00  0.00    +0.000 C 
ATOM     13  O   UNL     1       0.902  11.895  19.908  0.00  0.00    +0.000 OA
BRANCH  12  15
ATOM     14  C   UNL     1      -1.545  11.091  18.327  0.00  0.00    +0.000 C 
ATOM     15  O   UNL     1      -0.943  10.580  19.518  0.00  0.00    +0.000 OA
ENDBRANCH  12  15
ENDBRANCH   6  12
ENDBRANCH   4   9
ENDBRANCH   3   5
ENDBRANCH   2   3
ENDBRANCH   1   2
BRANCH   1  16
ATOM     16  C   UNL     1       7.465   5.132  16.836  0.00  0.00    +0.000 C 
BRANCH  16  17
ATOM     17  C   UNL     1       7.549   5.948  18.120  0.00  0.00    +0.000 C 
ATOM     18  O   UNL     1       7.460   5.388  19.212  0.00  0.00    +0.000 OA
BRANCH  17  19
ATOM     19  C   UNL     1       7.709   7.383  17.951  0.00  0.00    +0.000 A 
ATOM     20  N   UNL     1       6.992   8.158  17.155  0.00  0.00    +0.000 NA
ATOM     21  C   UNL     1       7.505   9.411  17.373  0.00  0.00    +0.000 A 
ATOM     22  C   UNL     1       8.530   9.361  18.289  0.00  0.00    +0.000 A 
ATOM     23  O   UNL     1       8.675   8.048  18.664  0.00  0.00    +0.000 OA
BRANCH  22  24
ATOM     24  C   UNL     1       9.386  10.349  18.920  0.00  0.00    +0.000 A 
ATOM     25  C   UNL     1      10.431  10.972  18.247  0.00  0.00    +0.000 A 
ATOM     26  C   UNL     1      11.262  11.837  18.956  0.00  0.00    +0.000 A 
ATOM     27  C   UNL     1      11.019  12.063  20.304  0.00  0.00    +0.000 A 
ATOM     28  C   UNL     1       9.938  11.424  20.890  0.00  0.00    +0.000 A 
ATOM     29  N   UNL     1       9.116  10.576  20.229  0.00  0.00    +0.000 NA
ENDBRANCH  22  24
ENDBRANCH  17  19
ENDBRANCH  16  17
ENDBRANCH   1  16
TORSDOF 10
ENDMDL
MODEL 6
REMARK VINA RESULT:      -7.1      2.934      4.233
REMARK  Name = 
REMARK  11 active torsions:
REMARK  status: ('A' for Active; 'I' for Inactive)
REMARK    1  A    between atoms: C_1  and  O_2
REMARK    2  A    between atoms: O_2  and  C_3
REMARK    3  A    between atoms: C_3  and  C_5
REMARK    4  A    between atoms: C_8  and  C_9
REMARK    5  A    between atoms: C_10  and  C_11
REMARK    6  A    between atoms: C_11  and  C_12
REMARK    7  A    between atoms: C_12  and  C_13
REMARK    8  A    between atoms: C_13  and  C_14
REMARK    9  A    between atoms: C_14  and  C_15
REMARK   10  A    between atoms: C_15  and  C_17
REMARK   11  A    between atoms: C_20  and  C_21
REMARK                            x       y       z     vdW  Elec       q    Type
REMARK                         _______ _______ _______ _____ _____    ______ ____
ROOT
ATOM      1  C   UNL     1       1.345   3.299  20.561  0.00  0.00    +0.000 C 
ENDROOT
BRANCH   1   2
ATOM      2  C   UNL     1       0.969   4.742  20.206  0.00  0.00    +0.000 C 
BRANCH   2   3
ATOM      3  C   UNL     1       2.036   5.752  20.633  0.00  0.00    +0.000 C 
BRANCH   3   5
ATOM      4  C   UNL     1       1.014   8.144  21.242  0.00  0.00    +0.000 C 
ATOM      5  C   UNL     1       1.482   7.080  20.934  0.00  0.00    +0.000 C 
BRANCH   4   9
ATOM      6  C   UNL     1      -0.794  11.743  22.546  0.00  0.00    +0.000 A 
ATOM      7  C   UNL     1       0.080  11.758  21.450  0.00  0.00    +0.000 A 
ATOM      8  C   UNL     1       0.690  10.572  21.023  0.00  0.00    +0.000 A 
ATOM      9  C   UNL     1       0.426   9.371  21.685  0.00  0.00    +0.000 A 
ATOM     10  C   UNL     1      -0.442   9.357  22.781  0.00  0.00    +0.000 A 
ATOM     11  C   UNL     1      -1.056  10.537  23.208  0.00  0.00    +0.000 A 
BRANCH   6  12
ATOM     12  C   UNL     1      -1.484  12.967  23.020  0.00  0.00    +0.000 C 
ATOM     13  O   UNL     1      -0.913  14.024  23.231  0.00  0.00    +0.000 OA
BRANCH  12  15
ATOM     14  C   UNL     1      -3.502  13.712  23.922  0.00  0.00    +0.000 C 
ATOM     15  O   UNL     1      -2.816  12.737  23.135  0.00  0.00    +0.000 OA
ENDBRANCH  12  15
ENDBRANCH   6  12
ENDBRANCH   4   9
ENDBRANCH   3   5
ENDBRANCH   2   3
ENDBRANCH   1   2
BRANCH   1  16
ATOM     16  C   UNL     1       1.732   2.488  19.326  0.00  0.00    +0.000 C 
BRANCH  16  17
ATOM     17  C   UNL     1       1.804   3.377  18.091  0.00  0.00    +0.000 C 
ATOM     18  O   UNL     1       0.769   3.794  17.572  0.00  0.00    +0.000 OA
BRANCH  17  19
ATOM     19  C   UNL     1       3.138   3.655  17.586  0.00  0.00    +0.000 A 
ATOM     20  N   UNL     1       3.699   3.107  16.522  0.00  0.00    +0.000 NA
ATOM     21  C   UNL     1       4.928   3.711  16.454  0.00  0.00    +0.000 A 
ATOM     22  C   UNL     1       5.085   4.604  17.488  0.00  0.00    +0.000 A 
ATOM     23  O   UNL     1       3.932   4.569  18.233  0.00  0.00    +0.000 OA
BRANCH  22  24
ATOM     24  C   UNL     1       6.128   5.533  17.886  0.00  0.00    +0.000 A 
ATOM     25  C   UNL     1       6.373   6.719  17.204  0.00  0.00    +0.000 A 
ATOM     26  C   UNL     1       7.453   7.505  17.596  0.00  0.00    +0.000 A 
ATOM     27  C   UNL     1       8.246   7.093  18.659  0.00  0.00    +0.000 A 
ATOM     28  C   UNL     1       7.914   5.913  19.303  0.00  0.00    +0.000 A 
ATOM     29  N   UNL     1       6.873   5.126  18.944  0.00  0.00    +0.000 NA
ENDBRANCH  22  24
ENDBRANCH  17  19
ENDBRANCH  16  17
ENDBRANCH   1  16
TORSDOF 10
ENDMDL
MODEL 7
REMARK VINA RESULT:      -7.0      3.082      4.443
REMARK  Name = 
REMARK  11 active torsions:
REMARK  status: ('A' for Active; 'I' for Inactive)
REMARK    1  A    between atoms: C_1  and  O_2
REMARK    2  A    between atoms: O_2  and  C_3
REMARK    3  A    between atoms: C_3  and  C_5
REMARK    4  A    between atoms: C_8  and  C_9
REMARK    5  A    between atoms: C_10  and  C_11
REMARK    6  A    between atoms: C_11  and  C_12
REMARK    7  A    between atoms: C_12  and  C_13
REMARK    8  A    between atoms: C_13  and  C_14
REMARK    9  A    between atoms: C_14  and  C_15
REMARK   10  A    between atoms: C_15  and  C_17
REMARK   11  A    between atoms: C_20  and  C_21
REMARK                            x       y       z     vdW  Elec       q    Type
REMARK                         _______ _______ _______ _____ _____    ______ ____
ROOT
ATOM      1  C   UNL     1       1.103   4.318  20.372  0.00  0.00    +0.000 C 
ENDROOT
BRANCH   1   2
ATOM      2  C   UNL     1       2.040   5.389  20.942  0.00  0.00    +0.000 C 
BRANCH   2   3
ATOM      3  C   UNL     1       2.131   6.629  20.050  0.00  0.00    +0.000 C 
BRANCH   3   5
ATOM      4  C   UNL     1       0.802   8.728  21.034  0.00  0.00    +0.000 C 
ATOM      5  C   UNL     1       1.429   7.793  20.612  0.00  0.00    +0.000 C 
BRANCH   4   9
ATOM      6  C   UNL     1      -1.540  12.014  22.312  0.00  0.00    +0.000 A 
ATOM      7  C   UNL     1      -1.253  10.973  23.204  0.00  0.00    +0.000 A 
ATOM      8  C   UNL     1      -0.489   9.878  22.783  0.00  0.00    +0.000 A 
ATOM      9  C   UNL     1      -0.008   9.823  21.473  0.00  0.00    +0.000 A 
ATOM     10  C   UNL     1      -0.298  10.859  20.581  0.00  0.00    +0.000 A 
ATOM     11  C   UNL     1      -1.057  11.956  20.999  0.00  0.00    +0.000 A 
BRANCH   6  12
ATOM     12  C   UNL     1      -2.322  13.207  22.718  0.00  0.00    +0.000 C 
ATOM     13  O   UNL     1      -3.329  13.582  22.139  0.00  0.00    +0.000 OA
BRANCH  12  15
ATOM     14  C   UNL     1      -1.056  14.972  23.566  0.00  0.00    +0.000 C 
ATOM     15  O   UNL     1      -1.778  13.767  23.826  0.00  0.00    +0.000 OA
ENDBRANCH  12  15
ENDBRANCH   6  12
ENDBRANCH   4   9
ENDBRANCH   3   5
ENDBRANCH   2   3
ENDBRANCH   1   2
BRANCH   1  16
ATOM     16  C   UNL     1       1.659   2.909  20.567  0.00  0.00    +0.000 C 
BRANCH  16  17
ATOM     17  C   UNL     1       2.255   2.374  19.271  0.00  0.00    +0.000 C 
ATOM     18  O   UNL     1       2.112   1.189  18.972  0.00  0.00    +0.000 OA
BRANCH  17  19
ATOM     19  C   UNL     1       2.996   3.333  18.470  0.00  0.00    +0.000 A 
ATOM     20  N   UNL     1       2.613   3.842  17.311  0.00  0.00    +0.000 NA
ATOM     21  C   UNL     1       3.628   4.702  16.982  0.00  0.00    +0.000 A 
ATOM     22  C   UNL     1       4.609   4.684  17.946  0.00  0.00    +0.000 A 
ATOM     23  O   UNL     1       4.212   3.793  18.911  0.00  0.00    +0.000 OA
BRANCH  22  24
ATOM     24  C   UNL     1       5.857   5.399  18.148  0.00  0.00    +0.000 A 
ATOM     25  C   UNL     1       6.702   5.140  19.222  0.00  0.00    +0.000 A 
ATOM     26  C   UNL     1       7.830   5.938  19.392  0.00  0.00    +0.000 A 
ATOM     27  C   UNL     1       8.088   6.957  18.484  0.00  0.00    +0.000 A 
ATOM     28  C   UNL     1       7.210   7.129  17.427  0.00  0.00    +0.000 A 
ATOM     29  N   UNL     1       6.104   6.372  17.236  0.00  0.00    +0.000 NA
ENDBRANCH  22  24
ENDBRANCH  17  19
ENDBRANCH  16  17
ENDBRANCH   1  16
TORSDOF 10
ENDMDL
MODEL 8
REMARK VINA RESULT:      -7.0      2.554      3.087
REMARK  Name = 
REMARK  11 active torsions:
REMARK  status: ('A' for Active; 'I' for Inactive)
REMARK    1  A    between atoms: C_1  and  O_2
REMARK    2  A    between atoms: O_2  and  C_3
REMARK    3  A    between atoms: C_3  and  C_5
REMARK    4  A    between atoms: C_8  and  C_9
REMARK    5  A    between atoms: C_10  and  C_11
REMARK    6  A    between atoms: C_11  and  C_12
REMARK    7  A    between atoms: C_12  and  C_13
REMARK    8  A    between atoms: C_13  and  C_14
REMARK    9  A    between atoms: C_14  and  C_15
REMARK   10  A    between atoms: C_15  and  C_17
REMARK   11  A    between atoms: C_20  and  C_21
REMARK                            x       y       z     vdW  Elec       q    Type
REMARK                         _______ _______ _______ _____ _____    ______ ____
ROOT
ATOM      1  C   UNL     1       1.039   3.159  19.412  0.00  0.00    +0.000 C 
ENDROOT
BRANCH   1   2
ATOM      2  C   UNL     1       1.154   3.457  20.911  0.00  0.00    +0.000 C 
BRANCH   2   3
ATOM      3  C   UNL     1       2.237   4.490  21.226  0.00  0.00    +0.000 C 
BRANCH   3   5
ATOM      4  C   UNL     1       1.597   7.000  20.568  0.00  0.00    +0.000 C 
ATOM      5  C   UNL     1       1.850   5.860  20.857  0.00  0.00    +0.000 C 
BRANCH   4   9
ATOM      6  C   UNL     1       0.875  11.074  19.674  0.00  0.00    +0.000 A 
ATOM      7  C   UNL     1       1.341  10.212  18.673  0.00  0.00    +0.000 A 
ATOM      8  C   UNL     1       1.593   8.866  18.966  0.00  0.00    +0.000 A 
ATOM      9  C   UNL     1       1.376   8.379  20.257  0.00  0.00    +0.000 A 
ATOM     10  C   UNL     1       0.917   9.240  21.258  0.00  0.00    +0.000 A 
ATOM     11  C   UNL     1       0.661  10.583  20.968  0.00  0.00    +0.000 A 
BRANCH   6  12
ATOM     12  C   UNL     1       0.570  12.500  19.407  0.00  0.00    +0.000 C 
ATOM     13  O   UNL     1       0.180  12.916  18.328  0.00  0.00    +0.000 OA
BRANCH  12  15
ATOM     14  C   UNL     1       1.901  14.077  20.493  0.00  0.00    +0.000 C 
ATOM     15  O   UNL     1       0.748  13.235  20.533  0.00  0.00    +0.000 OA
ENDBRANCH  12  15
ENDBRANCH   6  12
ENDBRANCH   4   9
ENDBRANCH   3   5
ENDBRANCH   2   3
ENDBRANCH   1   2
BRANCH   1  16
ATOM     16  C   UNL     1       1.620   1.792  19.055  0.00  0.00    +0.000 C 
BRANCH  16  17
ATOM     17  C   UNL     1       2.975   1.938  18.374  0.00  0.00    +0.000 C 
ATOM     18  O   UNL     1       3.665   0.942  18.159  0.00  0.00    +0.000 OA
BRANCH  17  19
ATOM     19  C   UNL     1       3.376   3.294  18.041  0.00  0.00    +0.000 A 
ATOM     20  N   UNL     1       2.600   4.233  17.527  0.00  0.00    +0.000 NA
ATOM     21  C   UNL     1       3.427   5.321  17.426  0.00  0.00    +0.000 A 
ATOM     22  C   UNL     1       4.691   5.010  17.872  0.00  0.00    +0.000 A 
ATOM     23  O   UNL     1       4.669   3.695  18.266  0.00  0.00    +0.000 OA
BRANCH  22  24
ATOM     24  C   UNL     1       5.928   5.753  18.039  0.00  0.00    +0.000 A 
ATOM     25  C   UNL     1       6.887   5.406  18.983  0.00  0.00    +0.000 A 
ATOM     26  C   UNL     1       8.000   6.229  19.139  0.00  0.00    +0.000 A 
ATOM     27  C   UNL     1       8.127   7.361  18.345  0.00  0.00    +0.000 A 
ATOM     28  C   UNL     1       7.139   7.617  17.408  0.00  0.00    +0.000 A 
ATOM     29  N   UNL     1       6.046   6.839  17.235  0.00  0.00    +0.000 NA
ENDBRANCH  22  24
ENDBRANCH  17  19
ENDBRANCH  16  17
ENDBRANCH   1  16
TORSDOF 10
ENDMDL
MODEL 9
REMARK VINA RESULT:      -7.0      2.230      3.402
REMARK  Name = 
REMARK  11 active torsions:
REMARK  status: ('A' for Active; 'I' for Inactive)
REMARK    1  A    between atoms: C_1  and  O_2
REMARK    2  A    between atoms: O_2  and  C_3
REMARK    3  A    between atoms: C_3  and  C_5
REMARK    4  A    between atoms: C_8  and  C_9
REMARK    5  A    between atoms: C_10  and  C_11
REMARK    6  A    between atoms: C_11  and  C_12
REMARK    7  A    between atoms: C_12  and  C_13
REMARK    8  A    between atoms: C_13  and  C_14
REMARK    9  A    between atoms: C_14  and  C_15
REMARK   10  A    between atoms: C_15  and  C_17
REMARK   11  A    between atoms: C_20  and  C_21
REMARK                            x       y       z     vdW  Elec       q    Type
REMARK                         _______ _______ _______ _____ _____    ______ ____
ROOT
ATOM      1  C   UNL     1       2.456   5.663  19.072  0.00  0.00    +0.000 C 
ENDROOT
BRANCH   1   2
ATOM      2  C   UNL     1       2.296   6.448  17.765  0.00  0.00    +0.000 C 
BRANCH   2   3
ATOM      3  C   UNL     1       2.946   7.831  17.823  0.00  0.00    +0.000 C 
BRANCH   3   5
ATOM      4  C   UNL     1       1.296   9.660  18.857  0.00  0.00    +0.000 C 
ATOM      5  C   UNL     1       2.053   8.864  18.370  0.00  0.00    +0.000 C 
BRANCH   4   9
ATOM      6  C   UNL     1      -1.534  12.201  20.716  0.00  0.00    +0.000 A 
ATOM      7  C   UNL     1      -1.267  12.337  19.347  0.00  0.00    +0.000 A 
ATOM      8  C   UNL     1      -0.323  11.507  18.730  0.00  0.00    +0.000 A 
ATOM      9  C   UNL     1       0.352  10.539  19.477  0.00  0.00    +0.000 A 
ATOM     10  C   UNL     1       0.089  10.407  20.843  0.00  0.00    +0.000 A 
ATOM     11  C   UNL     1      -0.855  11.231  21.462  0.00  0.00    +0.000 A 
BRANCH   6  12
ATOM     12  C   UNL     1      -2.543  13.039  21.409  0.00  0.00    +0.000 C 
ATOM     13  O   UNL     1      -2.261  14.017  22.081  0.00  0.00    +0.000 OA
BRANCH  12  15
ATOM     14  C   UNL     1      -4.732  12.841  22.189  0.00  0.00    +0.000 C 
ATOM     15  O   UNL     1      -3.792  12.579  21.146  0.00  0.00    +0.000 OA
ENDBRANCH  12  15
ENDBRANCH   6  12
ENDBRANCH   4   9
ENDBRANCH   3   5
ENDBRANCH   2   3
ENDBRANCH   1   2
BRANCH   1  16
ATOM     16  C   UNL     1       2.537   4.157  18.828  0.00  0.00    +0.000 C 
BRANCH  16  17
ATOM     17  C   UNL     1       3.903   3.614  19.229  0.00  0.00    +0.000 C 
ATOM     18  O   UNL     1       4.007   2.872  20.206  0.00  0.00    +0.000 OA
BRANCH  17  19
ATOM     19  C   UNL     1       5.024   4.048  18.413  0.00  0.00    +0.000 A 
ATOM     20  N   UNL     1       6.181   4.507  18.858  0.00  0.00    +0.000 NA
ATOM     21  C   UNL     1       6.897   4.749  17.714  0.00  0.00    +0.000 A 
ATOM     22  C   UNL     1       6.150   4.440  16.602  0.00  0.00    +0.000 A 
ATOM     23  O   UNL     1       4.930   3.992  17.045  0.00  0.00    +0.000 OA
BRANCH  22  24
ATOM     24  C   UNL     1       6.396   4.450  15.171  0.00  0.00    +0.000 A 
ATOM     25  C   UNL     1       5.660   3.677  14.280  0.00  0.00    +0.000 A 
ATOM     26  C   UNL     1       6.025   3.675  12.936  0.00  0.00    +0.000 A 
ATOM     27  C   UNL     1       7.100   4.450  12.521  0.00  0.00    +0.000 A 
ATOM     28  C   UNL     1       7.760   5.214  13.469  0.00  0.00    +0.000 A 
ATOM     29  N   UNL     1       7.432   5.235  14.782  0.00  0.00    +0.000 NA
ENDBRANCH  22  24
ENDBRANCH  17  19
ENDBRANCH  16  17
ENDBRANCH   1  16
TORSDOF 10
ENDMDL
