MODEL 1
REMARK VINA RESULT:      -7.0      0.000      0.000
REMARK  Name = 
REMARK  9 active torsions:
REMARK  status: ('A' for Active; 'I' for Inactive)
REMARK    1  A    between atoms: C_1  and  C_2
REMARK    2  A    between atoms: C_5  and  N_6
REMARK    3  A    between atoms: C_7  and  C_9
REMARK    4  A    between atoms: C_9  and  O_10
REMARK    5  A    between atoms: O_10  and  C_11
REMARK    6  A    between atoms: C_11  and  C_13
REMARK    7  A    between atoms: C_13  and  C_14
REMARK    8  A    between atoms: C_13  and  N_15
REMARK    9  A    between atoms: C_19  and  C_20
REMARK                            x       y       z     vdW  Elec       q    Type
REMARK                         _______ _______ _______ _____ _____    ______ ____
ROOT
ATOM      1  C   UNL     1       2.593   3.542  21.249  0.00  0.00    +0.000 C 
ENDROOT
BRANCH   1   3
ATOM      2  N   UNL     1       2.410   5.917  20.700  0.00  0.00    +0.000 N 
ATOM      3  C   UNL     1       1.751   4.697  20.701  0.00  0.00    +0.000 C 
ATOM      4  O   UNL     1       0.597   4.480  20.339  0.00  0.00    +0.000 OA
ATOM      5  H   UNL     1       3.333   5.922  21.110  0.00  0.00    +0.000 HD
BRANCH   2  10
ATOM      6  C   UNL     1       0.379  11.069  19.120  0.00  0.00    +0.000 C 
ATOM      7  C   UNL     1       0.898   9.723  19.530  0.00  0.00    +0.000 A 
ATOM      8  C   UNL     1       0.595   9.194  20.778  0.00  0.00    +0.000 A 
ATOM      9  C   UNL     1       1.084   7.940  21.154  0.00  0.00    +0.000 A 
ATOM     10  C   UNL     1       1.894   7.178  20.301  0.00  0.00    +0.000 A 
ATOM     11  C   UNL     1       2.200   7.702  19.025  0.00  0.00    +0.000 A 
ATOM     12  C   UNL     1       3.042   7.012  17.981  0.00  0.00    +0.000 C 
ATOM     13  C   UNL     1       1.695   8.972  18.661  0.00  0.00    +0.000 A 
ENDBRANCH   2  10
ENDBRANCH   1   3
BRANCH   1  14
ATOM     14  O   UNL     1       2.873   2.602  20.204  0.00  0.00    +0.000 OA
BRANCH  14  15
ATOM     15  C   UNL     1       4.016   2.865  19.503  0.00  0.00    +0.000 C 
ATOM     16  O   UNL     1       5.142   2.772  19.975  0.00  0.00    +0.000 OA
BRANCH  15  17
ATOM     17  C   UNL     1       3.699   3.296  18.058  0.00  0.00    +0.000 C 
ATOM     18  C   UNL     1       2.391   2.646  17.619  0.00  0.00    +0.000 C 
BRANCH  17  19
ATOM     19  N   UNL     1       4.788   2.953  17.142  0.00  0.00    +0.000 N 
ATOM     20  C   UNL     1       5.309   3.867  16.281  0.00  0.00    +0.000 C 
ATOM     21  N   UNL     1       6.362   3.371  15.584  0.00  0.00    +0.000 N 
ATOM     22  O   UNL     1       4.902   5.005  16.112  0.00  0.00    +0.000 OA
ATOM     23  H   UNL     1       5.445   2.259  17.479  0.00  0.00    +0.000 HD
ATOM     24  H   UNL     1       6.356   2.383  15.377  0.00  0.00    +0.000 HD
ATOM     25  H   UNL     1       6.665   3.971  14.828  0.00  0.00    +0.000 HD
ENDBRANCH  17  19
ENDBRANCH  15  17
ENDBRANCH  14  15
ENDBRANCH   1  14
TORSDOF 6
ENDMDL
MODEL 2
REMARK VINA RESULT:      -7.0      1.735      2.155
REMARK  Name = 
REMARK  9 active torsions:
REMARK  status: ('A' for Active; 'I' for Inactive)
REMARK    1  A    between atoms: C_1  and  C_2
REMARK    2  A    between atoms: C_5  and  N_6
REMARK    3  A    between atoms: C_7  and  C_9
REMARK    4  A    between atoms: C_9  and  O_10
REMARK    5  A    between atoms: O_10  and  C_11
REMARK    6  A    between atoms: C_11  and  C_13
REMARK    7  A    between atoms: C_13  and  C_14
REMARK    8  A    between atoms: C_13  and  N_15
REMARK    9  A    between atoms: C_19  and  C_20
REMARK                            x       y       z     vdW  Elec       q    Type
REMARK                         _______ _______ _______ _____ _____    ______ ____
ROOT
ATOM      1  C   UNL     1       3.444   4.585  19.811  0.00  0.00    +0.000 C 
ENDROOT
BRANCH   1   3
ATOM      2  N   UNL     1       2.562   6.861  19.934  0.00  0.00    +0.000 N 
ATOM      3  C   UNL     1       2.278   5.520  20.141  0.00  0.00    +0.000 C 
ATOM      4  O   UNL     1       1.229   5.043  20.567  0.00  0.00    +0.000 OA
ATOM      5  H   UNL     1       3.508   7.075  19.654  0.00  0.00    +0.000 HD
BRANCH   2  10
ATOM      6  C   UNL     1      -0.809  11.410  20.987  0.00  0.00    +0.000 C 
ATOM      7  C   UNL     1       0.060  10.220  20.712  0.00  0.00    +0.000 A 
ATOM      8  C   UNL     1       0.326   9.289  21.708  0.00  0.00    +0.000 A 
ATOM      9  C   UNL     1       1.139   8.182  21.446  0.00  0.00    +0.000 A 
ATOM     10  C   UNL     1       1.715   7.972  20.185  0.00  0.00    +0.000 A 
ATOM     11  C   UNL     1       1.443   8.907  19.162  0.00  0.00    +0.000 A 
ATOM     12  C   UNL     1       1.966   8.828  17.750  0.00  0.00    +0.000 C 
ATOM     13  C   UNL     1       0.617  10.020  19.445  0.00  0.00    +0.000 A 
ENDBRANCH   2  10
ENDBRANCH   1   3
BRANCH   1  14
ATOM     14  O   UNL     1       3.904   4.827  18.476  0.00  0.00    +0.000 OA
BRANCH  14  15
ATOM     15  C   UNL     1       5.257   4.714  18.319  0.00  0.00    +0.000 C 
ATOM     16  O   UNL     1       5.990   4.139  19.113  0.00  0.00    +0.000 OA
BRANCH  15  17
ATOM     17  C   UNL     1       5.729   5.406  17.026  0.00  0.00    +0.000 C 
ATOM     18  C   UNL     1       4.904   6.670  16.806  0.00  0.00    +0.000 C 
BRANCH  17  19
ATOM     19  N   UNL     1       5.637   4.512  15.871  0.00  0.00    +0.000 N 
ATOM     20  C   UNL     1       6.582   4.508  14.895  0.00  0.00    +0.000 C 
ATOM     21  N   UNL     1       6.352   3.550  13.963  0.00  0.00    +0.000 N 
ATOM     22  O   UNL     1       7.534   5.267  14.817  0.00  0.00    +0.000 OA
ATOM     23  H   UNL     1       5.194   3.617  16.042  0.00  0.00    +0.000 HD
ATOM     24  H   UNL     1       5.390   3.305  13.778  0.00  0.00    +0.000 HD
ATOM     25  H   UNL     1       6.945   3.628  13.147  0.00  0.00    +0.000 HD
ENDBRANCH  17  19
ENDBRANCH  15  17
ENDBRANCH  14  15
ENDBRANCH   1  14
TORSDOF 6
ENDMDL
MODEL 3
REMARK VINA RESULT:      -7.0      3.157      5.634
REMARK  Name = 
REMARK  9 active torsions:
REMARK  status: ('A' for Active; 'I' for Inactive)
REMARK    1  A    between atoms: C_1  and  C_2
REMARK    2  A    between atoms: C_5  and  N_6
REMARK    3  A    between atoms: C_7  and  C_9
REMARK    4  A    between atoms: C_9  and  O_10
REMARK    5  A    between atoms: O_10  and  C_11
REMARK    6  A    between atoms: C_11  and  C_13
REMARK    7  A    between atoms: C_13  and  C_14
REMARK    8  A    between atoms: C_13  and  N_15
REMARK    9  A    between atoms: C_19  and  C_20
REMARK                            x       y       z     vdW  Elec       q    Type
REMARK                         _______ _______ _______ _____ _____    ______ ____
ROOT
ATOM      1  C   UNL     1       7.406   5.760  17.453  0.00  0.00    +0.000 C 
ENDROOT
BRANCH   1   3
ATOM      2  N   UNL     1       5.345   4.738  18.281  0.00  0.00    +0.000 N 
ATOM      3  C   UNL     1       6.594   5.225  18.635  0.00  0.00    +0.000 C 
ATOM      4  O   UNL     1       7.072   5.281  19.766  0.00  0.00    +0.000 OA
ATOM      5  H   UNL     1       5.088   4.844  17.311  0.00  0.00    +0.000 HD
BRANCH   2  10
ATOM      6  C   UNL     1       1.332   2.652  21.846  0.00  0.00    +0.000 C 
ATOM      7  C   UNL     1       2.373   3.189  20.910  0.00  0.00    +0.000 A 
ATOM      8  C   UNL     1       3.452   2.406  20.520  0.00  0.00    +0.000 A 
ATOM      9  C   UNL     1       4.419   2.914  19.649  0.00  0.00    +0.000 A 
ATOM     10  C   UNL     1       4.344   4.219  19.143  0.00  0.00    +0.000 A 
ATOM     11  C   UNL     1       3.245   5.021  19.524  0.00  0.00    +0.000 A 
ATOM     12  C   UNL     1       3.002   6.436  19.065  0.00  0.00    +0.000 C 
ATOM     13  C   UNL     1       2.275   4.490  20.406  0.00  0.00    +0.000 A 
ENDBRANCH   2  10
ENDBRANCH   1   3
BRANCH   1  14
ATOM     14  O   UNL     1       7.353   4.832  16.362  0.00  0.00    +0.000 OA
BRANCH  14  15
ATOM     15  C   UNL     1       6.587   5.247  15.309  0.00  0.00    +0.000 C 
ATOM     16  O   UNL     1       5.719   6.106  15.393  0.00  0.00    +0.000 OA
BRANCH  15  17
ATOM     17  C   UNL     1       6.956   4.491  14.018  0.00  0.00    +0.000 C 
ATOM     18  C   UNL     1       7.919   5.342  13.198  0.00  0.00    +0.000 C 
BRANCH  17  19
ATOM     19  N   UNL     1       5.767   4.145  13.237  0.00  0.00    +0.000 N 
ATOM     20  C   UNL     1       5.820   3.248  12.217  0.00  0.00    +0.000 C 
ATOM     21  N   UNL     1       4.597   3.009  11.682  0.00  0.00    +0.000 N 
ATOM     22  O   UNL     1       6.828   2.707  11.791  0.00  0.00    +0.000 OA
ATOM     23  H   UNL     1       4.888   4.171  13.739  0.00  0.00    +0.000 HD
ATOM     24  H   UNL     1       3.929   3.767  11.694  0.00  0.00    +0.000 HD
ATOM     25  H   UNL     1       4.628   2.472  10.825  0.00  0.00    +0.000 HD
ENDBRANCH  17  19
ENDBRANCH  15  17
ENDBRANCH  14  15
ENDBRANCH   1  14
TORSDOF 6
ENDMDL
MODEL 4
REMARK VINA RESULT:      -6.8      2.964      5.237
REMARK  Name = 
REMARK  9 active torsions:
REMARK  status: ('A' for Active; 'I' for Inactive)
REMARK    1  A    between atoms: C_1  and  C_2
REMARK    2  A    between atoms: C_5  and  N_6
REMARK    3  A    between atoms: C_7  and  C_9
REMARK    4  A    between atoms: C_9  and  O_10
REMARK    5  A    between atoms: O_10  and  C_11
REMARK    6  A    between atoms: C_11  and  C_13
REMARK    7  A    between atoms: C_13  and  C_14
REMARK    8  A    between atoms: C_13  and  N_15
REMARK    9  A    between atoms: C_19  and  C_20
REMARK                            x       y       z     vdW  Elec       q    Type
REMARK                         _______ _______ _______ _____ _____    ______ ____
ROOT
ATOM      1  C   UNL     1       7.172   6.375  17.702  0.00  0.00    +0.000 C 
ENDROOT
BRANCH   1   3
ATOM      2  N   UNL     1       5.122   5.290  18.475  0.00  0.00    +0.000 N 
ATOM      3  C   UNL     1       6.435   5.599  18.797  0.00  0.00    +0.000 C 
ATOM      4  O   UNL     1       7.022   5.334  19.843  0.00  0.00    +0.000 OA
ATOM      5  H   UNL     1       4.783   5.658  17.598  0.00  0.00    +0.000 HD
BRANCH   2  10
ATOM      6  C   UNL     1       1.302   2.595  21.838  0.00  0.00    +0.000 C 
ATOM      7  C   UNL     1       2.292   3.291  20.954  0.00  0.00    +0.000 A 
ATOM      8  C   UNL     1       3.398   2.616  20.454  0.00  0.00    +0.000 A 
ATOM      9  C   UNL     1       4.318   3.272  19.632  0.00  0.00    +0.000 A 
ATOM     10  C   UNL     1       4.168   4.622  19.287  0.00  0.00    +0.000 A 
ATOM     11  C   UNL     1       3.042   5.317  19.782  0.00  0.00    +0.000 A 
ATOM     12  C   UNL     1       2.719   6.762  19.500  0.00  0.00    +0.000 C 
ATOM     13  C   UNL     1       2.120   4.636  20.611  0.00  0.00    +0.000 A 
ENDBRANCH   2  10
ENDBRANCH   1   3
BRANCH   1  14
ATOM     14  O   UNL     1       7.182   5.617  16.487  0.00  0.00    +0.000 OA
BRANCH  14  15
ATOM     15  C   UNL     1       6.079   5.802  15.700  0.00  0.00    +0.000 C 
ATOM     16  O   UNL     1       5.461   6.855  15.629  0.00  0.00    +0.000 OA
BRANCH  15  17
ATOM     17  C   UNL     1       5.722   4.516  14.930  0.00  0.00    +0.000 C 
ATOM     18  C   UNL     1       5.709   3.339  15.900  0.00  0.00    +0.000 C 
BRANCH  17  19
ATOM     19  N   UNL     1       6.650   4.274  13.824  0.00  0.00    +0.000 N 
ATOM     20  C   UNL     1       6.228   3.766  12.636  0.00  0.00    +0.000 C 
ATOM     21  N   UNL     1       7.228   3.699  11.723  0.00  0.00    +0.000 N 
ATOM     22  O   UNL     1       5.095   3.389  12.382  0.00  0.00    +0.000 OA
ATOM     23  H   UNL     1       7.436   4.910  13.762  0.00  0.00    +0.000 HD
ATOM     24  H   UNL     1       8.163   3.541  12.071  0.00  0.00    +0.000 HD
ATOM     25  H   UNL     1       6.981   3.181  10.890  0.00  0.00    +0.000 HD
ENDBRANCH  17  19
ENDBRANCH  15  17
ENDBRANCH  14  15
ENDBRANCH   1  14
TORSDOF 6
ENDMDL
MODEL 5
REMARK VINA RESULT:      -6.8      1.316      1.968
REMARK  Name = 
REMARK  9 active torsions:
REMARK  status: ('A' for Active; 'I' for Inactive)
REMARK    1  A    between atoms: C_1  and  C_2
REMARK    2  A    between atoms: C_5  and  N_6
REMARK    3  A    between atoms: C_7  and  C_9
REMARK    4  A    between atoms: C_9  and  O_10
REMARK    5  A    between atoms: O_10  and  C_11
REMARK    6  A    between atoms: C_11  and  C_13
REMARK    7  A    between atoms: C_13  and  C_14
REMARK    8  A    between atoms: C_13  and  N_15
REMARK    9  A    between atoms: C_19  and  C_20
REMARK                            x       y       z     vdW  Elec       q    Type
REMARK                         _______ _______ _______ _____ _____    ______ ____
ROOT
ATOM      1  C   UNL     1       2.458   3.728  21.572  0.00  0.00    +0.000 C 
ENDROOT
BRANCH   1   3
ATOM      2  N   UNL     1       2.552   5.955  20.568  0.00  0.00    +0.000 N 
ATOM      3  C   UNL     1       1.785   4.810  20.724  0.00  0.00    +0.000 C 
ATOM      4  O   UNL     1       0.658   4.609  20.279  0.00  0.00    +0.000 OA
ATOM      5  H   UNL     1       3.426   5.974  21.073  0.00  0.00    +0.000 HD
BRANCH   2  10
ATOM      6  C   UNL     1       1.043  10.745  17.750  0.00  0.00    +0.000 C 
ATOM      7  C   UNL     1       1.446   9.502  18.484  0.00  0.00    +0.000 A 
ATOM      8  C   UNL     1       2.170   8.502  17.847  0.00  0.00    +0.000 A 
ATOM      9  C   UNL     1       2.540   7.344  18.538  0.00  0.00    +0.000 A 
ATOM     10  C   UNL     1       2.197   7.146  19.882  0.00  0.00    +0.000 A 
ATOM     11  C   UNL     1       1.469   8.160  20.543  0.00  0.00    +0.000 A 
ATOM     12  C   UNL     1       1.032   8.117  21.985  0.00  0.00    +0.000 C 
ATOM     13  C   UNL     1       1.104   9.325  19.829  0.00  0.00    +0.000 A 
ENDBRANCH   2  10
ENDBRANCH   1   3
BRANCH   1  14
ATOM     14  O   UNL     1       2.619   2.531  20.801  0.00  0.00    +0.000 OA
BRANCH  14  15
ATOM     15  C   UNL     1       3.836   2.417  20.189  0.00  0.00    +0.000 C 
ATOM     16  O   UNL     1       4.817   1.906  20.712  0.00  0.00    +0.000 OA
BRANCH  15  17
ATOM     17  C   UNL     1       3.805   3.018  18.770  0.00  0.00    +0.000 C 
ATOM     18  C   UNL     1       3.063   2.065  17.839  0.00  0.00    +0.000 C 
BRANCH  17  19
ATOM     19  N   UNL     1       5.154   3.293  18.272  0.00  0.00    +0.000 N 
ATOM     20  C   UNL     1       5.823   4.426  18.613  0.00  0.00    +0.000 C 
ATOM     21  N   UNL     1       7.084   4.447  18.115  0.00  0.00    +0.000 N 
ATOM     22  O   UNL     1       5.376   5.349  19.276  0.00  0.00    +0.000 OA
ATOM     23  H   UNL     1       5.739   2.482  18.116  0.00  0.00    +0.000 HD
ATOM     24  H   UNL     1       7.242   3.975  17.236  0.00  0.00    +0.000 HD
ATOM     25  H   UNL     1       7.545   5.341  18.219  0.00  0.00    +0.000 HD
ENDBRANCH  17  19
ENDBRANCH  15  17
ENDBRANCH  14  15
ENDBRANCH   1  14
TORSDOF 6
ENDMDL
MODEL 6
REMARK VINA RESULT:      -6.8      1.123      1.182
REMARK  Name = 
REMARK  9 active torsions:
REMARK  status: ('A' for Active; 'I' for Inactive)
REMARK    1  A    between atoms: C_1  and  C_2
REMARK    2  A    between atoms: C_5  and  N_6
REMARK    3  A    between atoms: C_7  and  C_9
REMARK    4  A    between atoms: C_9  and  O_10
REMARK    5  A    between atoms: O_10  and  C_11
REMARK    6  A    between atoms: C_11  and  C_13
REMARK    7  A    between atoms: C_13  and  C_14
REMARK    8  A    between atoms: C_13  and  N_15
REMARK    9  A    between atoms: C_19  and  C_20
REMARK                            x       y       z     vdW  Elec       q    Type
REMARK                         _______ _______ _______ _____ _____    ______ ____
ROOT
ATOM      1  C   UNL     1       3.292   3.707  20.479  0.00  0.00    +0.000 C 
ENDROOT
BRANCH   1   3
ATOM      2  N   UNL     1       2.730   6.083  20.344  0.00  0.00    +0.000 N 
ATOM      3  C   UNL     1       2.331   4.800  20.003  0.00  0.00    +0.000 C 
ATOM      4  O   UNL     1       1.309   4.478  19.400  0.00  0.00    +0.000 OA
ATOM      5  H   UNL     1       3.561   6.151  20.912  0.00  0.00    +0.000 HD
BRANCH   2  10
ATOM      6  C   UNL     1      -0.004  11.054  19.354  0.00  0.00    +0.000 C 
ATOM      7  C   UNL     1       0.699   9.754  19.610  0.00  0.00    +0.000 A 
ATOM      8  C   UNL     1       0.533   9.081  20.814  0.00  0.00    +0.000 A 
ATOM      9  C   UNL     1       1.193   7.871  21.047  0.00  0.00    +0.000 A 
ATOM     10  C   UNL     1       2.041   7.298  20.090  0.00  0.00    +0.000 A 
ATOM     11  C   UNL     1       2.209   7.968  18.858  0.00  0.00    +0.000 A 
ATOM     12  C   UNL     1       3.070   7.488  17.717  0.00  0.00    +0.000 C 
ATOM     13  C   UNL     1       1.533   9.191  18.640  0.00  0.00    +0.000 A 
ENDBRANCH   2  10
ENDBRANCH   1   3
BRANCH   1  14
ATOM     14  O   UNL     1       3.963   3.122  19.357  0.00  0.00    +0.000 OA
BRANCH  14  15
ATOM     15  C   UNL     1       4.940   3.909  18.814  0.00  0.00    +0.000 C 
ATOM     16  O   UNL     1       5.914   4.313  19.435  0.00  0.00    +0.000 OA
BRANCH  15  17
ATOM     17  C   UNL     1       4.649   4.219  17.333  0.00  0.00    +0.000 C 
ATOM     18  C   UNL     1       3.525   3.312  16.844  0.00  0.00    +0.000 C 
BRANCH  17  19
ATOM     19  N   UNL     1       5.845   4.064  16.504  0.00  0.00    +0.000 N 
ATOM     20  C   UNL     1       6.463   5.133  15.936  0.00  0.00    +0.000 C 
ATOM     21  N   UNL     1       7.597   4.782  15.281  0.00  0.00    +0.000 N 
ATOM     22  O   UNL     1       6.072   6.289  15.974  0.00  0.00    +0.000 OA
ATOM     23  H   UNL     1       6.460   3.299  16.757  0.00  0.00    +0.000 HD
ATOM     24  H   UNL     1       7.624   3.863  14.862  0.00  0.00    +0.000 HD
ATOM     25  H   UNL     1       7.988   5.527  14.720  0.00  0.00    +0.000 HD
ENDBRANCH  17  19
ENDBRANCH  15  17
ENDBRANCH  14  15
ENDBRANCH   1  14
TORSDOF 6
ENDMDL
MODEL 7
REMARK VINA RESULT:      -6.7      2.244      2.780
REMARK  Name = 
REMARK  9 active torsions:
REMARK  status: ('A' for Active; 'I' for Inactive)
REMARK    1  A    between atoms: C_1  and  C_2
REMARK    2  A    between atoms: C_5  and  N_6
REMARK    3  A    between atoms: C_7  and  C_9
REMARK    4  A    between atoms: C_9  and  O_10
REMARK    5  A    between atoms: O_10  and  C_11
REMARK    6  A    between atoms: C_11  and  C_13
REMARK    7  A    between atoms: C_13  and  C_14
REMARK    8  A    between atoms: C_13  and  N_15
REMARK    9  A    between atoms: C_19  and  C_20
REMARK                            x       y       z     vdW  Elec       q    Type
REMARK                         _______ _______ _______ _____ _____    ______ ____
ROOT
ATOM      1  C   UNL     1       3.339   3.359  19.019  0.00  0.00    +0.000 C 
ENDROOT
BRANCH   1   3
ATOM      2  N   UNL     1       2.810   5.651  19.686  0.00  0.00    +0.000 N 
ATOM      3  C   UNL     1       2.406   4.569  18.920  0.00  0.00    +0.000 C 
ATOM      4  O   UNL     1       1.399   4.493  18.219  0.00  0.00    +0.000 OA
ATOM      5  H   UNL     1       3.625   5.505  20.263  0.00  0.00    +0.000 HD
BRANCH   2  10
ATOM      6  C   UNL     1       0.173  10.724  20.373  0.00  0.00    +0.000 C 
ATOM      7  C   UNL     1       0.850   9.399  20.191  0.00  0.00    +0.000 A 
ATOM      8  C   UNL     1       0.747   8.409  21.161  0.00  0.00    +0.000 A 
ATOM      9  C   UNL     1       1.383   7.177  20.986  0.00  0.00    +0.000 A 
ATOM     10  C   UNL     1       2.144   6.895  19.844  0.00  0.00    +0.000 A 
ATOM     11  C   UNL     1       2.246   7.890  18.846  0.00  0.00    +0.000 A 
ATOM     12  C   UNL     1       3.009   7.749  17.554  0.00  0.00    +0.000 C 
ATOM     13  C   UNL     1       1.595   9.130  19.040  0.00  0.00    +0.000 A 
ENDBRANCH   2  10
ENDBRANCH   1   3
BRANCH   1  14
ATOM     14  O   UNL     1       4.695   3.769  18.807  0.00  0.00    +0.000 OA
BRANCH  14  15
ATOM     15  C   UNL     1       4.993   4.076  17.509  0.00  0.00    +0.000 C 
ATOM     16  O   UNL     1       4.300   3.750  16.554  0.00  0.00    +0.000 OA
BRANCH  15  17
ATOM     17  C   UNL     1       6.307   4.875  17.412  0.00  0.00    +0.000 C 
ATOM     18  C   UNL     1       7.047   4.468  16.142  0.00  0.00    +0.000 C 
BRANCH  17  19
ATOM     19  N   UNL     1       7.147   4.677  18.594  0.00  0.00    +0.000 N 
ATOM     20  C   UNL     1       7.883   5.689  19.124  0.00  0.00    +0.000 C 
ATOM     21  N   UNL     1       8.521   5.318  20.261  0.00  0.00    +0.000 N 
ATOM     22  O   UNL     1       7.997   6.812  18.657  0.00  0.00    +0.000 OA
ATOM     23  H   UNL     1       6.809   3.997  19.265  0.00  0.00    +0.000 HD
ATOM     24  H   UNL     1       8.805   4.352  20.339  0.00  0.00    +0.000 HD
ATOM     25  H   UNL     1       9.197   5.997  20.587  0.00  0.00    +0.000 HD
ENDBRANCH  17  19
ENDBRANCH  15  17
ENDBRANCH  14  15
ENDBRANCH   1  14
TORSDOF 6
ENDMDL
MODEL 8
REMARK VINA RESULT:      -6.6      2.316      2.919
REMARK  Name = 
REMARK  9 active torsions:
REMARK  status: ('A' for Active; 'I' for Inactive)
REMARK    1  A    between atoms: C_1  and  C_2
REMARK    2  A    between atoms: C_5  and  N_6
REMARK    3  A    between atoms: C_7  and  C_9
REMARK    4  A    between atoms: C_9  and  O_10
REMARK    5  A    between atoms: O_10  and  C_11
REMARK    6  A    between atoms: C_11  and  C_13
REMARK    7  A    between atoms: C_13  and  C_14
REMARK    8  A    between atoms: C_13  and  N_15
REMARK    9  A    between atoms: C_19  and  C_20
REMARK                            x       y       z     vdW  Elec       q    Type
REMARK                         _______ _______ _______ _____ _____    ______ ____
ROOT
ATOM      1  C   UNL     1       3.428   5.069  19.738  0.00  0.00    +0.000 C 
ENDROOT
BRANCH   1   3
ATOM      2  N   UNL     1       2.446   7.279  20.099  0.00  0.00    +0.000 N 
ATOM      3  C   UNL     1       2.221   5.912  20.157  0.00  0.00    +0.000 C 
ATOM      4  O   UNL     1       1.192   5.346  20.520  0.00  0.00    +0.000 OA
ATOM      5  H   UNL     1       3.383   7.563  19.851  0.00  0.00    +0.000 HD
BRANCH   2  10
ATOM      6  C   UNL     1      -1.124  11.542  21.595  0.00  0.00    +0.000 C 
ATOM      7  C   UNL     1      -0.203  10.425  21.206  0.00  0.00    +0.000 A 
ATOM      8  C   UNL     1       0.259   9.521  22.155  0.00  0.00    +0.000 A 
ATOM      9  C   UNL     1       1.120   8.484  21.785  0.00  0.00    +0.000 A 
ATOM     10  C   UNL     1       1.550   8.318  20.462  0.00  0.00    +0.000 A 
ATOM     11  C   UNL     1       1.078   9.225  19.487  0.00  0.00    +0.000 A 
ATOM     12  C   UNL     1       1.427   9.185  18.021  0.00  0.00    +0.000 C 
ATOM     13  C   UNL     1       0.207  10.268  19.879  0.00  0.00    +0.000 A 
ENDBRANCH   2  10
ENDBRANCH   1   3
BRANCH   1  14
ATOM     14  O   UNL     1       3.524   5.027  18.309  0.00  0.00    +0.000 OA
BRANCH  14  15
ATOM     15  C   UNL     1       4.458   5.877  17.784  0.00  0.00    +0.000 C 
ATOM     16  O   UNL     1       4.286   7.081  17.653  0.00  0.00    +0.000 OA
BRANCH  15  17
ATOM     17  C   UNL     1       5.737   5.120  17.379  0.00  0.00    +0.000 C 
ATOM     18  C   UNL     1       5.349   3.818  16.685  0.00  0.00    +0.000 C 
BRANCH  17  19
ATOM     19  N   UNL     1       6.599   4.861  18.534  0.00  0.00    +0.000 N 
ATOM     20  C   UNL     1       7.541   5.755  18.934  0.00  0.00    +0.000 C 
ATOM     21  N   UNL     1       8.170   5.363  20.069  0.00  0.00    +0.000 N 
ATOM     22  O   UNL     1       7.830   6.795  18.363  0.00  0.00    +0.000 OA
ATOM     23  H   UNL     1       6.185   4.314  19.279  0.00  0.00    +0.000 HD
ATOM     24  H   UNL     1       8.276   4.369  20.221  0.00  0.00    +0.000 HD
ATOM     25  H   UNL     1       8.979   5.925  20.300  0.00  0.00    +0.000 HD
ENDBRANCH  17  19
ENDBRANCH  15  17
ENDBRANCH  14  15
ENDBRANCH   1  14
TORSDOF 6
ENDMDL
MODEL 9
REMARK VINA RESULT:      -6.6      2.867      5.620
REMARK  Name = 
REMARK  9 active torsions:
REMARK  status: ('A' for Active; 'I' for Inactive)
REMARK    1  A    between atoms: C_1  and  C_2
REMARK    2  A    between atoms: C_5  and  N_6
REMARK    3  A    between atoms: C_7  and  C_9
REMARK    4  A    between atoms: C_9  and  O_10
REMARK    5  A    between atoms: O_10  and  C_11
REMARK    6  A    between atoms: C_11  and  C_13
REMARK    7  A    between atoms: C_13  and  C_14
REMARK    8  A    between atoms: C_13  and  N_15
REMARK    9  A    between atoms: C_19  and  C_20
REMARK                            x       y       z     vdW  Elec       q    Type
REMARK                         _______ _______ _______ _____ _____    ______ ____
ROOT
ATOM      1  C   UNL     1       5.421   6.247  15.931  0.00  0.00    +0.000 C 
ENDROOT
BRANCH   1   3
ATOM      2  N   UNL     1       3.812   5.058  17.336  0.00  0.00    +0.000 N 
ATOM      3  C   UNL     1       5.066   5.647  17.294  0.00  0.00    +0.000 C 
ATOM      4  O   UNL     1       5.870   5.742  18.218  0.00  0.00    +0.000 OA
ATOM      5  H   UNL     1       3.255   5.143  16.499  0.00  0.00    +0.000 HD
BRANCH   2  10
ATOM      6  C   UNL     1       1.312   2.617  21.914  0.00  0.00    +0.000 C 
ATOM      7  C   UNL     1       1.954   3.250  20.717  0.00  0.00    +0.000 A 
ATOM      8  C   UNL     1       2.542   2.469  19.729  0.00  0.00    +0.000 A 
ATOM      9  C   UNL     1       3.142   3.066  18.617  0.00  0.00    +0.000 A 
ATOM     10  C   UNL     1       3.177   4.458  18.455  0.00  0.00    +0.000 A 
ATOM     11  C   UNL     1       2.573   5.262  19.448  0.00  0.00    +0.000 A 
ATOM     12  C   UNL     1       2.507   6.767  19.426  0.00  0.00    +0.000 C 
ATOM     13  C   UNL     1       1.970   4.640  20.567  0.00  0.00    +0.000 A 
ENDBRANCH   2  10
ENDBRANCH   1   3
BRANCH   1  14
ATOM     14  O   UNL     1       5.470   5.214  14.939  0.00  0.00    +0.000 OA
BRANCH  14  15
ATOM     15  C   UNL     1       6.717   4.691  14.734  0.00  0.00    +0.000 C 
ATOM     16  O   UNL     1       7.581   4.632  15.598  0.00  0.00    +0.000 OA
BRANCH  15  17
ATOM     17  C   UNL     1       6.884   4.199  13.284  0.00  0.00    +0.000 C 
ATOM     18  C   UNL     1       7.808   5.153  12.535  0.00  0.00    +0.000 C 
BRANCH  17  19
ATOM     19  N   UNL     1       5.593   4.076  12.604  0.00  0.00    +0.000 N 
ATOM     20  C   UNL     1       5.293   2.998  11.832  0.00  0.00    +0.000 C 
ATOM     21  N   UNL     1       4.021   3.042  11.364  0.00  0.00    +0.000 N 
ATOM     22  O   UNL     1       6.052   2.083  11.555  0.00  0.00    +0.000 OA
ATOM     23  H   UNL     1       4.803   4.495  13.080  0.00  0.00    +0.000 HD
ATOM     24  H   UNL     1       3.623   3.953  11.189  0.00  0.00    +0.000 HD
ATOM     25  H   UNL     1       3.823   2.339  10.664  0.00  0.00    +0.000 HD
ENDBRANCH  17  19
ENDBRANCH  15  17
ENDBRANCH  14  15
ENDBRANCH   1  14
TORSDOF 6
ENDMDL
