MODEL 1
REMARK VINA RESULT:      -6.6      0.000      0.000
REMARK  Name = 
REMARK  8 active torsions:
REMARK  status: ('A' for Active; 'I' for Inactive)
REMARK    1  A    between atoms: C_1  and  C_2
REMARK    2  A    between atoms: C_2  and  C_3
REMARK    3  A    between atoms: C_3  and  O_4
REMARK    4  A    between atoms: O_4  and  C_5
REMARK    5  A    between atoms: C_8  and  C_9
REMARK    6  A    between atoms: C_9  and  C_10
REMARK    7  A    between atoms: C_10  and  C_11
REMARK    8  A    between atoms: C_11  and  N_12
REMARK                            x       y       z     vdW  Elec       q    Type
REMARK                         _______ _______ _______ _____ _____    ______ ____
ROOT
ATOM      1  C   UNL     1       2.100   4.455  18.494  0.00  0.00    +0.000 A 
ATOM      2  C   UNL     1       2.475   5.807  18.481  0.00  0.00    +0.000 A 
ATOM      3  C   UNL     1       3.590   6.243  17.770  0.00  0.00    +0.000 A 
ATOM      4  C   UNL     1       4.367   5.341  17.052  0.00  0.00    +0.000 A 
ATOM      5  C   UNL     1       3.999   3.986  17.037  0.00  0.00    +0.000 A 
ATOM      6  C   UNL     1       2.871   3.547  17.750  0.00  0.00    +0.000 A 
ATOM      7 CL   UNL     1       2.464   1.869  17.670  0.00  0.00    +0.000 Cl
ENDROOT
BRANCH   1   8
ATOM      8  O   UNL     1       1.015   3.982  19.202  0.00  0.00    +0.000 OA
BRANCH   8   9
ATOM      9  C   UNL     1       1.153   4.073  20.622  0.00  0.00    +0.000 C 
BRANCH   9  11
ATOM     10  C   UNL     1       2.897   2.517  21.455  0.00  0.00    +0.000 C 
ATOM     11  C   UNL     1       1.397   2.717  21.267  0.00  0.00    +0.000 C 
ENDBRANCH   9  11
ENDBRANCH   8   9
ENDBRANCH   1   8
BRANCH   4  12
ATOM     12  C   UNL     1       5.572   5.847  16.296  0.00  0.00    +0.000 C 
BRANCH  12  13
ATOM     13  C   UNL     1       6.149   7.102  16.947  0.00  0.00    +0.000 C 
BRANCH  13  14
ATOM     14  C   UNL     1       7.647   6.958  17.201  0.00  0.00    +0.000 C 
BRANCH  14  15
ATOM     15  N   UNL     1       7.842   6.761  18.632  0.00  0.00    +0.000 NA
ATOM     16  C   UNL     1       8.005   5.571  19.073  0.00  0.00    +0.000 C 
ATOM     17  N   UNL     1       8.004   4.404  18.395  0.00  0.00    +0.000 N 
ATOM     18  N   UNL     1       8.263   5.391  20.385  0.00  0.00    +0.000 N 
ATOM     19  H   UNL     1       7.627   4.431  17.458  0.00  0.00    +0.000 HD
ATOM     20  H   UNL     1       7.742   3.574  18.908  0.00  0.00    +0.000 HD
ATOM     21  H   UNL     1       8.112   6.246  20.910  0.00  0.00    +0.000 HD
ATOM     22  H   UNL     1       7.873   4.576  20.833  0.00  0.00    +0.000 HD
ENDBRANCH  14  15
ENDBRANCH  13  14
ENDBRANCH  12  13
ENDBRANCH   4  12
TORSDOF 7
ENDMDL
MODEL 2
REMARK VINA RESULT:      -6.5      2.064      2.773
REMARK  Name = 
REMARK  8 active torsions:
REMARK  status: ('A' for Active; 'I' for Inactive)
REMARK    1  A    between atoms: C_1  and  C_2
REMARK    2  A    between atoms: C_2  and  C_3
REMARK    3  A    between atoms: C_3  and  O_4
REMARK    4  A    between atoms: O_4  and  C_5
REMARK    5  A    between atoms: C_8  and  C_9
REMARK    6  A    between atoms: C_9  and  C_10
REMARK    7  A    between atoms: C_10  and  C_11
REMARK    8  A    between atoms: C_11  and  N_12
REMARK                            x       y       z     vdW  Elec       q    Type
REMARK                         _______ _______ _______ _____ _____    ______ ____
ROOT
ATOM      1  C   UNL     1       2.614   3.922  18.168  0.00  0.00    +0.000 A 
ATOM      2  C   UNL     1       2.813   5.307  18.271  0.00  0.00    +0.000 A 
ATOM      3  C   UNL     1       4.061   5.837  18.592  0.00  0.00    +0.000 A 
ATOM      4  C   UNL     1       5.146   4.999  18.822  0.00  0.00    +0.000 A 
ATOM      5  C   UNL     1       4.972   3.611  18.706  0.00  0.00    +0.000 A 
ATOM      6  C   UNL     1       3.714   3.076  18.377  0.00  0.00    +0.000 A 
ATOM      7 CL   UNL     1       3.578   1.360  18.231  0.00  0.00    +0.000 Cl
ENDROOT
BRANCH   1   8
ATOM      8  O   UNL     1       1.389   3.358  17.873  0.00  0.00    +0.000 OA
BRANCH   8   9
ATOM      9  C   UNL     1       0.762   2.699  18.974  0.00  0.00    +0.000 C 
BRANCH   9  11
ATOM     10  C   UNL     1       1.399   2.742  21.372  0.00  0.00    +0.000 C 
ATOM     11  C   UNL     1       0.773   3.546  20.237  0.00  0.00    +0.000 C 
ENDBRANCH   9  11
ENDBRANCH   8   9
ENDBRANCH   1   8
BRANCH   4  12
ATOM     12  C   UNL     1       6.483   5.607  19.172  0.00  0.00    +0.000 C 
BRANCH  12  13
ATOM     13  C   UNL     1       7.554   5.216  18.157  0.00  0.00    +0.000 C 
BRANCH  13  14
ATOM     14  C   UNL     1       7.286   5.850  16.794  0.00  0.00    +0.000 C 
BRANCH  14  15
ATOM     15  N   UNL     1       7.380   4.800  15.785  0.00  0.00    +0.000 NA
ATOM     16  C   UNL     1       6.330   4.483  15.127  0.00  0.00    +0.000 C 
ATOM     17  N   UNL     1       5.077   4.973  15.234  0.00  0.00    +0.000 N 
ATOM     18  N   UNL     1       6.431   3.569  14.140  0.00  0.00    +0.000 N 
ATOM     19  H   UNL     1       4.876   5.509  16.067  0.00  0.00    +0.000 HD
ATOM     20  H   UNL     1       4.321   4.366  14.956  0.00  0.00    +0.000 HD
ATOM     21  H   UNL     1       7.329   3.098  14.165  0.00  0.00    +0.000 HD
ATOM     22  H   UNL     1       5.656   2.939  14.003  0.00  0.00    +0.000 HD
ENDBRANCH  14  15
ENDBRANCH  13  14
ENDBRANCH  12  13
ENDBRANCH   4  12
TORSDOF 7
ENDMDL
MODEL 3
REMARK VINA RESULT:      -6.4      3.491      5.800
REMARK  Name = 
REMARK  8 active torsions:
REMARK  status: ('A' for Active; 'I' for Inactive)
REMARK    1  A    between atoms: C_1  and  C_2
REMARK    2  A    between atoms: C_2  and  C_3
REMARK    3  A    between atoms: C_3  and  O_4
REMARK    4  A    between atoms: O_4  and  C_5
REMARK    5  A    between atoms: C_8  and  C_9
REMARK    6  A    between atoms: C_9  and  C_10
REMARK    7  A    between atoms: C_10  and  C_11
REMARK    8  A    between atoms: C_11  and  N_12
REMARK                            x       y       z     vdW  Elec       q    Type
REMARK                         _______ _______ _______ _____ _____    ______ ____
ROOT
ATOM      1  C   UNL     1       5.729   5.939  17.028  0.00  0.00    +0.000 A 
ATOM      2  C   UNL     1       4.357   6.148  16.824  0.00  0.00    +0.000 A 
ATOM      3  C   UNL     1       3.435   5.962  17.851  0.00  0.00    +0.000 A 
ATOM      4  C   UNL     1       3.855   5.558  19.113  0.00  0.00    +0.000 A 
ATOM      5  C   UNL     1       5.227   5.360  19.343  0.00  0.00    +0.000 A 
ATOM      6  C   UNL     1       6.157   5.553  18.308  0.00  0.00    +0.000 A 
ATOM      7 CL   UNL     1       7.830   5.312  18.668  0.00  0.00    +0.000 Cl
ENDROOT
BRANCH   1   8
ATOM      8  O   UNL     1       6.670   6.093  16.031  0.00  0.00    +0.000 OA
BRANCH   8   9
ATOM      9  C   UNL     1       7.065   4.873  15.399  0.00  0.00    +0.000 C 
BRANCH   9  11
ATOM     10  C   UNL     1       6.161   3.801  13.352  0.00  0.00    +0.000 C 
ATOM     11  C   UNL     1       5.882   4.114  14.818  0.00  0.00    +0.000 C 
ENDBRANCH   9  11
ENDBRANCH   8   9
ENDBRANCH   1   8
BRANCH   4  12
ATOM     12  C   UNL     1       2.828   5.361  20.202  0.00  0.00    +0.000 C 
BRANCH  12  13
ATOM     13  C   UNL     1       1.787   4.319  19.801  0.00  0.00    +0.000 C 
BRANCH  13  14
ATOM     14  C   UNL     1       2.130   2.943  20.367  0.00  0.00    +0.000 C 
BRANCH  14  15
ATOM     15  N   UNL     1       2.507   2.081  19.252  0.00  0.00    +0.000 NA
ATOM     16  C   UNL     1       3.725   1.702  19.152  0.00  0.00    +0.000 C 
ATOM     17  N   UNL     1       4.778   2.004  19.940  0.00  0.00    +0.000 N 
ATOM     18  N   UNL     1       4.062   0.842  18.168  0.00  0.00    +0.000 N 
ATOM     19  H   UNL     1       4.657   2.784  20.570  0.00  0.00    +0.000 HD
ATOM     20  H   UNL     1       5.694   1.970  19.516  0.00  0.00    +0.000 HD
ATOM     21  H   UNL     1       3.309   0.741  17.495  0.00  0.00    +0.000 HD
ATOM     22  H   UNL     1       4.966   0.953  17.738  0.00  0.00    +0.000 HD
ENDBRANCH  14  15
ENDBRANCH  13  14
ENDBRANCH  12  13
ENDBRANCH   4  12
TORSDOF 7
ENDMDL
MODEL 4
REMARK VINA RESULT:      -6.3      3.739      6.168
REMARK  Name = 
REMARK  8 active torsions:
REMARK  status: ('A' for Active; 'I' for Inactive)
REMARK    1  A    between atoms: C_1  and  C_2
REMARK    2  A    between atoms: C_2  and  C_3
REMARK    3  A    between atoms: C_3  and  O_4
REMARK    4  A    between atoms: O_4  and  C_5
REMARK    5  A    between atoms: C_8  and  C_9
REMARK    6  A    between atoms: C_9  and  C_10
REMARK    7  A    between atoms: C_10  and  C_11
REMARK    8  A    between atoms: C_11  and  N_12
REMARK                            x       y       z     vdW  Elec       q    Type
REMARK                         _______ _______ _______ _____ _____    ______ ____
ROOT
ATOM      1  C   UNL     1       6.153   6.150  16.727  0.00  0.00    +0.000 A 
ATOM      2  C   UNL     1       5.215   6.238  17.767  0.00  0.00    +0.000 A 
ATOM      3  C   UNL     1       4.158   5.336  17.866  0.00  0.00    +0.000 A 
ATOM      4  C   UNL     1       4.004   4.321  16.929  0.00  0.00    +0.000 A 
ATOM      5  C   UNL     1       4.942   4.206  15.890  0.00  0.00    +0.000 A 
ATOM      6  C   UNL     1       6.011   5.112  15.793  0.00  0.00    +0.000 A 
ATOM      7 CL   UNL     1       7.140   4.898  14.501  0.00  0.00    +0.000 Cl
ENDROOT
BRANCH   1   8
ATOM      8  O   UNL     1       7.200   7.037  16.583  0.00  0.00    +0.000 OA
BRANCH   8   9
ATOM      9  C   UNL     1       7.701   7.563  17.813  0.00  0.00    +0.000 C 
BRANCH   9  11
ATOM     10  C   UNL     1       8.897   9.458  18.878  0.00  0.00    +0.000 C 
ATOM     11  C   UNL     1       7.968   9.058  17.737  0.00  0.00    +0.000 C 
ENDBRANCH   9  11
ENDBRANCH   8   9
ENDBRANCH   1   8
BRANCH   4  12
ATOM     12  C   UNL     1       2.844   3.364  17.064  0.00  0.00    +0.000 C 
BRANCH  12  13
ATOM     13  C   UNL     1       1.806   3.886  18.055  0.00  0.00    +0.000 C 
BRANCH  13  14
ATOM     14  C   UNL     1       1.114   2.741  18.789  0.00  0.00    +0.000 C 
BRANCH  14  15
ATOM     15  N   UNL     1       1.097   3.065  20.211  0.00  0.00    +0.000 NA
ATOM     16  C   UNL     1       2.167   2.902  20.892  0.00  0.00    +0.000 C 
ATOM     17  N   UNL     1       3.368   2.434  20.493  0.00  0.00    +0.000 N 
ATOM     18  N   UNL     1       2.178   3.274  22.189  0.00  0.00    +0.000 N 
ATOM     19  H   UNL     1       3.389   1.956  19.603  0.00  0.00    +0.000 HD
ATOM     20  H   UNL     1       3.948   1.998  21.194  0.00  0.00    +0.000 HD
ATOM     21  H   UNL     1       1.241   3.479  22.520  0.00  0.00    +0.000 HD
ATOM     22  H   UNL     1       2.712   2.714  22.834  0.00  0.00    +0.000 HD
ENDBRANCH  14  15
ENDBRANCH  13  14
ENDBRANCH  12  13
ENDBRANCH   4  12
TORSDOF 7
ENDMDL
MODEL 5
REMARK VINA RESULT:      -6.3      3.010      5.439
REMARK  Name = 
REMARK  8 active torsions:
REMARK  status: ('A' for Active; 'I' for Inactive)
REMARK    1  A    between atoms: C_1  and  C_2
REMARK    2  A    between atoms: C_2  and  C_3
REMARK    3  A    between atoms: C_3  and  O_4
REMARK    4  A    between atoms: O_4  and  C_5
REMARK    5  A    between atoms: C_8  and  C_9
REMARK    6  A    between atoms: C_9  and  C_10
REMARK    7  A    between atoms: C_10  and  C_11
REMARK    8  A    between atoms: C_11  and  N_12
REMARK                            x       y       z     vdW  Elec       q    Type
REMARK                         _______ _______ _______ _____ _____    ______ ____
ROOT
ATOM      1  C   UNL     1       4.959   6.214  16.716  0.00  0.00    +0.000 A 
ATOM      2  C   UNL     1       4.039   6.830  17.577  0.00  0.00    +0.000 A 
ATOM      3  C   UNL     1       2.949   6.131  18.092  0.00  0.00    +0.000 A 
ATOM      4  C   UNL     1       2.744   4.797  17.759  0.00  0.00    +0.000 A 
ATOM      5  C   UNL     1       3.664   4.157  16.912  0.00  0.00    +0.000 A 
ATOM      6  C   UNL     1       4.766   4.861  16.398  0.00  0.00    +0.000 A 
ATOM      7 CL   UNL     1       5.869   4.004  15.379  0.00  0.00    +0.000 Cl
ENDROOT
BRANCH   1   8
ATOM      8  O   UNL     1       6.038   6.878  16.170  0.00  0.00    +0.000 OA
BRANCH   8   9
ATOM      9  C   UNL     1       7.307   6.461  16.678  0.00  0.00    +0.000 C 
BRANCH   9  11
ATOM     10  C   UNL     1       7.790   5.934  19.055  0.00  0.00    +0.000 C 
ATOM     11  C   UNL     1       7.609   7.061  18.042  0.00  0.00    +0.000 C 
ENDBRANCH   9  11
ENDBRANCH   8   9
ENDBRANCH   1   8
BRANCH   4  12
ATOM     12  C   UNL     1       1.550   4.072  18.331  0.00  0.00    +0.000 C 
BRANCH  12  13
ATOM     13  C   UNL     1       1.544   4.128  19.857  0.00  0.00    +0.000 C 
BRANCH  13  14
ATOM     14  C   UNL     1       2.035   2.815  20.463  0.00  0.00    +0.000 C 
BRANCH  14  15
ATOM     15  N   UNL     1       2.449   1.944  19.369  0.00  0.00    +0.000 NA
ATOM     16  C   UNL     1       3.690   1.659  19.245  0.00  0.00    +0.000 C 
ATOM     17  N   UNL     1       4.737   2.073  19.988  0.00  0.00    +0.000 N 
ATOM     18  N   UNL     1       4.067   0.791  18.282  0.00  0.00    +0.000 N 
ATOM     19  H   UNL     1       4.572   2.865  20.594  0.00  0.00    +0.000 HD
ATOM     20  H   UNL     1       5.641   2.096  19.538  0.00  0.00    +0.000 HD
ATOM     21  H   UNL     1       3.307   0.605  17.637  0.00  0.00    +0.000 HD
ATOM     22  H   UNL     1       4.947   0.957  17.821  0.00  0.00    +0.000 HD
ENDBRANCH  14  15
ENDBRANCH  13  14
ENDBRANCH  12  13
ENDBRANCH   4  12
TORSDOF 7
ENDMDL
MODEL 6
REMARK VINA RESULT:      -6.3      3.083      5.320
REMARK  Name = 
REMARK  8 active torsions:
REMARK  status: ('A' for Active; 'I' for Inactive)
REMARK    1  A    between atoms: C_1  and  C_2
REMARK    2  A    between atoms: C_2  and  C_3
REMARK    3  A    between atoms: C_3  and  O_4
REMARK    4  A    between atoms: O_4  and  C_5
REMARK    5  A    between atoms: C_8  and  C_9
REMARK    6  A    between atoms: C_9  and  C_10
REMARK    7  A    between atoms: C_10  and  C_11
REMARK    8  A    between atoms: C_11  and  N_12
REMARK                            x       y       z     vdW  Elec       q    Type
REMARK                         _______ _______ _______ _____ _____    ______ ____
ROOT
ATOM      1  C   UNL     1       5.450   6.241  16.782  0.00  0.00    +0.000 A 
ATOM      2  C   UNL     1       4.363   6.667  17.560  0.00  0.00    +0.000 A 
ATOM      3  C   UNL     1       3.247   5.856  17.751  0.00  0.00    +0.000 A 
ATOM      4  C   UNL     1       3.182   4.595  17.169  0.00  0.00    +0.000 A 
ATOM      5  C   UNL     1       4.267   4.143  16.401  0.00  0.00    +0.000 A 
ATOM      6  C   UNL     1       5.395   4.959  16.212  0.00  0.00    +0.000 A 
ATOM      7 CL   UNL     1       6.702   4.330  15.273  0.00  0.00    +0.000 Cl
ENDROOT
BRANCH   1   8
ATOM      8  O   UNL     1       6.562   7.024  16.552  0.00  0.00    +0.000 OA
BRANCH   8   9
ATOM      9  C   UNL     1       7.398   7.212  17.696  0.00  0.00    +0.000 C 
BRANCH   9  11
ATOM     10  C   UNL     1       7.432   5.682  19.649  0.00  0.00    +0.000 C 
ATOM     11  C   UNL     1       7.950   5.900  18.232  0.00  0.00    +0.000 C 
ENDBRANCH   9  11
ENDBRANCH   8   9
ENDBRANCH   1   8
BRANCH   4  12
ATOM     12  C   UNL     1       1.955   3.744  17.392  0.00  0.00    +0.000 C 
BRANCH  12  13
ATOM     13  C   UNL     1       1.494   3.806  18.847  0.00  0.00    +0.000 C 
BRANCH  13  14
ATOM     14  C   UNL     1       1.694   2.466  19.551  0.00  0.00    +0.000 C 
BRANCH  14  15
ATOM     15  N   UNL     1       3.033   2.459  20.129  0.00  0.00    +0.000 NA
ATOM     16  C   UNL     1       3.938   1.743  19.576  0.00  0.00    +0.000 C 
ATOM     17  N   UNL     1       3.845   0.934  18.500  0.00  0.00    +0.000 N 
ATOM     18  N   UNL     1       5.196   1.794  20.061  0.00  0.00    +0.000 N 
ATOM     19  H   UNL     1       2.910   0.690  18.203  0.00  0.00    +0.000 HD
ATOM     20  H   UNL     1       4.496   0.165  18.445  0.00  0.00    +0.000 HD
ATOM     21  H   UNL     1       5.227   2.277  20.952  0.00  0.00    +0.000 HD
ATOM     22  H   UNL     1       5.737   0.944  20.052  0.00  0.00    +0.000 HD
ENDBRANCH  14  15
ENDBRANCH  13  14
ENDBRANCH  12  13
ENDBRANCH   4  12
TORSDOF 7
ENDMDL
MODEL 7
REMARK VINA RESULT:      -6.3      3.177      3.925
REMARK  Name = 
REMARK  8 active torsions:
REMARK  status: ('A' for Active; 'I' for Inactive)
REMARK    1  A    between atoms: C_1  and  C_2
REMARK    2  A    between atoms: C_2  and  C_3
REMARK    3  A    between atoms: C_3  and  O_4
REMARK    4  A    between atoms: O_4  and  C_5
REMARK    5  A    between atoms: C_8  and  C_9
REMARK    6  A    between atoms: C_9  and  C_10
REMARK    7  A    between atoms: C_10  and  C_11
REMARK    8  A    between atoms: C_11  and  N_12
REMARK                            x       y       z     vdW  Elec       q    Type
REMARK                         _______ _______ _______ _____ _____    ______ ____
ROOT
ATOM      1  C   UNL     1       2.313   4.617  18.282  0.00  0.00    +0.000 A 
ATOM      2  C   UNL     1       2.843   5.908  18.130  0.00  0.00    +0.000 A 
ATOM      3  C   UNL     1       4.041   6.123  17.453  0.00  0.00    +0.000 A 
ATOM      4  C   UNL     1       4.747   5.056  16.910  0.00  0.00    +0.000 A 
ATOM      5  C   UNL     1       4.225   3.759  17.036  0.00  0.00    +0.000 A 
ATOM      6  C   UNL     1       3.014   3.542  17.715  0.00  0.00    +0.000 A 
ATOM      7 CL   UNL     1       2.420   1.922  17.813  0.00  0.00    +0.000 Cl
ENDROOT
BRANCH   1   8
ATOM      8  O   UNL     1       1.141   4.361  18.963  0.00  0.00    +0.000 OA
BRANCH   8   9
ATOM      9  C   UNL     1       1.253   4.450  20.385  0.00  0.00    +0.000 C 
BRANCH   9  11
ATOM     10  C   UNL     1       2.612   2.718  21.530  0.00  0.00    +0.000 C 
ATOM     11  C   UNL     1       1.210   3.085  21.055  0.00  0.00    +0.000 C 
ENDBRANCH   9  11
ENDBRANCH   8   9
ENDBRANCH   1   8
BRANCH   4  12
ATOM     12  C   UNL     1       6.045   5.325  16.187  0.00  0.00    +0.000 C 
BRANCH  12  13
ATOM     13  C   UNL     1       6.488   4.112  15.372  0.00  0.00    +0.000 C 
BRANCH  13  14
ATOM     14  C   UNL     1       6.762   4.490  13.918  0.00  0.00    +0.000 C 
BRANCH  14  15
ATOM     15  N   UNL     1       5.593   4.115  13.130  0.00  0.00    +0.000 NA
ATOM     16  C   UNL     1       5.724   3.223  12.222  0.00  0.00    +0.000 C 
ATOM     17  N   UNL     1       6.831   2.552  11.840  0.00  0.00    +0.000 N 
ATOM     18  N   UNL     1       4.630   2.817  11.544  0.00  0.00    +0.000 N 
ATOM     19  H   UNL     1       7.714   2.929  12.154  0.00  0.00    +0.000 HD
ATOM     20  H   UNL     1       6.857   2.210  10.891  0.00  0.00    +0.000 HD
ATOM     21  H   UNL     1       3.839   3.426  11.725  0.00  0.00    +0.000 HD
ATOM     22  H   UNL     1       4.740   2.590  10.569  0.00  0.00    +0.000 HD
ENDBRANCH  14  15
ENDBRANCH  13  14
ENDBRANCH  12  13
ENDBRANCH   4  12
TORSDOF 7
ENDMDL
MODEL 8
REMARK VINA RESULT:      -6.3      3.244      5.636
REMARK  Name = 
REMARK  8 active torsions:
REMARK  status: ('A' for Active; 'I' for Inactive)
REMARK    1  A    between atoms: C_1  and  C_2
REMARK    2  A    between atoms: C_2  and  C_3
REMARK    3  A    between atoms: C_3  and  O_4
REMARK    4  A    between atoms: O_4  and  C_5
REMARK    5  A    between atoms: C_8  and  C_9
REMARK    6  A    between atoms: C_9  and  C_10
REMARK    7  A    between atoms: C_10  and  C_11
REMARK    8  A    between atoms: C_11  and  N_12
REMARK                            x       y       z     vdW  Elec       q    Type
REMARK                         _______ _______ _______ _____ _____    ______ ____
ROOT
ATOM      1  C   UNL     1       4.775   6.507  17.531  0.00  0.00    +0.000 A 
ATOM      2  C   UNL     1       3.421   6.873  17.483  0.00  0.00    +0.000 A 
ATOM      3  C   UNL     1       2.525   6.467  18.469  0.00  0.00    +0.000 A 
ATOM      4  C   UNL     1       2.954   5.681  19.532  0.00  0.00    +0.000 A 
ATOM      5  C   UNL     1       4.308   5.318  19.609  0.00  0.00    +0.000 A 
ATOM      6  C   UNL     1       5.213   5.732  18.617  0.00  0.00    +0.000 A 
ATOM      7 CL   UNL     1       6.869   5.267  18.786  0.00  0.00    +0.000 Cl
ENDROOT
BRANCH   1   8
ATOM      8  O   UNL     1       5.688   6.872  16.563  0.00  0.00    +0.000 OA
BRANCH   8   9
ATOM      9  C   UNL     1       5.332   6.475  15.238  0.00  0.00    +0.000 C 
BRANCH   9  11
ATOM     10  C   UNL     1       7.026   4.663  15.187  0.00  0.00    +0.000 C 
ATOM     11  C   UNL     1       5.548   4.989  15.001  0.00  0.00    +0.000 C 
ENDBRANCH   9  11
ENDBRANCH   8   9
ENDBRANCH   1   8
BRANCH   4  12
ATOM     12  C   UNL     1       1.955   5.255  20.581  0.00  0.00    +0.000 C 
BRANCH  12  13
ATOM     13  C   UNL     1       1.290   3.931  20.209  0.00  0.00    +0.000 C 
BRANCH  13  14
ATOM     14  C   UNL     1       2.169   2.742  20.591  0.00  0.00    +0.000 C 
BRANCH  14  15
ATOM     15  N   UNL     1       2.495   2.016  19.369  0.00  0.00    +0.000 NA
ATOM     16  C   UNL     1       3.711   1.676  19.161  0.00  0.00    +0.000 C 
ATOM     17  N   UNL     1       4.802   1.912  19.919  0.00  0.00    +0.000 N 
ATOM     18  N   UNL     1       4.004   0.937  18.071  0.00  0.00    +0.000 N 
ATOM     19  H   UNL     1       4.705   2.615  20.638  0.00  0.00    +0.000 HD
ATOM     20  H   UNL     1       5.693   1.944  19.445  0.00  0.00    +0.000 HD
ATOM     21  H   UNL     1       3.217   0.894  17.433  0.00  0.00    +0.000 HD
ATOM     22  H   UNL     1       4.881   1.113  17.607  0.00  0.00    +0.000 HD
ENDBRANCH  14  15
ENDBRANCH  13  14
ENDBRANCH  12  13
ENDBRANCH   4  12
TORSDOF 7
ENDMDL
MODEL 9
REMARK VINA RESULT:      -6.2      3.747      6.150
REMARK  Name = 
REMARK  8 active torsions:
REMARK  status: ('A' for Active; 'I' for Inactive)
REMARK    1  A    between atoms: C_1  and  C_2
REMARK    2  A    between atoms: C_2  and  C_3
REMARK    3  A    between atoms: C_3  and  O_4
REMARK    4  A    between atoms: O_4  and  C_5
REMARK    5  A    between atoms: C_8  and  C_9
REMARK    6  A    between atoms: C_9  and  C_10
REMARK    7  A    between atoms: C_10  and  C_11
REMARK    8  A    between atoms: C_11  and  N_12
REMARK                            x       y       z     vdW  Elec       q    Type
REMARK                         _______ _______ _______ _____ _____    ______ ____
ROOT
ATOM      1  C   UNL     1       6.467   5.106  17.275  0.00  0.00    +0.000 A 
ATOM      2  C   UNL     1       5.732   4.950  18.460  0.00  0.00    +0.000 A 
ATOM      3  C   UNL     1       4.511   4.280  18.471  0.00  0.00    +0.000 A 
ATOM      4  C   UNL     1       3.987   3.746  17.300  0.00  0.00    +0.000 A 
ATOM      5  C   UNL     1       4.716   3.876  16.106  0.00  0.00    +0.000 A 
ATOM      6  C   UNL     1       5.949   4.549  16.096  0.00  0.00    +0.000 A 
ATOM      7 CL   UNL     1       6.802   4.652  14.596  0.00  0.00    +0.000 Cl
ENDROOT
BRANCH   1   8
ATOM      8  O   UNL     1       7.669   5.782  17.220  0.00  0.00    +0.000 OA
BRANCH   8   9
ATOM      9  C   UNL     1       7.546   7.205  17.213  0.00  0.00    +0.000 C 
BRANCH   9  11
ATOM     10  C   UNL     1       8.400   9.343  18.139  0.00  0.00    +0.000 C 
ATOM     11  C   UNL     1       8.236   7.851  18.405  0.00  0.00    +0.000 C 
ENDBRANCH   9  11
ENDBRANCH   8   9
ENDBRANCH   1   8
BRANCH   4  12
ATOM     12  C   UNL     1       2.659   3.030  17.347  0.00  0.00    +0.000 C 
BRANCH  12  13
ATOM     13  C   UNL     1       2.596   2.053  18.520  0.00  0.00    +0.000 C 
BRANCH  13  14
ATOM     14  C   UNL     1       1.400   2.345  19.422  0.00  0.00    +0.000 C 
BRANCH  14  15
ATOM     15  N   UNL     1       1.422   3.766  19.751  0.00  0.00    +0.000 NA
ATOM     16  C   UNL     1       1.815   4.122  20.915  0.00  0.00    +0.000 C 
ATOM     17  N   UNL     1       2.213   3.355  21.951  0.00  0.00    +0.000 N 
ATOM     18  N   UNL     1       1.911   5.439  21.196  0.00  0.00    +0.000 N 
ATOM     19  H   UNL     1       1.988   2.372  21.894  0.00  0.00    +0.000 HD
ATOM     20  H   UNL     1       2.098   3.738  22.878  0.00  0.00    +0.000 HD
ATOM     21  H   UNL     1       1.469   6.001  20.477  0.00  0.00    +0.000 HD
ATOM     22  H   UNL     1       1.679   5.736  22.131  0.00  0.00    +0.000 HD
ENDBRANCH  14  15
ENDBRANCH  13  14
ENDBRANCH  12  13
ENDBRANCH   4  12
TORSDOF 7
ENDMDL
