MODEL 1
REMARK VINA RESULT:      -7.2      0.000      0.000
REMARK  Name = 
REMARK  8 active torsions:
REMARK  status: ('A' for Active; 'I' for Inactive)
REMARK    1  A    between atoms: C_1  and  N_2
REMARK    2  A    between atoms: N_2  and  C_3
REMARK    3  A    between atoms: N_2  and  C_4
REMARK    4  A    between atoms: C_4  and  C_5
REMARK    5  A    between atoms: C_10  and  C_11
REMARK    6  A    between atoms: C_16  and  N_17
REMARK    7  A    between atoms: N_17  and  C_18
REMARK    8  A    between atoms: C_18  and  C_19
REMARK                            x       y       z     vdW  Elec       q    Type
REMARK                         _______ _______ _______ _____ _____    ______ ____
ROOT
ATOM      1  C   UNL     1       5.300   4.370  18.530  0.00  0.00    +0.000 A 
ATOM      2  C   UNL     1       5.862   5.045  19.609  0.00  0.00    +0.000 A 
ATOM      3  N   UNL     1       7.088   5.615  19.653  0.00  0.00    +0.000 NA
ATOM      4  C   UNL     1       7.810   5.477  18.546  0.00  0.00    +0.000 A 
ATOM      5  N   UNL     1       7.445   4.790  17.462  0.00  0.00    +0.000 NA
ATOM      6  C   UNL     1       6.211   4.229  17.459  0.00  0.00    +0.000 A 
ENDROOT
BRANCH   1  12
ATOM      7  C   UNL     1       2.722   4.527  18.140  0.00  0.00    +0.000 A 
ATOM      8  C   UNL     1       1.471   3.852  18.108  0.00  0.00    +0.000 A 
ATOM      9  C   UNL     1       1.346   2.516  18.466  0.00  0.00    +0.000 A 
ATOM     10  C   UNL     1       2.458   1.836  18.922  0.00  0.00    +0.000 A 
ATOM     11  C   UNL     1       3.690   2.492  18.996  0.00  0.00    +0.000 A 
ATOM     12  C   UNL     1       3.895   3.824  18.557  0.00  0.00    +0.000 A 
BRANCH   7  13
ATOM     13  C   UNL     1       2.655   5.995  17.730  0.00  0.00    +0.000 C 
BRANCH  13  15
ATOM     14  C   UNL     1       2.315   8.272  18.486  0.00  0.00    +0.000 C 
ATOM     15  N   UNL     1       2.823   6.945  18.835  0.00  0.00    +0.000 NA
ATOM     16  C   UNL     1       2.156   6.450  20.041  0.00  0.00    +0.000 C 
ENDBRANCH  13  15
ENDBRANCH   7  13
ENDBRANCH   1  12
BRANCH   6  17
ATOM     17  N   UNL     1       5.900   3.436  16.345  0.00  0.00    +0.000 N 
ATOM     18  H   UNL     1       5.425   2.584  16.631  0.00  0.00    +0.000 HD
BRANCH  17  19
ATOM     19  C   UNL     1       5.275   4.101  15.209  0.00  0.00    +0.000 C 
BRANCH  19  20
ATOM     20  C   UNL     1       6.174   4.295  14.009  0.00  0.00    +0.000 A 
ATOM     21  C   UNL     1       7.257   5.152  13.904  0.00  0.00    +0.000 A 
ATOM     22  C   UNL     1       7.871   5.108  12.620  0.00  0.00    +0.000 A 
ATOM     23  C   UNL     1       7.244   4.212  11.785  0.00  0.00    +0.000 A 
ATOM     24  S   UNL     1       5.917   3.443  12.544  0.00  0.00    +0.000 S 
ENDBRANCH  19  20
ENDBRANCH  17  19
ENDBRANCH   6  17
TORSDOF 6
ENDMDL
MODEL 2
REMARK VINA RESULT:      -7.1      0.770      1.204
REMARK  Name = 
REMARK  8 active torsions:
REMARK  status: ('A' for Active; 'I' for Inactive)
REMARK    1  A    between atoms: C_1  and  N_2
REMARK    2  A    between atoms: N_2  and  C_3
REMARK    3  A    between atoms: N_2  and  C_4
REMARK    4  A    between atoms: C_4  and  C_5
REMARK    5  A    between atoms: C_10  and  C_11
REMARK    6  A    between atoms: C_16  and  N_17
REMARK    7  A    between atoms: N_17  and  C_18
REMARK    8  A    between atoms: C_18  and  C_19
REMARK                            x       y       z     vdW  Elec       q    Type
REMARK                         _______ _______ _______ _____ _____    ______ ____
ROOT
ATOM      1  C   UNL     1       5.450   4.517  18.544  0.00  0.00    +0.000 A 
ATOM      2  C   UNL     1       6.034   5.111  19.658  0.00  0.00    +0.000 A 
ATOM      3  N   UNL     1       7.306   5.559  19.759  0.00  0.00    +0.000 NA
ATOM      4  C   UNL     1       8.052   5.374  18.675  0.00  0.00    +0.000 A 
ATOM      5  N   UNL     1       7.665   4.748  17.563  0.00  0.00    +0.000 NA
ATOM      6  C   UNL     1       6.383   4.310  17.502  0.00  0.00    +0.000 A 
ENDROOT
BRANCH   1  12
ATOM      7  C   UNL     1       2.920   4.918  18.033  0.00  0.00    +0.000 A 
ATOM      8  C   UNL     1       1.612   4.367  17.946  0.00  0.00    +0.000 A 
ATOM      9  C   UNL     1       1.342   3.054  18.305  0.00  0.00    +0.000 A 
ATOM     10  C   UNL     1       2.360   2.273  18.816  0.00  0.00    +0.000 A 
ATOM     11  C   UNL     1       3.646   2.808  18.945  0.00  0.00    +0.000 A 
ATOM     12  C   UNL     1       3.999   4.110  18.509  0.00  0.00    +0.000 A 
BRANCH   7  13
ATOM     13  C   UNL     1       3.015   6.382  17.612  0.00  0.00    +0.000 C 
BRANCH  13  15
ATOM     14  C   UNL     1       2.352   7.199  19.795  0.00  0.00    +0.000 C 
ATOM     15  N   UNL     1       2.129   7.288  18.351  0.00  0.00    +0.000 NA
ATOM     16  C   UNL     1       2.311   8.667  17.896  0.00  0.00    +0.000 C 
ENDBRANCH  13  15
ENDBRANCH   7  13
ENDBRANCH   1  12
BRANCH   6  17
ATOM     17  N   UNL     1       6.038   3.575  16.359  0.00  0.00    +0.000 N 
ATOM     18  H   UNL     1       5.569   2.711  16.615  0.00  0.00    +0.000 HD
BRANCH  17  19
ATOM     19  C   UNL     1       5.385   4.297  15.275  0.00  0.00    +0.000 C 
BRANCH  19  20
ATOM     20  C   UNL     1       6.060   4.175  13.928  0.00  0.00    +0.000 A 
ATOM     21  C   UNL     1       5.674   3.372  12.868  0.00  0.00    +0.000 A 
ATOM     22  C   UNL     1       6.550   3.477  11.750  0.00  0.00    +0.000 A 
ATOM     23  C   UNL     1       7.575   4.363  11.987  0.00  0.00    +0.000 A 
ATOM     24  S   UNL     1       7.485   5.051  13.552  0.00  0.00    +0.000 S 
ENDBRANCH  19  20
ENDBRANCH  17  19
ENDBRANCH   6  17
TORSDOF 6
ENDMDL
MODEL 3
REMARK VINA RESULT:      -6.9      2.452      6.192
REMARK  Name = 
REMARK  8 active torsions:
REMARK  status: ('A' for Active; 'I' for Inactive)
REMARK    1  A    between atoms: C_1  and  N_2
REMARK    2  A    between atoms: N_2  and  C_3
REMARK    3  A    between atoms: N_2  and  C_4
REMARK    4  A    between atoms: C_4  and  C_5
REMARK    5  A    between atoms: C_10  and  C_11
REMARK    6  A    between atoms: C_16  and  N_17
REMARK    7  A    between atoms: N_17  and  C_18
REMARK    8  A    between atoms: C_18  and  C_19
REMARK                            x       y       z     vdW  Elec       q    Type
REMARK                         _______ _______ _______ _____ _____    ______ ____
ROOT
ATOM      1  C   UNL     1       4.461   3.744  17.680  0.00  0.00    +0.000 A 
ATOM      2  C   UNL     1       4.217   2.416  18.013  0.00  0.00    +0.000 A 
ATOM      3  N   UNL     1       3.449   1.968  19.032  0.00  0.00    +0.000 NA
ATOM      4  C   UNL     1       2.909   2.920  19.786  0.00  0.00    +0.000 A 
ATOM      5  N   UNL     1       3.114   4.231  19.647  0.00  0.00    +0.000 NA
ATOM      6  C   UNL     1       3.894   4.639  18.615  0.00  0.00    +0.000 A 
ENDROOT
BRANCH   1  12
ATOM      7  C   UNL     1       6.673   4.476  16.498  0.00  0.00    +0.000 A 
ATOM      8  C   UNL     1       7.354   4.719  15.274  0.00  0.00    +0.000 A 
ATOM      9  C   UNL     1       6.712   4.637  14.045  0.00  0.00    +0.000 A 
ATOM     10  C   UNL     1       5.358   4.367  14.011  0.00  0.00    +0.000 A 
ATOM     11  C   UNL     1       4.662   4.161  15.206  0.00  0.00    +0.000 A 
ATOM     12  C   UNL     1       5.283   4.142  16.480  0.00  0.00    +0.000 A 
BRANCH   7  13
ATOM     13  C   UNL     1       7.541   4.632  17.743  0.00  0.00    +0.000 C 
BRANCH  13  15
ATOM     14  C   UNL     1       7.810   5.694  19.904  0.00  0.00    +0.000 C 
ATOM     15  N   UNL     1       7.211   5.796  18.573  0.00  0.00    +0.000 NA
ATOM     16  C   UNL     1       7.644   7.031  17.918  0.00  0.00    +0.000 C 
ENDBRANCH  13  15
ENDBRANCH   7  13
ENDBRANCH   1  12
BRANCH   6  17
ATOM     17  N   UNL     1       4.165   6.014  18.557  0.00  0.00    +0.000 N 
ATOM     18  H   UNL     1       5.136   6.179  18.310  0.00  0.00    +0.000 HD
BRANCH  17  19
ATOM     19  C   UNL     1       3.224   6.846  17.818  0.00  0.00    +0.000 C 
BRANCH  19  20
ATOM     20  C   UNL     1       2.389   7.776  18.669  0.00  0.00    +0.000 A 
ATOM     21  C   UNL     1       2.014   7.593  19.989  0.00  0.00    +0.000 A 
ATOM     22  C   UNL     1       1.202   8.653  20.483  0.00  0.00    +0.000 A 
ATOM     23  C   UNL     1       0.988   9.619  19.528  0.00  0.00    +0.000 A 
ATOM     24  S   UNL     1       1.751   9.239  18.044  0.00  0.00    +0.000 S 
ENDBRANCH  19  20
ENDBRANCH  17  19
ENDBRANCH   6  17
TORSDOF 6
ENDMDL
MODEL 4
REMARK VINA RESULT:      -6.9      2.783      6.660
REMARK  Name = 
REMARK  8 active torsions:
REMARK  status: ('A' for Active; 'I' for Inactive)
REMARK    1  A    between atoms: C_1  and  N_2
REMARK    2  A    between atoms: N_2  and  C_3
REMARK    3  A    between atoms: N_2  and  C_4
REMARK    4  A    between atoms: C_4  and  C_5
REMARK    5  A    between atoms: C_10  and  C_11
REMARK    6  A    between atoms: C_16  and  N_17
REMARK    7  A    between atoms: N_17  and  C_18
REMARK    8  A    between atoms: C_18  and  C_19
REMARK                            x       y       z     vdW  Elec       q    Type
REMARK                         _______ _______ _______ _____ _____    ______ ____
ROOT
ATOM      1  C   UNL     1       4.154   4.149  18.016  0.00  0.00    +0.000 A 
ATOM      2  C   UNL     1       4.091   2.762  18.104  0.00  0.00    +0.000 A 
ATOM      3  N   UNL     1       2.975   2.000  18.046  0.00  0.00    +0.000 NA
ATOM      4  C   UNL     1       1.841   2.679  17.915  0.00  0.00    +0.000 A 
ATOM      5  N   UNL     1       1.728   4.008  17.899  0.00  0.00    +0.000 NA
ATOM      6  C   UNL     1       2.870   4.737  17.965  0.00  0.00    +0.000 A 
ENDROOT
BRANCH   1  12
ATOM      7  C   UNL     1       6.055   5.549  16.898  0.00  0.00    +0.000 A 
ATOM      8  C   UNL     1       7.232   6.328  17.073  0.00  0.00    +0.000 A 
ATOM      9  C   UNL     1       7.827   6.493  18.316  0.00  0.00    +0.000 A 
ATOM     10  C   UNL     1       7.296   5.835  19.408  0.00  0.00    +0.000 A 
ATOM     11  C   UNL     1       6.161   5.034  19.251  0.00  0.00    +0.000 A 
ATOM     12  C   UNL     1       5.459   4.904  18.026  0.00  0.00    +0.000 A 
BRANCH   7  13
ATOM     13  C   UNL     1       5.561   5.470  15.456  0.00  0.00    +0.000 C 
BRANCH  13  15
ATOM     14  C   UNL     1       5.298   3.823  13.699  0.00  0.00    +0.000 C 
ATOM     15  N   UNL     1       6.227   4.451  14.638  0.00  0.00    +0.000 NA
ATOM     16  C   UNL     1       7.359   5.033  13.916  0.00  0.00    +0.000 C 
ENDBRANCH  13  15
ENDBRANCH   7  13
ENDBRANCH   1  12
BRANCH   6  17
ATOM     17  N   UNL     1       2.708   6.127  18.042  0.00  0.00    +0.000 N 
ATOM     18  H   UNL     1       2.029   6.448  17.357  0.00  0.00    +0.000 HD
BRANCH  17  19
ATOM     19  C   UNL     1       2.519   6.703  19.367  0.00  0.00    +0.000 C 
BRANCH  19  20
ATOM     20  C   UNL     1       1.861   8.064  19.385  0.00  0.00    +0.000 A 
ATOM     21  C   UNL     1       1.768   8.963  18.335  0.00  0.00    +0.000 A 
ATOM     22  C   UNL     1       1.105  10.168  18.700  0.00  0.00    +0.000 A 
ATOM     23  C   UNL     1       0.703  10.151  20.016  0.00  0.00    +0.000 A 
ATOM     24  S   UNL     1       1.137   8.695  20.805  0.00  0.00    +0.000 S 
ENDBRANCH  19  20
ENDBRANCH  17  19
ENDBRANCH   6  17
TORSDOF 6
ENDMDL
MODEL 5
REMARK VINA RESULT:      -6.7      0.953      1.126
REMARK  Name = 
REMARK  8 active torsions:
REMARK  status: ('A' for Active; 'I' for Inactive)
REMARK    1  A    between atoms: C_1  and  N_2
REMARK    2  A    between atoms: N_2  and  C_3
REMARK    3  A    between atoms: N_2  and  C_4
REMARK    4  A    between atoms: C_4  and  C_5
REMARK    5  A    between atoms: C_10  and  C_11
REMARK    6  A    between atoms: C_16  and  N_17
REMARK    7  A    between atoms: N_17  and  C_18
REMARK    8  A    between atoms: C_18  and  C_19
REMARK                            x       y       z     vdW  Elec       q    Type
REMARK                         _______ _______ _______ _____ _____    ______ ____
ROOT
ATOM      1  C   UNL     1       5.232   4.814  18.446  0.00  0.00    +0.000 A 
ATOM      2  C   UNL     1       6.013   4.957  19.588  0.00  0.00    +0.000 A 
ATOM      3  N   UNL     1       7.186   5.623  19.684  0.00  0.00    +0.000 NA
ATOM      4  C   UNL     1       7.619   6.160  18.548  0.00  0.00    +0.000 A 
ATOM      5  N   UNL     1       7.029   6.040  17.358  0.00  0.00    +0.000 NA
ATOM      6  C   UNL     1       5.857   5.361  17.303  0.00  0.00    +0.000 A 
ENDROOT
BRANCH   1  12
ATOM      7  C   UNL     1       2.625   4.731  18.303  0.00  0.00    +0.000 A 
ATOM      8  C   UNL     1       1.454   3.930  18.215  0.00  0.00    +0.000 A 
ATOM      9  C   UNL     1       1.504   2.544  18.268  0.00  0.00    +0.000 A 
ATOM     10  C   UNL     1       2.722   1.923  18.470  0.00  0.00    +0.000 A 
ATOM     11  C   UNL     1       3.881   2.695  18.596  0.00  0.00    +0.000 A 
ATOM     12  C   UNL     1       3.900   4.105  18.458  0.00  0.00    +0.000 A 
BRANCH   7  13
ATOM     13  C   UNL     1       2.365   6.234  18.244  0.00  0.00    +0.000 C 
BRANCH  13  15
ATOM     14  C   UNL     1       1.883   8.261  19.482  0.00  0.00    +0.000 C 
ATOM     15  N   UNL     1       2.469   6.921  19.536  0.00  0.00    +0.000 NA
ATOM     16  C   UNL     1       1.827   6.133  20.589  0.00  0.00    +0.000 C 
ENDBRANCH  13  15
ENDBRANCH   7  13
ENDBRANCH   1  12
BRANCH   6  17
ATOM     17  N   UNL     1       5.315   5.174  16.023  0.00  0.00    +0.000 N 
ATOM     18  H   UNL     1       5.499   5.980  15.433  0.00  0.00    +0.000 HD
BRANCH  17  19
ATOM     19  C   UNL     1       5.576   3.898  15.371  0.00  0.00    +0.000 C 
BRANCH  19  20
ATOM     20  C   UNL     1       6.152   4.000  13.976  0.00  0.00    +0.000 A 
ATOM     21  C   UNL     1       5.733   3.319  12.845  0.00  0.00    +0.000 A 
ATOM     22  C   UNL     1       6.513   3.630  11.695  0.00  0.00    +0.000 A 
ATOM     23  C   UNL     1       7.498   4.546  11.980  0.00  0.00    +0.000 A 
ATOM     24  S   UNL     1       7.489   5.015  13.626  0.00  0.00    +0.000 S 
ENDBRANCH  19  20
ENDBRANCH  17  19
ENDBRANCH   6  17
TORSDOF 6
ENDMDL
MODEL 6
REMARK VINA RESULT:      -6.7      2.735      6.337
REMARK  Name = 
REMARK  8 active torsions:
REMARK  status: ('A' for Active; 'I' for Inactive)
REMARK    1  A    between atoms: C_1  and  N_2
REMARK    2  A    between atoms: N_2  and  C_3
REMARK    3  A    between atoms: N_2  and  C_4
REMARK    4  A    between atoms: C_4  and  C_5
REMARK    5  A    between atoms: C_10  and  C_11
REMARK    6  A    between atoms: C_16  and  N_17
REMARK    7  A    between atoms: N_17  and  C_18
REMARK    8  A    between atoms: C_18  and  C_19
REMARK                            x       y       z     vdW  Elec       q    Type
REMARK                         _______ _______ _______ _____ _____    ______ ____
ROOT
ATOM      1  C   UNL     1       3.801   3.671  17.452  0.00  0.00    +0.000 A 
ATOM      2  C   UNL     1       3.750   2.359  17.910  0.00  0.00    +0.000 A 
ATOM      3  N   UNL     1       2.781   1.810  18.677  0.00  0.00    +0.000 NA
ATOM      4  C   UNL     1       1.808   2.643  19.031  0.00  0.00    +0.000 A 
ATOM      5  N   UNL     1       1.756   3.944  18.742  0.00  0.00    +0.000 NA
ATOM      6  C   UNL     1       2.749   4.457  17.974  0.00  0.00    +0.000 A 
ENDROOT
BRANCH   1  12
ATOM      7  C   UNL     1       6.070   4.870  16.964  0.00  0.00    +0.000 A 
ATOM      8  C   UNL     1       7.081   5.182  16.014  0.00  0.00    +0.000 A 
ATOM      9  C   UNL     1       6.971   4.823  14.678  0.00  0.00    +0.000 A 
ATOM     10  C   UNL     1       5.821   4.195  14.243  0.00  0.00    +0.000 A 
ATOM     11  C   UNL     1       4.798   3.912  15.153  0.00  0.00    +0.000 A 
ATOM     12  C   UNL     1       4.895   4.172  16.543  0.00  0.00    +0.000 A 
BRANCH   7  13
ATOM     13  C   UNL     1       6.361   5.363  18.378  0.00  0.00    +0.000 C 
BRANCH  13  15
ATOM     14  C   UNL     1       7.931   7.208  18.324  0.00  0.00    +0.000 C 
ATOM     15  N   UNL     1       7.748   5.784  18.604  0.00  0.00    +0.000 NA
ATOM     16  C   UNL     1       8.159   5.481  19.976  0.00  0.00    +0.000 C 
ENDBRANCH  13  15
ENDBRANCH   7  13
ENDBRANCH   1  12
BRANCH   6  17
ATOM     17  N   UNL     1       2.713   5.844  17.770  0.00  0.00    +0.000 N 
ATOM     18  H   UNL     1       1.888   6.108  17.239  0.00  0.00    +0.000 HD
BRANCH  17  19
ATOM     19  C   UNL     1       2.960   6.693  18.928  0.00  0.00    +0.000 C 
BRANCH  19  20
ATOM     20  C   UNL     1       2.116   7.946  18.994  0.00  0.00    +0.000 A 
ATOM     21  C   UNL     1       1.856   8.835  17.965  0.00  0.00    +0.000 A 
ATOM     22  C   UNL     1       1.042   9.929  18.375  0.00  0.00    +0.000 A 
ATOM     23  C   UNL     1       0.696   9.838  19.703  0.00  0.00    +0.000 A 
ATOM     24  S   UNL     1       1.363   8.449  20.450  0.00  0.00    +0.000 S 
ENDBRANCH  19  20
ENDBRANCH  17  19
ENDBRANCH   6  17
TORSDOF 6
ENDMDL
MODEL 7
REMARK VINA RESULT:      -6.7      2.454      6.546
REMARK  Name = 
REMARK  8 active torsions:
REMARK  status: ('A' for Active; 'I' for Inactive)
REMARK    1  A    between atoms: C_1  and  N_2
REMARK    2  A    between atoms: N_2  and  C_3
REMARK    3  A    between atoms: N_2  and  C_4
REMARK    4  A    between atoms: C_4  and  C_5
REMARK    5  A    between atoms: C_10  and  C_11
REMARK    6  A    between atoms: C_16  and  N_17
REMARK    7  A    between atoms: N_17  and  C_18
REMARK    8  A    between atoms: C_18  and  C_19
REMARK                            x       y       z     vdW  Elec       q    Type
REMARK                         _______ _______ _______ _____ _____    ______ ____
ROOT
ATOM      1  C   UNL     1       3.880   3.827  18.380  0.00  0.00    +0.000 A 
ATOM      2  C   UNL     1       3.595   2.477  18.562  0.00  0.00    +0.000 A 
ATOM      3  N   UNL     1       2.371   1.903  18.548  0.00  0.00    +0.000 NA
ATOM      4  C   UNL     1       1.359   2.745  18.364  0.00  0.00    +0.000 A 
ATOM      5  N   UNL     1       1.462   4.070  18.257  0.00  0.00    +0.000 NA
ATOM      6  C   UNL     1       2.707   4.608  18.280  0.00  0.00    +0.000 A 
ENDROOT
BRANCH   1  12
ATOM      7  C   UNL     1       6.154   4.358  17.209  0.00  0.00    +0.000 A 
ATOM      8  C   UNL     1       7.419   5.001  17.284  0.00  0.00    +0.000 A 
ATOM      9  C   UNL     1       7.850   5.646  18.435  0.00  0.00    +0.000 A 
ATOM     10  C   UNL     1       7.051   5.615  19.562  0.00  0.00    +0.000 A 
ATOM     11  C   UNL     1       5.819   4.956  19.520  0.00  0.00    +0.000 A 
ATOM     12  C   UNL     1       5.290   4.361  18.348  0.00  0.00    +0.000 A 
BRANCH   7  13
ATOM     13  C   UNL     1       5.867   3.688  15.868  0.00  0.00    +0.000 C 
BRANCH  13  15
ATOM     14  C   UNL     1       6.033   3.755  13.452  0.00  0.00    +0.000 C 
ATOM     15  N   UNL     1       6.183   4.511  14.696  0.00  0.00    +0.000 NA
ATOM     16  C   UNL     1       5.338   5.706  14.666  0.00  0.00    +0.000 C 
ENDBRANCH  13  15
ENDBRANCH   7  13
ENDBRANCH   1  12
BRANCH   6  17
ATOM     17  N   UNL     1       2.771   6.009  18.261  0.00  0.00    +0.000 N 
ATOM     18  H   UNL     1       2.231   6.383  17.486  0.00  0.00    +0.000 HD
BRANCH  17  19
ATOM     19  C   UNL     1       2.543   6.703  19.522  0.00  0.00    +0.000 C 
BRANCH  19  20
ATOM     20  C   UNL     1       1.904   8.067  19.394  0.00  0.00    +0.000 A 
ATOM     21  C   UNL     1       1.200   8.757  20.366  0.00  0.00    +0.000 A 
ATOM     22  C   UNL     1       0.707  10.010  19.905  0.00  0.00    +0.000 A 
ATOM     23  C   UNL     1       1.056  10.244  18.595  0.00  0.00    +0.000 A 
ATOM     24  S   UNL     1       1.960   8.953  17.927  0.00  0.00    +0.000 S 
ENDBRANCH  19  20
ENDBRANCH  17  19
ENDBRANCH   6  17
TORSDOF 6
ENDMDL
MODEL 8
REMARK VINA RESULT:      -6.7      2.861      6.873
REMARK  Name = 
REMARK  8 active torsions:
REMARK  status: ('A' for Active; 'I' for Inactive)
REMARK    1  A    between atoms: C_1  and  N_2
REMARK    2  A    between atoms: N_2  and  C_3
REMARK    3  A    between atoms: N_2  and  C_4
REMARK    4  A    between atoms: C_4  and  C_5
REMARK    5  A    between atoms: C_10  and  C_11
REMARK    6  A    between atoms: C_16  and  N_17
REMARK    7  A    between atoms: N_17  and  C_18
REMARK    8  A    between atoms: C_18  and  C_19
REMARK                            x       y       z     vdW  Elec       q    Type
REMARK                         _______ _______ _______ _____ _____    ______ ____
ROOT
ATOM      1  C   UNL     1       4.235   4.487  18.272  0.00  0.00    +0.000 A 
ATOM      2  C   UNL     1       4.074   3.224  17.711  0.00  0.00    +0.000 A 
ATOM      3  N   UNL     1       2.922   2.519  17.629  0.00  0.00    +0.000 NA
ATOM      4  C   UNL     1       1.864   3.112  18.171  0.00  0.00    +0.000 A 
ATOM      5  N   UNL     1       1.873   4.279  18.816  0.00  0.00    +0.000 NA
ATOM      6  C   UNL     1       3.048   4.953  18.881  0.00  0.00    +0.000 A 
ENDROOT
BRANCH   1  12
ATOM      7  C   UNL     1       6.027   6.054  17.197  0.00  0.00    +0.000 A 
ATOM      8  C   UNL     1       7.237   6.781  17.361  0.00  0.00    +0.000 A 
ATOM      9  C   UNL     1       7.983   6.714  18.530  0.00  0.00    +0.000 A 
ATOM     10  C   UNL     1       7.569   5.873  19.545  0.00  0.00    +0.000 A 
ATOM     11  C   UNL     1       6.400   5.121  19.388  0.00  0.00    +0.000 A 
ATOM     12  C   UNL     1       5.553   5.219  18.256  0.00  0.00    +0.000 A 
BRANCH   7  13
ATOM     13  C   UNL     1       5.360   6.241  15.837  0.00  0.00    +0.000 C 
BRANCH  13  15
ATOM     14  C   UNL     1       7.232   4.865  15.147  0.00  0.00    +0.000 C 
ATOM     15  N   UNL     1       5.942   5.436  14.757  0.00  0.00    +0.000 NA
ATOM     16  C   UNL     1       5.020   4.373  14.357  0.00  0.00    +0.000 C 
ENDBRANCH  13  15
ENDBRANCH   7  13
ENDBRANCH   1  12
BRANCH   6  17
ATOM     17  N   UNL     1       3.041   6.127  19.648  0.00  0.00    +0.000 N 
ATOM     18  H   UNL     1       3.919   6.235  20.147  0.00  0.00    +0.000 HD
BRANCH  17  19
ATOM     19  C   UNL     1       2.586   7.346  18.993  0.00  0.00    +0.000 C 
BRANCH  19  20
ATOM     20  C   UNL     1       1.667   8.213  19.824  0.00  0.00    +0.000 A 
ATOM     21  C   UNL     1       1.235   7.975  21.118  0.00  0.00    +0.000 A 
ATOM     22  C   UNL     1       0.351   8.983  21.598  0.00  0.00    +0.000 A 
ATOM     23  C   UNL     1       0.141   9.965  20.659  0.00  0.00    +0.000 A 
ATOM     24  S   UNL     1       0.995   9.664  19.206  0.00  0.00    +0.000 S 
ENDBRANCH  19  20
ENDBRANCH  17  19
ENDBRANCH   6  17
TORSDOF 6
ENDMDL
MODEL 9
REMARK VINA RESULT:      -6.6      2.955      6.173
REMARK  Name = 
REMARK  8 active torsions:
REMARK  status: ('A' for Active; 'I' for Inactive)
REMARK    1  A    between atoms: C_1  and  N_2
REMARK    2  A    between atoms: N_2  and  C_3
REMARK    3  A    between atoms: N_2  and  C_4
REMARK    4  A    between atoms: C_4  and  C_5
REMARK    5  A    between atoms: C_10  and  C_11
REMARK    6  A    between atoms: C_16  and  N_17
REMARK    7  A    between atoms: N_17  and  C_18
REMARK    8  A    between atoms: C_18  and  C_19
REMARK                            x       y       z     vdW  Elec       q    Type
REMARK                         _______ _______ _______ _____ _____    ______ ____
ROOT
ATOM      1  C   UNL     1       2.850   7.165  18.273  0.00  0.00    +0.000 A 
ATOM      2  C   UNL     1       2.314   8.231  17.558  0.00  0.00    +0.000 A 
ATOM      3  N   UNL     1       1.580   9.251  18.060  0.00  0.00    +0.000 NA
ATOM      4  C   UNL     1       1.345   9.181  19.366  0.00  0.00    +0.000 A 
ATOM      5  N   UNL     1       1.718   8.185  20.170  0.00  0.00    +0.000 NA
ATOM      6  C   UNL     1       2.449   7.179  19.628  0.00  0.00    +0.000 A 
ENDROOT
BRANCH   1  12
ATOM      7  C   UNL     1       5.116   6.224  17.378  0.00  0.00    +0.000 A 
ATOM      8  C   UNL     1       5.834   5.106  16.872  0.00  0.00    +0.000 A 
ATOM      9  C   UNL     1       5.216   3.889  16.616  0.00  0.00    +0.000 A 
ATOM     10  C   UNL     1       3.852   3.775  16.804  0.00  0.00    +0.000 A 
ATOM     11  C   UNL     1       3.122   4.874  17.266  0.00  0.00    +0.000 A 
ATOM     12  C   UNL     1       3.714   6.109  17.630  0.00  0.00    +0.000 A 
BRANCH   7  13
ATOM     13  C   UNL     1       5.963   7.478  17.576  0.00  0.00    +0.000 C 
BRANCH  13  15
ATOM     14  C   UNL     1       8.163   8.487  17.696  0.00  0.00    +0.000 C 
ATOM     15  N   UNL     1       7.409   7.235  17.630  0.00  0.00    +0.000 NA
ATOM     16  C   UNL     1       7.742   6.384  18.773  0.00  0.00    +0.000 C 
ENDBRANCH  13  15
ENDBRANCH   7  13
ENDBRANCH   1  12
BRANCH   6  17
ATOM     17  N   UNL     1       2.741   6.104  20.480  0.00  0.00    +0.000 N 
ATOM     18  H   UNL     1       3.305   6.413  21.267  0.00  0.00    +0.000 HD
BRANCH  17  19
ATOM     19  C   UNL     1       1.635   5.235  20.857  0.00  0.00    +0.000 C 
BRANCH  19  20
ATOM     20  C   UNL     1       1.612   3.893  20.161  0.00  0.00    +0.000 A 
ATOM     21  C   UNL     1       0.611   3.389  19.348  0.00  0.00    +0.000 A 
ATOM     22  C   UNL     1       0.896   2.077  18.873  0.00  0.00    +0.000 A 
ATOM     23  C   UNL     1       2.110   1.621  19.332  0.00  0.00    +0.000 A 
ATOM     24  S   UNL     1       2.891   2.765  20.338  0.00  0.00    +0.000 S 
ENDBRANCH  19  20
ENDBRANCH  17  19
ENDBRANCH   6  17
TORSDOF 6
ENDMDL
