MODEL 1
REMARK VINA RESULT:      -8.1      0.000      0.000
REMARK  Name = 
REMARK  7 active torsions:
REMARK  status: ('A' for Active; 'I' for Inactive)
REMARK    1  A    between atoms: C_1  and  O_2
REMARK    2  A    between atoms: O_2  and  C_3
REMARK    3  A    between atoms: C_7  and  C_8
REMARK    4  A    between atoms: C_8  and  N_9
REMARK    5  A    between atoms: C_10  and  C_12
REMARK    6  A    between atoms: C_15  and  S_16
REMARK    7  A    between atoms: S_16  and  N_19
REMARK                            x       y       z     vdW  Elec       q    Type
REMARK                         _______ _______ _______ _____ _____    ______ ____
ROOT
ATOM      1  C   UNL     1       1.548   8.774  19.378  0.00  0.00    +0.000 A 
ATOM      2  C   UNL     1       1.765   7.738  20.295  0.00  0.00    +0.000 A 
ATOM      3  C   UNL     1       2.531   6.621  19.931  0.00  0.00    +0.000 A 
ATOM      4  C   UNL     1       3.059   6.520  18.635  0.00  0.00    +0.000 A 
ATOM      5  C   UNL     1       2.876   7.567  17.727  0.00  0.00    +0.000 A 
ATOM      6  C   UNL     1       2.108   8.680  18.095  0.00  0.00    +0.000 A 
ENDROOT
BRANCH   1   8
ATOM      7  N   UNL     1       0.403  10.831  18.652  0.00  0.00    +0.000 N 
ATOM      8  C   UNL     1       0.694   9.970  19.690  0.00  0.00    +0.000 C 
ATOM      9  O   UNL     1       0.293  10.126  20.834  0.00  0.00    +0.000 OA
ATOM     10  H   UNL     1       0.630  10.587  17.699  0.00  0.00    +0.000 HD
BRANCH   7  11
ATOM     11  C   UNL     1      -0.356  12.048  18.865  0.00  0.00    +0.000 C 
BRANCH  11  16
ATOM     12  C   UNL     1      -3.625  11.269  17.037  0.00  0.00    +0.000 A 
ATOM     13  C   UNL     1      -4.562  11.675  17.989  0.00  0.00    +0.000 A 
ATOM     14  C   UNL     1      -4.148  12.178  19.222  0.00  0.00    +0.000 A 
ATOM     15  C   UNL     1      -2.787  12.282  19.510  0.00  0.00    +0.000 A 
ATOM     16  C   UNL     1      -1.828  11.874  18.572  0.00  0.00    +0.000 A 
ATOM     17  C   UNL     1      -2.261  11.370  17.330  0.00  0.00    +0.000 A 
BRANCH  12  19
ATOM     18  C   UNL     1      -3.272  10.330  14.877  0.00  0.00    +0.000 C 
ATOM     19  O   UNL     1      -4.170  10.813  15.868  0.00  0.00    +0.000 OA
ENDBRANCH  12  19
ENDBRANCH  11  16
ENDBRANCH   7  11
ENDBRANCH   1   8
BRANCH   4  20
ATOM     20  S   UNL     1       4.131   5.156  18.209  0.00  0.00    +0.000 S 
ATOM     21  O   UNL     1       4.556   4.555  19.453  0.00  0.00    +0.000 OA
ATOM     22  O   UNL     1       3.427   4.373  17.213  0.00  0.00    +0.000 OA
BRANCH  20  23
ATOM     23  N   UNL     1       5.493   5.815  17.468  0.00  0.00    +0.000 NA
ATOM     24  C   UNL     1       5.702   5.679  16.007  0.00  0.00    +0.000 C 
ATOM     25  C   UNL     1       6.606   4.480  15.707  0.00  0.00    +0.000 C 
ATOM     26  O   UNL     1       7.850   4.555  16.421  0.00  0.00    +0.000 OA
ATOM     27  C   UNL     1       7.655   4.673  17.839  0.00  0.00    +0.000 C 
ATOM     28  C   UNL     1       6.788   5.883  18.189  0.00  0.00    +0.000 C 
ENDBRANCH  20  23
ENDBRANCH   4  20
TORSDOF 6
ENDMDL
MODEL 2
REMARK VINA RESULT:      -8.1      2.061      2.999
REMARK  Name = 
REMARK  7 active torsions:
REMARK  status: ('A' for Active; 'I' for Inactive)
REMARK    1  A    between atoms: C_1  and  O_2
REMARK    2  A    between atoms: O_2  and  C_3
REMARK    3  A    between atoms: C_7  and  C_8
REMARK    4  A    between atoms: C_8  and  N_9
REMARK    5  A    between atoms: C_10  and  C_12
REMARK    6  A    between atoms: C_15  and  S_16
REMARK    7  A    between atoms: S_16  and  N_19
REMARK                            x       y       z     vdW  Elec       q    Type
REMARK                         _______ _______ _______ _____ _____    ______ ____
ROOT
ATOM      1  C   UNL     1       2.082   7.838  19.197  0.00  0.00    +0.000 A 
ATOM      2  C   UNL     1       2.769   7.804  17.976  0.00  0.00    +0.000 A 
ATOM      3  C   UNL     1       3.648   6.748  17.690  0.00  0.00    +0.000 A 
ATOM      4  C   UNL     1       3.868   5.738  18.637  0.00  0.00    +0.000 A 
ATOM      5  C   UNL     1       3.158   5.748  19.842  0.00  0.00    +0.000 A 
ATOM      6  C   UNL     1       2.283   6.805  20.124  0.00  0.00    +0.000 A 
ENDROOT
BRANCH   1   8
ATOM      7  N   UNL     1       0.911   9.930  18.631  0.00  0.00    +0.000 N 
ATOM      8  C   UNL     1       1.168   8.966  19.583  0.00  0.00    +0.000 C 
ATOM      9  O   UNL     1       0.693   8.981  20.710  0.00  0.00    +0.000 OA
ATOM     10  H   UNL     1       1.204   9.802  17.674  0.00  0.00    +0.000 HD
BRANCH   7  11
ATOM     11  C   UNL     1       0.096  11.093  18.927  0.00  0.00    +0.000 C 
BRANCH  11  16
ATOM     12  C   UNL     1      -2.850  10.148  16.678  0.00  0.00    +0.000 A 
ATOM     13  C   UNL     1      -3.882  10.875  17.276  0.00  0.00    +0.000 A 
ATOM     14  C   UNL     1      -3.638  11.650  18.409  0.00  0.00    +0.000 A 
ATOM     15  C   UNL     1      -2.354  11.707  18.952  0.00  0.00    +0.000 A 
ATOM     16  C   UNL     1      -1.305  10.978  18.372  0.00  0.00    +0.000 A 
ATOM     17  C   UNL     1      -1.565  10.201  17.228  0.00  0.00    +0.000 A 
BRANCH  12  19
ATOM     18  C   UNL     1      -3.557  10.197  14.404  0.00  0.00    +0.000 C 
ATOM     19  O   UNL     1      -3.226   9.446  15.566  0.00  0.00    +0.000 OA
ENDBRANCH  12  19
ENDBRANCH  11  16
ENDBRANCH   7  11
ENDBRANCH   1   8
BRANCH   4  20
ATOM     20  S   UNL     1       4.896   4.335  18.226  0.00  0.00    +0.000 S 
ATOM     21  O   UNL     1       5.571   4.661  16.991  0.00  0.00    +0.000 OA
ATOM     22  O   UNL     1       5.652   4.014  19.420  0.00  0.00    +0.000 OA
BRANCH  20  23
ATOM     23  N   UNL     1       3.860   3.042  17.917  0.00  0.00    +0.000 NA
ATOM     24  C   UNL     1       2.636   3.232  17.103  0.00  0.00    +0.000 C 
ATOM     25  C   UNL     1       1.424   3.472  18.009  0.00  0.00    +0.000 C 
ATOM     26  O   UNL     1       1.266   2.425  18.980  0.00  0.00    +0.000 OA
ATOM     27  C   UNL     1       2.444   2.247  19.781  0.00  0.00    +0.000 C 
ATOM     28  C   UNL     1       3.674   1.964  18.919  0.00  0.00    +0.000 C 
ENDBRANCH  20  23
ENDBRANCH   4  20
TORSDOF 6
ENDMDL
MODEL 3
REMARK VINA RESULT:      -8.0      2.099      3.278
REMARK  Name = 
REMARK  7 active torsions:
REMARK  status: ('A' for Active; 'I' for Inactive)
REMARK    1  A    between atoms: C_1  and  O_2
REMARK    2  A    between atoms: O_2  and  C_3
REMARK    3  A    between atoms: C_7  and  C_8
REMARK    4  A    between atoms: C_8  and  N_9
REMARK    5  A    between atoms: C_10  and  C_12
REMARK    6  A    between atoms: C_15  and  S_16
REMARK    7  A    between atoms: S_16  and  N_19
REMARK                            x       y       z     vdW  Elec       q    Type
REMARK                         _______ _______ _______ _____ _____    ______ ____
ROOT
ATOM      1  C   UNL     1       2.106   8.009  19.038  0.00  0.00    +0.000 A 
ATOM      2  C   UNL     1       2.831   7.948  17.841  0.00  0.00    +0.000 A 
ATOM      3  C   UNL     1       3.699   6.873  17.595  0.00  0.00    +0.000 A 
ATOM      4  C   UNL     1       3.870   5.870  18.559  0.00  0.00    +0.000 A 
ATOM      5  C   UNL     1       3.122   5.907  19.740  0.00  0.00    +0.000 A 
ATOM      6  C   UNL     1       2.258   6.983  19.982  0.00  0.00    +0.000 A 
ENDROOT
BRANCH   1   8
ATOM      7  N   UNL     1       0.774   9.962  18.347  0.00  0.00    +0.000 N 
ATOM      8  C   UNL     1       1.201   9.158  19.382  0.00  0.00    +0.000 C 
ATOM      9  O   UNL     1       0.881   9.327  20.550  0.00  0.00    +0.000 OA
ATOM     10  H   UNL     1       0.942   9.701  17.386  0.00  0.00    +0.000 HD
BRANCH   7  11
ATOM     11  C   UNL     1      -0.046  11.134  18.584  0.00  0.00    +0.000 C 
BRANCH  11  16
ATOM     12  C   UNL     1      -3.828  11.539  18.179  0.00  0.00    +0.000 A 
ATOM     13  C   UNL     1      -4.096  10.564  17.217  0.00  0.00    +0.000 A 
ATOM     14  C   UNL     1      -3.065   9.792  16.685  0.00  0.00    +0.000 A 
ATOM     15  C   UNL     1      -1.753   9.989  17.115  0.00  0.00    +0.000 A 
ATOM     16  C   UNL     1      -1.459  10.968  18.075  0.00  0.00    +0.000 A 
ATOM     17  C   UNL     1      -2.511  11.739  18.606  0.00  0.00    +0.000 A 
BRANCH  12  19
ATOM     18  C   UNL     1      -6.174  11.909  17.998  0.00  0.00    +0.000 C 
ATOM     19  O   UNL     1      -4.934  12.209  18.627  0.00  0.00    +0.000 OA
ENDBRANCH  12  19
ENDBRANCH  11  16
ENDBRANCH   7  11
ENDBRANCH   1   8
BRANCH   4  20
ATOM     20  S   UNL     1       4.884   4.444  18.198  0.00  0.00    +0.000 S 
ATOM     21  O   UNL     1       5.539   4.708  16.937  0.00  0.00    +0.000 OA
ATOM     22  O   UNL     1       5.659   4.175  19.392  0.00  0.00    +0.000 OA
BRANCH  20  23
ATOM     23  N   UNL     1       3.836   3.143  17.967  0.00  0.00    +0.000 NA
ATOM     24  C   UNL     1       2.598   3.302  17.168  0.00  0.00    +0.000 C 
ATOM     25  C   UNL     1       1.405   3.589  18.084  0.00  0.00    +0.000 C 
ATOM     26  O   UNL     1       1.261   2.589  19.105  0.00  0.00    +0.000 OA
ATOM     27  C   UNL     1       2.453   2.442  19.892  0.00  0.00    +0.000 C 
ATOM     28  C   UNL     1       3.665   2.114  19.020  0.00  0.00    +0.000 C 
ENDBRANCH  20  23
ENDBRANCH   4  20
TORSDOF 6
ENDMDL
MODEL 4
REMARK VINA RESULT:      -7.9      0.979      1.861
REMARK  Name = 
REMARK  7 active torsions:
REMARK  status: ('A' for Active; 'I' for Inactive)
REMARK    1  A    between atoms: C_1  and  O_2
REMARK    2  A    between atoms: O_2  and  C_3
REMARK    3  A    between atoms: C_7  and  C_8
REMARK    4  A    between atoms: C_8  and  N_9
REMARK    5  A    between atoms: C_10  and  C_12
REMARK    6  A    between atoms: C_15  and  S_16
REMARK    7  A    between atoms: S_16  and  N_19
REMARK                            x       y       z     vdW  Elec       q    Type
REMARK                         _______ _______ _______ _____ _____    ______ ____
ROOT
ATOM      1  C   UNL     1       1.544   8.832  19.218  0.00  0.00    +0.000 A 
ATOM      2  C   UNL     1       1.679   7.778  20.130  0.00  0.00    +0.000 A 
ATOM      3  C   UNL     1       2.451   6.654  19.802  0.00  0.00    +0.000 A 
ATOM      4  C   UNL     1       3.068   6.565  18.545  0.00  0.00    +0.000 A 
ATOM      5  C   UNL     1       2.967   7.630  17.645  0.00  0.00    +0.000 A 
ATOM      6  C   UNL     1       2.193   8.749  17.977  0.00  0.00    +0.000 A 
ENDROOT
BRANCH   1   8
ATOM      7  N   UNL     1       0.405  10.867  18.425  0.00  0.00    +0.000 N 
ATOM      8  C   UNL     1       0.690  10.038  19.489  0.00  0.00    +0.000 C 
ATOM      9  O   UNL     1       0.284  10.229  20.627  0.00  0.00    +0.000 OA
ATOM     10  H   UNL     1       0.636  10.594  17.481  0.00  0.00    +0.000 HD
BRANCH   7  11
ATOM     11  C   UNL     1      -0.355  12.090  18.597  0.00  0.00    +0.000 C 
BRANCH  11  16
ATOM     12  C   UNL     1      -4.145  12.044  19.107  0.00  0.00    +0.000 A 
ATOM     13  C   UNL     1      -4.562  11.419  17.930  0.00  0.00    +0.000 A 
ATOM     14  C   UNL     1      -3.632  11.032  16.966  0.00  0.00    +0.000 A 
ATOM     15  C   UNL     1      -2.273  11.264  17.175  0.00  0.00    +0.000 A 
ATOM     16  C   UNL     1      -1.832  11.898  18.347  0.00  0.00    +0.000 A 
ATOM     17  C   UNL     1      -2.782  12.281  19.312  0.00  0.00    +0.000 A 
BRANCH  12  19
ATOM     18  C   UNL     1      -4.803  12.649  21.314  0.00  0.00    +0.000 C 
ATOM     19  O   UNL     1      -5.160  12.354  19.970  0.00  0.00    +0.000 OA
ENDBRANCH  12  19
ENDBRANCH  11  16
ENDBRANCH   7  11
ENDBRANCH   1   8
BRANCH   4  20
ATOM     20  S   UNL     1       4.145   5.189  18.173  0.00  0.00    +0.000 S 
ATOM     21  O   UNL     1       4.572   4.639  19.439  0.00  0.00    +0.000 OA
ATOM     22  O   UNL     1       3.444   4.365  17.208  0.00  0.00    +0.000 OA
BRANCH  20  23
ATOM     23  N   UNL     1       5.505   5.825  17.407  0.00  0.00    +0.000 NA
ATOM     24  C   UNL     1       5.701   5.655  15.948  0.00  0.00    +0.000 C 
ATOM     25  C   UNL     1       6.596   4.445  15.666  0.00  0.00    +0.000 C 
ATOM     26  O   UNL     1       7.846   4.529  16.369  0.00  0.00    +0.000 OA
ATOM     27  C   UNL     1       7.663   4.679  17.785  0.00  0.00    +0.000 C 
ATOM     28  C   UNL     1       6.806   5.901  18.115  0.00  0.00    +0.000 C 
ENDBRANCH  20  23
ENDBRANCH   4  20
TORSDOF 6
ENDMDL
MODEL 5
REMARK VINA RESULT:      -7.9      1.937      2.714
REMARK  Name = 
REMARK  7 active torsions:
REMARK  status: ('A' for Active; 'I' for Inactive)
REMARK    1  A    between atoms: C_1  and  O_2
REMARK    2  A    between atoms: O_2  and  C_3
REMARK    3  A    between atoms: C_7  and  C_8
REMARK    4  A    between atoms: C_8  and  N_9
REMARK    5  A    between atoms: C_10  and  C_12
REMARK    6  A    between atoms: C_15  and  S_16
REMARK    7  A    between atoms: S_16  and  N_19
REMARK                            x       y       z     vdW  Elec       q    Type
REMARK                         _______ _______ _______ _____ _____    ______ ____
ROOT
ATOM      1  C   UNL     1       1.460   8.886  19.459  0.00  0.00    +0.000 A 
ATOM      2  C   UNL     1       1.768   7.823  20.318  0.00  0.00    +0.000 A 
ATOM      3  C   UNL     1       2.543   6.747  19.860  0.00  0.00    +0.000 A 
ATOM      4  C   UNL     1       2.988   6.714  18.531  0.00  0.00    +0.000 A 
ATOM      5  C   UNL     1       2.715   7.789  17.680  0.00  0.00    +0.000 A 
ATOM      6  C   UNL     1       1.939   8.860  18.140  0.00  0.00    +0.000 A 
ENDROOT
BRANCH   1   8
ATOM      7  N   UNL     1      -0.557  10.264  19.145  0.00  0.00    +0.000 N 
ATOM      8  C   UNL     1       0.593  10.040  19.873  0.00  0.00    +0.000 C 
ATOM      9  O   UNL     1       0.934  10.722  20.830  0.00  0.00    +0.000 OA
ATOM     10  H   UNL     1      -0.874   9.593  18.462  0.00  0.00    +0.000 HD
BRANCH   7  11
ATOM     11  C   UNL     1      -1.425  11.392  19.424  0.00  0.00    +0.000 C 
BRANCH  11  16
ATOM     12  C   UNL     1      -3.550  11.328  16.244  0.00  0.00    +0.000 A 
ATOM     13  C   UNL     1      -4.796  11.702  16.752  0.00  0.00    +0.000 A 
ATOM     14  C   UNL     1      -4.959  11.954  18.113  0.00  0.00    +0.000 A 
ATOM     15  C   UNL     1      -3.872  11.837  18.979  0.00  0.00    +0.000 A 
ATOM     16  C   UNL     1      -2.613  11.456  18.492  0.00  0.00    +0.000 A 
ATOM     17  C   UNL     1      -2.462  11.206  17.115  0.00  0.00    +0.000 A 
BRANCH  12  19
ATOM     18  C   UNL     1      -2.979   9.904  14.422  0.00  0.00    +0.000 C 
ATOM     19  O   UNL     1      -3.530  11.128  14.891  0.00  0.00    +0.000 OA
ENDBRANCH  12  19
ENDBRANCH  11  16
ENDBRANCH   7  11
ENDBRANCH   1   8
BRANCH   4  20
ATOM     20  S   UNL     1       4.071   5.403  17.982  0.00  0.00    +0.000 S 
ATOM     21  O   UNL     1       4.739   5.884  16.794  0.00  0.00    +0.000 OA
ATOM     22  O   UNL     1       4.834   4.985  19.141  0.00  0.00    +0.000 OA
BRANCH  20  23
ATOM     23  N   UNL     1       3.087   4.112  17.527  0.00  0.00    +0.000 NA
ATOM     24  C   UNL     1       1.621   4.167  17.737  0.00  0.00    +0.000 C 
ATOM     25  C   UNL     1       1.243   3.478  19.051  0.00  0.00    +0.000 C 
ATOM     26  O   UNL     1       1.744   2.133  19.114  0.00  0.00    +0.000 OA
ATOM     27  C   UNL     1       3.166   2.075  18.926  0.00  0.00    +0.000 C 
ATOM     28  C   UNL     1       3.586   2.717  17.604  0.00  0.00    +0.000 C 
ENDBRANCH  20  23
ENDBRANCH   4  20
TORSDOF 6
ENDMDL
MODEL 6
REMARK VINA RESULT:      -7.8      1.217      1.890
REMARK  Name = 
REMARK  7 active torsions:
REMARK  status: ('A' for Active; 'I' for Inactive)
REMARK    1  A    between atoms: C_1  and  O_2
REMARK    2  A    between atoms: O_2  and  C_3
REMARK    3  A    between atoms: C_7  and  C_8
REMARK    4  A    between atoms: C_8  and  N_9
REMARK    5  A    between atoms: C_10  and  C_12
REMARK    6  A    between atoms: C_15  and  S_16
REMARK    7  A    between atoms: S_16  and  N_19
REMARK                            x       y       z     vdW  Elec       q    Type
REMARK                         _______ _______ _______ _____ _____    ______ ____
ROOT
ATOM      1  C   UNL     1       2.275   7.706  19.109  0.00  0.00    +0.000 A 
ATOM      2  C   UNL     1       2.942   7.592  17.882  0.00  0.00    +0.000 A 
ATOM      3  C   UNL     1       3.753   6.478  17.620  0.00  0.00    +0.000 A 
ATOM      4  C   UNL     1       3.926   5.487  18.597  0.00  0.00    +0.000 A 
ATOM      5  C   UNL     1       3.234   5.577  19.809  0.00  0.00    +0.000 A 
ATOM      6  C   UNL     1       2.427   6.693  20.067  0.00  0.00    +0.000 A 
ENDROOT
BRANCH   1   8
ATOM      7  N   UNL     1       1.226   9.847  18.490  0.00  0.00    +0.000 N 
ATOM      8  C   UNL     1       1.434   8.898  19.469  0.00  0.00    +0.000 C 
ATOM      9  O   UNL     1       0.971   8.974  20.598  0.00  0.00    +0.000 OA
ATOM     10  H   UNL     1       1.502   9.674  17.535  0.00  0.00    +0.000 HD
BRANCH   7  11
ATOM     11  C   UNL     1       0.486  11.065  18.759  0.00  0.00    +0.000 C 
BRANCH  11  16
ATOM     12  C   UNL     1      -2.723  10.166  16.881  0.00  0.00    +0.000 A 
ATOM     13  C   UNL     1      -3.673  10.853  17.639  0.00  0.00    +0.000 A 
ATOM     14  C   UNL     1      -3.289  11.586  18.761  0.00  0.00    +0.000 A 
ATOM     15  C   UNL     1      -1.946  11.640  19.132  0.00  0.00    +0.000 A 
ATOM     16  C   UNL     1      -0.975  10.952  18.389  0.00  0.00    +0.000 A 
ATOM     17  C   UNL     1      -1.377  10.217  17.258  0.00  0.00    +0.000 A 
BRANCH  12  19
ATOM     18  C   UNL     1      -2.996  10.068  14.517  0.00  0.00    +0.000 C 
ATOM     19  O   UNL     1      -3.236   9.503  15.800  0.00  0.00    +0.000 OA
ENDBRANCH  12  19
ENDBRANCH  11  16
ENDBRANCH   7  11
ENDBRANCH   1   8
BRANCH   4  20
ATOM     20  S   UNL     1       4.864   4.013  18.221  0.00  0.00    +0.000 S 
ATOM     21  O   UNL     1       4.856   3.198  19.414  0.00  0.00    +0.000 OA
ATOM     22  O   UNL     1       4.340   3.499  16.971  0.00  0.00    +0.000 OA
BRANCH  20  23
ATOM     23  N   UNL     1       6.453   4.500  17.945  0.00  0.00    +0.000 NA
ATOM     24  C   UNL     1       7.015   5.682  18.641  0.00  0.00    +0.000 C 
ATOM     25  C   UNL     1       6.897   6.928  17.759  0.00  0.00    +0.000 C 
ATOM     26  O   UNL     1       7.499   6.729  16.470  0.00  0.00    +0.000 OA
ATOM     27  C   UNL     1       6.948   5.595  15.784  0.00  0.00    +0.000 C 
ATOM     28  C   UNL     1       7.080   4.317  16.613  0.00  0.00    +0.000 C 
ENDBRANCH  20  23
ENDBRANCH   4  20
TORSDOF 6
ENDMDL
MODEL 7
REMARK VINA RESULT:      -7.8      1.153      1.707
REMARK  Name = 
REMARK  7 active torsions:
REMARK  status: ('A' for Active; 'I' for Inactive)
REMARK    1  A    between atoms: C_1  and  O_2
REMARK    2  A    between atoms: O_2  and  C_3
REMARK    3  A    between atoms: C_7  and  C_8
REMARK    4  A    between atoms: C_8  and  N_9
REMARK    5  A    between atoms: C_10  and  C_12
REMARK    6  A    between atoms: C_15  and  S_16
REMARK    7  A    between atoms: S_16  and  N_19
REMARK                            x       y       z     vdW  Elec       q    Type
REMARK                         _______ _______ _______ _____ _____    ______ ____
ROOT
ATOM      1  C   UNL     1       1.484   9.260  19.000  0.00  0.00    +0.000 A 
ATOM      2  C   UNL     1       1.552   8.265  19.984  0.00  0.00    +0.000 A 
ATOM      3  C   UNL     1       2.285   7.091  19.752  0.00  0.00    +0.000 A 
ATOM      4  C   UNL     1       2.927   6.893  18.522  0.00  0.00    +0.000 A 
ATOM      5  C   UNL     1       2.893   7.898  17.550  0.00  0.00    +0.000 A 
ATOM      6  C   UNL     1       2.158   9.067  17.785  0.00  0.00    +0.000 A 
ENDROOT
BRANCH   1   8
ATOM      7  N   UNL     1      -0.644  10.373  19.548  0.00  0.00    +0.000 N 
ATOM      8  C   UNL     1       0.674  10.514  19.168  0.00  0.00    +0.000 C 
ATOM      9  O   UNL     1       1.211  11.594  18.968  0.00  0.00    +0.000 OA
ATOM     10  H   UNL     1      -1.004   9.477  19.843  0.00  0.00    +0.000 HD
BRANCH   7  11
ATOM     11  C   UNL     1      -1.526  11.517  19.671  0.00  0.00    +0.000 C 
BRANCH  11  16
ATOM     12  C   UNL     1      -4.944  11.888  17.993  0.00  0.00    +0.000 A 
ATOM     13  C   UNL     1      -4.659  11.421  16.709  0.00  0.00    +0.000 A 
ATOM     14  C   UNL     1      -3.370  11.008  16.375  0.00  0.00    +0.000 A 
ATOM     15  C   UNL     1      -2.354  11.056  17.329  0.00  0.00    +0.000 A 
ATOM     16  C   UNL     1      -2.616  11.527  18.623  0.00  0.00    +0.000 A 
ATOM     17  C   UNL     1      -3.922  11.939  18.947  0.00  0.00    +0.000 A 
BRANCH  12  19
ATOM     18  C   UNL     1      -6.907  12.915  17.120  0.00  0.00    +0.000 C 
ATOM     19  O   UNL     1      -6.251  12.243  18.187  0.00  0.00    +0.000 OA
ENDBRANCH  12  19
ENDBRANCH  11  16
ENDBRANCH   7  11
ENDBRANCH   1   8
BRANCH   4  20
ATOM     20  S   UNL     1       3.956   5.454  18.271  0.00  0.00    +0.000 S 
ATOM     21  O   UNL     1       4.433   5.050  19.574  0.00  0.00    +0.000 OA
ATOM     22  O   UNL     1       3.191   4.539  17.447  0.00  0.00    +0.000 OA
BRANCH  20  23
ATOM     23  N   UNL     1       5.290   5.955  17.371  0.00  0.00    +0.000 NA
ATOM     24  C   UNL     1       5.443   5.548  15.954  0.00  0.00    +0.000 C 
ATOM     25  C   UNL     1       6.335   4.308  15.848  0.00  0.00    +0.000 C 
ATOM     26  O   UNL     1       7.605   4.506  16.490  0.00  0.00    +0.000 OA
ATOM     27  C   UNL     1       7.463   4.885  17.867  0.00  0.00    +0.000 C 
ATOM     28  C   UNL     1       6.611   6.145  18.019  0.00  0.00    +0.000 C 
ENDBRANCH  20  23
ENDBRANCH   4  20
TORSDOF 6
ENDMDL
MODEL 8
REMARK VINA RESULT:      -7.8      1.370      2.361
REMARK  Name = 
REMARK  7 active torsions:
REMARK  status: ('A' for Active; 'I' for Inactive)
REMARK    1  A    between atoms: C_1  and  O_2
REMARK    2  A    between atoms: O_2  and  C_3
REMARK    3  A    between atoms: C_7  and  C_8
REMARK    4  A    between atoms: C_8  and  N_9
REMARK    5  A    between atoms: C_10  and  C_12
REMARK    6  A    between atoms: C_15  and  S_16
REMARK    7  A    between atoms: S_16  and  N_19
REMARK                            x       y       z     vdW  Elec       q    Type
REMARK                         _______ _______ _______ _____ _____    ______ ____
ROOT
ATOM      1  C   UNL     1       2.184   7.743  19.098  0.00  0.00    +0.000 A 
ATOM      2  C   UNL     1       2.807   7.620  17.849  0.00  0.00    +0.000 A 
ATOM      3  C   UNL     1       3.612   6.506  17.568  0.00  0.00    +0.000 A 
ATOM      4  C   UNL     1       3.824   5.525  18.547  0.00  0.00    +0.000 A 
ATOM      5  C   UNL     1       3.177   5.624  19.783  0.00  0.00    +0.000 A 
ATOM      6  C   UNL     1       2.375   6.739  20.060  0.00  0.00    +0.000 A 
ENDROOT
BRANCH   1   8
ATOM      7  N   UNL     1       0.890   9.738  18.457  0.00  0.00    +0.000 N 
ATOM      8  C   UNL     1       1.353   8.936  19.478  0.00  0.00    +0.000 C 
ATOM      9  O   UNL     1       1.120   9.140  20.661  0.00  0.00    +0.000 OA
ATOM     10  H   UNL     1       0.981   9.452  17.493  0.00  0.00    +0.000 HD
BRANCH   7  11
ATOM     11  C   UNL     1       0.136  10.948  18.723  0.00  0.00    +0.000 C 
BRANCH  11  16
ATOM     12  C   UNL     1      -3.629  11.541  18.407  0.00  0.00    +0.000 A 
ATOM     13  C   UNL     1      -3.962  10.605  17.426  0.00  0.00    +0.000 A 
ATOM     14  C   UNL     1      -2.979   9.799  16.853  0.00  0.00    +0.000 A 
ATOM     15  C   UNL     1      -1.651   9.923  17.261  0.00  0.00    +0.000 A 
ATOM     16  C   UNL     1      -1.293  10.862  18.240  0.00  0.00    +0.000 A 
ATOM     17  C   UNL     1      -2.296  11.667  18.811  0.00  0.00    +0.000 A 
BRANCH  12  19
ATOM     18  C   UNL     1      -5.891  11.529  19.153  0.00  0.00    +0.000 C 
ATOM     19  O   UNL     1      -4.693  12.250  18.894  0.00  0.00    +0.000 OA
ENDBRANCH  12  19
ENDBRANCH  11  16
ENDBRANCH   7  11
ENDBRANCH   1   8
BRANCH   4  20
ATOM     20  S   UNL     1       4.753   4.051  18.150  0.00  0.00    +0.000 S 
ATOM     21  O   UNL     1       4.678   3.187  19.307  0.00  0.00    +0.000 OA
ATOM     22  O   UNL     1       4.278   3.599  16.858  0.00  0.00    +0.000 OA
BRANCH  20  23
ATOM     23  N   UNL     1       6.362   4.520  17.966  0.00  0.00    +0.000 NA
ATOM     24  C   UNL     1       6.890   5.707  18.678  0.00  0.00    +0.000 C 
ATOM     25  C   UNL     1       6.840   6.940  17.771  0.00  0.00    +0.000 C 
ATOM     26  O   UNL     1       7.518   6.715  16.525  0.00  0.00    +0.000 OA
ATOM     27  C   UNL     1       7.000   5.575  15.823  0.00  0.00    +0.000 C 
ATOM     28  C   UNL     1       7.068   4.310  16.679  0.00  0.00    +0.000 C 
ENDBRANCH  20  23
ENDBRANCH   4  20
TORSDOF 6
ENDMDL
MODEL 9
REMARK VINA RESULT:      -7.8      2.098      3.016
REMARK  Name = 
REMARK  7 active torsions:
REMARK  status: ('A' for Active; 'I' for Inactive)
REMARK    1  A    between atoms: C_1  and  O_2
REMARK    2  A    between atoms: O_2  and  C_3
REMARK    3  A    between atoms: C_7  and  C_8
REMARK    4  A    between atoms: C_8  and  N_9
REMARK    5  A    between atoms: C_10  and  C_12
REMARK    6  A    between atoms: C_15  and  S_16
REMARK    7  A    between atoms: S_16  and  N_19
REMARK                            x       y       z     vdW  Elec       q    Type
REMARK                         _______ _______ _______ _____ _____    ______ ____
ROOT
ATOM      1  C   UNL     1       2.217   8.396  18.759  0.00  0.00    +0.000 A 
ATOM      2  C   UNL     1       2.206   7.431  19.775  0.00  0.00    +0.000 A 
ATOM      3  C   UNL     1       2.918   6.233  19.619  0.00  0.00    +0.000 A 
ATOM      4  C   UNL     1       3.619   5.979  18.431  0.00  0.00    +0.000 A 
ATOM      5  C   UNL     1       3.663   6.952  17.429  0.00  0.00    +0.000 A 
ATOM      6  C   UNL     1       2.949   8.147  17.588  0.00  0.00    +0.000 A 
ENDROOT
BRANCH   1   8
ATOM      7  N   UNL     1       0.206   9.627  19.468  0.00  0.00    +0.000 N 
ATOM      8  C   UNL     1       1.434   9.675  18.844  0.00  0.00    +0.000 C 
ATOM      9  O   UNL     1       1.914  10.694  18.366  0.00  0.00    +0.000 OA
ATOM     10  H   UNL     1      -0.085   8.804  19.975  0.00  0.00    +0.000 HD
BRANCH   7  11
ATOM     11  C   UNL     1      -0.655  10.792  19.542  0.00  0.00    +0.000 C 
BRANCH  11  16
ATOM     12  C   UNL     1      -2.645  10.080  16.354  0.00  0.00    +0.000 A 
ATOM     13  C   UNL     1      -3.821  10.785  16.614  0.00  0.00    +0.000 A 
ATOM     14  C   UNL     1      -3.985  11.471  17.817  0.00  0.00    +0.000 A 
ATOM     15  C   UNL     1      -2.967  11.459  18.771  0.00  0.00    +0.000 A 
ATOM     16  C   UNL     1      -1.779  10.750  18.533  0.00  0.00    +0.000 A 
ATOM     17  C   UNL     1      -1.627  10.064  17.314  0.00  0.00    +0.000 A 
BRANCH  12  19
ATOM     18  C   UNL     1      -3.394  10.049  14.094  0.00  0.00    +0.000 C 
ATOM     19  O   UNL     1      -2.613   9.470  15.130  0.00  0.00    +0.000 OA
ENDBRANCH  12  19
ENDBRANCH  11  16
ENDBRANCH   7  11
ENDBRANCH   1   8
BRANCH   4  20
ATOM     20  S   UNL     1       4.620   4.506  18.280  0.00  0.00    +0.000 S 
ATOM     21  O   UNL     1       5.319   4.605  17.019  0.00  0.00    +0.000 OA
ATOM     22  O   UNL     1       5.352   4.375  19.524  0.00  0.00    +0.000 OA
BRANCH  20  23
ATOM     23  N   UNL     1       3.558   3.201  18.175  0.00  0.00    +0.000 NA
ATOM     24  C   UNL     1       2.344   3.279  17.328  0.00  0.00    +0.000 C 
ATOM     25  C   UNL     1       1.132   3.688  18.169  0.00  0.00    +0.000 C 
ATOM     26  O   UNL     1       0.945   2.818  19.297  0.00  0.00    +0.000 OA
ATOM     27  C   UNL     1       2.112   2.750  20.129  0.00  0.00    +0.000 C 
ATOM     28  C   UNL     1       3.342   2.305  19.337  0.00  0.00    +0.000 C 
ENDBRANCH  20  23
ENDBRANCH   4  20
TORSDOF 6
ENDMDL
