MODEL 1
REMARK VINA RESULT:      -8.8      0.000      0.000
REMARK  Name = 
REMARK  11 active torsions:
REMARK  status: ('A' for Active; 'I' for Inactive)
REMARK    1  A    between atoms: C_2  and  C_3
REMARK    2  A    between atoms: C_3  and  C_4
REMARK    3  A    between atoms: N_9  and  C_10
REMARK    4  A    between atoms: C_10  and  C_11
REMARK    5  A    between atoms: C_10  and  C_20
REMARK    6  A    between atoms: C_11  and  O_12
REMARK    7  A    between atoms: O_12  and  C_13
REMARK    8  A    between atoms: C_13  and  C_14
REMARK    9  A    between atoms: N_22  and  C_23
REMARK   10  A    between atoms: C_26  and  O_27
REMARK   11  A    between atoms: O_27  and  C_28
REMARK                            x       y       z     vdW  Elec       q    Type
REMARK                         _______ _______ _______ _____ _____    ______ ____
ROOT
ATOM      1  C   UNL     1       4.572   5.575  17.982  0.00  0.00    +0.000 C 
ENDROOT
BRANCH   1   4
ATOM      2  O   UNL     1       7.539   7.300  16.780  0.00  0.00    +0.000 OA
ATOM      3  C   UNL     1       6.804   6.337  17.009  0.00  0.00    +0.000 C 
ATOM      4  N   UNL     1       5.573   6.574  17.558  0.00  0.00    +0.000 N 
ATOM      5  H   UNL     1       5.391   7.555  17.754  0.00  0.00    +0.000 HD
BRANCH   3   6
ATOM      6  C   UNL     1       7.230   4.917  16.670  0.00  0.00    +0.000 C 
BRANCH   6   7
ATOM      7  C   UNL     1       7.033   4.630  15.226  0.00  0.00    +0.000 A 
ATOM      8  C   UNL     1       6.196   3.759  14.562  0.00  0.00    +0.000 A 
ATOM      9  N   UNL     1       6.313   3.905  13.206  0.00  0.00    +0.000 NA
ATOM     10  C   UNL     1       7.197   4.858  13.033  0.00  0.00    +0.000 A 
ATOM     11  N   UNL     1       7.686   5.311  14.224  0.00  0.00    +0.000 N 
ATOM     12  H   UNL     1       8.388   6.031  14.344  0.00  0.00    +0.000 HD
ENDBRANCH   6   7
ENDBRANCH   3   6
ENDBRANCH   1   4
BRANCH   1  13
ATOM     13  C   UNL     1       3.164   6.187  18.212  0.00  0.00    +0.000 C 
ATOM     14  O   UNL     1       2.149   5.553  17.940  0.00  0.00    +0.000 OA
ATOM     15  N   UNL     1       3.190   7.486  18.685  0.00  0.00    +0.000 N 
ATOM     16  H   UNL     1       4.107   7.893  18.815  0.00  0.00    +0.000 HD
BRANCH  15  17
ATOM     17  C   UNL     1       2.086   8.316  18.975  0.00  0.00    +0.000 A 
ATOM     18  C   UNL     1       1.490   9.194  18.067  0.00  0.00    +0.000 A 
ATOM     19  C   UNL     1       0.381   9.973  18.442  0.00  0.00    +0.000 A 
ATOM     20  C   UNL     1      -0.155   9.879  19.726  0.00  0.00    +0.000 A 
ATOM     21  C   UNL     1       0.456   9.020  20.639  0.00  0.00    +0.000 A 
ATOM     22  C   UNL     1       1.561   8.244  20.267  0.00  0.00    +0.000 A 
BRANCH  20  23
ATOM     23  O   UNL     1      -1.244  10.672  20.010  0.00  0.00    +0.000 OA
BRANCH  23  24
ATOM     24  C   UNL     1      -0.939  12.024  20.407  0.00  0.00    +0.000 C 
ATOM     25  C   UNL     1      -2.153  12.947  20.231  0.00  0.00    +0.000 C 
ATOM     26  C   UNL     1      -3.232  12.805  21.299  0.00  0.00    +0.000 C 
ATOM     27  C   UNL     1      -2.689  12.820  22.720  0.00  0.00    +0.000 C 
ATOM     28  C   UNL     1      -1.512  11.875  22.917  0.00  0.00    +0.000 C 
ATOM     29  C   UNL     1      -0.428  12.037  21.854  0.00  0.00    +0.000 C 
ENDBRANCH  23  24
ENDBRANCH  20  23
ENDBRANCH  15  17
ENDBRANCH   1  13
BRANCH   1  30
ATOM     30  C   UNL     1       5.042   4.811  19.236  0.00  0.00    +0.000 C 
BRANCH  30  31
ATOM     31  O   UNL     1       5.286   3.418  19.052  0.00  0.00    +0.000 OA
BRANCH  31  32
ATOM     32  C   UNL     1       4.622   2.569  19.985  0.00  0.00    +0.000 C 
BRANCH  32  33
ATOM     33  C   UNL     1       3.131   2.731  19.839  0.00  0.00    +0.000 A 
ATOM     34  C   UNL     1       2.464   2.166  18.740  0.00  0.00    +0.000 A 
ATOM     35  C   UNL     1       1.077   2.265  18.627  0.00  0.00    +0.000 A 
ATOM     36  C   UNL     1       0.344   2.928  19.609  0.00  0.00    +0.000 A 
ATOM     37  C   UNL     1       0.996   3.493  20.703  0.00  0.00    +0.000 A 
ATOM     38  C   UNL     1       2.385   3.391  20.822  0.00  0.00    +0.000 A 
ENDBRANCH  32  33
ENDBRANCH  31  32
ENDBRANCH  30  31
ENDBRANCH   1  30
TORSDOF 11
ENDMDL
MODEL 2
REMARK VINA RESULT:      -8.5      1.144      1.776
REMARK  Name = 
REMARK  11 active torsions:
REMARK  status: ('A' for Active; 'I' for Inactive)
REMARK    1  A    between atoms: C_2  and  C_3
REMARK    2  A    between atoms: C_3  and  C_4
REMARK    3  A    between atoms: N_9  and  C_10
REMARK    4  A    between atoms: C_10  and  C_11
REMARK    5  A    between atoms: C_10  and  C_20
REMARK    6  A    between atoms: C_11  and  O_12
REMARK    7  A    between atoms: O_12  and  C_13
REMARK    8  A    between atoms: C_13  and  C_14
REMARK    9  A    between atoms: N_22  and  C_23
REMARK   10  A    between atoms: C_26  and  O_27
REMARK   11  A    between atoms: O_27  and  C_28
REMARK                            x       y       z     vdW  Elec       q    Type
REMARK                         _______ _______ _______ _____ _____    ______ ____
ROOT
ATOM      1  C   UNL     1       4.734   5.324  17.930  0.00  0.00    +0.000 C 
ENDROOT
BRANCH   1   4
ATOM      2  O   UNL     1       7.662   6.989  16.560  0.00  0.00    +0.000 OA
ATOM      3  C   UNL     1       6.907   6.046  16.804  0.00  0.00    +0.000 C 
ATOM      4  N   UNL     1       5.740   6.303  17.471  0.00  0.00    +0.000 N 
ATOM      5  H   UNL     1       5.620   7.278  17.732  0.00  0.00    +0.000 HD
BRANCH   3   6
ATOM      6  C   UNL     1       7.237   4.630  16.355  0.00  0.00    +0.000 C 
BRANCH   6   7
ATOM      7  C   UNL     1       6.946   4.445  14.911  0.00  0.00    +0.000 A 
ATOM      8  C   UNL     1       7.479   5.024  13.779  0.00  0.00    +0.000 A 
ATOM      9  N   UNL     1       6.943   4.470  12.648  0.00  0.00    +0.000 NA
ATOM     10  C   UNL     1       6.102   3.556  13.071  0.00  0.00    +0.000 A 
ATOM     11  N   UNL     1       6.045   3.521  14.434  0.00  0.00    +0.000 N 
ATOM     12  H   UNL     1       5.458   2.910  14.989  0.00  0.00    +0.000 HD
ENDBRANCH   6   7
ENDBRANCH   3   6
ENDBRANCH   1   4
BRANCH   1  13
ATOM     13  C   UNL     1       3.329   5.951  18.140  0.00  0.00    +0.000 C 
ATOM     14  O   UNL     1       2.318   5.382  17.740  0.00  0.00    +0.000 OA
ATOM     15  N   UNL     1       3.357   7.190  18.753  0.00  0.00    +0.000 N 
ATOM     16  H   UNL     1       4.273   7.553  18.981  0.00  0.00    +0.000 HD
BRANCH  15  17
ATOM     17  C   UNL     1       2.256   8.018  19.064  0.00  0.00    +0.000 A 
ATOM     18  C   UNL     1       1.607   8.046  20.300  0.00  0.00    +0.000 A 
ATOM     19  C   UNL     1       0.525   8.915  20.525  0.00  0.00    +0.000 A 
ATOM     20  C   UNL     1       0.082   9.776  19.522  0.00  0.00    +0.000 A 
ATOM     21  C   UNL     1       0.716   9.729  18.280  0.00  0.00    +0.000 A 
ATOM     22  C   UNL     1       1.793   8.863  18.055  0.00  0.00    +0.000 A 
BRANCH  20  23
ATOM     23  O   UNL     1      -0.979  10.599  19.825  0.00  0.00    +0.000 OA
BRANCH  23  24
ATOM     24  C   UNL     1      -1.322  11.566  18.812  0.00  0.00    +0.000 C 
ATOM     25  C   UNL     1      -2.152  10.929  17.688  0.00  0.00    +0.000 C 
ATOM     26  C   UNL     1      -3.615  10.671  18.033  0.00  0.00    +0.000 C 
ATOM     27  C   UNL     1      -4.311  11.866  18.668  0.00  0.00    +0.000 C 
ATOM     28  C   UNL     1      -3.516  12.479  19.812  0.00  0.00    +0.000 C 
ATOM     29  C   UNL     1      -2.058  12.750  19.452  0.00  0.00    +0.000 C 
ENDBRANCH  23  24
ENDBRANCH  20  23
ENDBRANCH  15  17
ENDBRANCH   1  13
BRANCH   1  30
ATOM     30  C   UNL     1       5.201   4.602  19.209  0.00  0.00    +0.000 C 
BRANCH  30  31
ATOM     31  O   UNL     1       5.316   3.183  19.108  0.00  0.00    +0.000 OA
BRANCH  31  32
ATOM     32  C   UNL     1       4.590   2.455  20.095  0.00  0.00    +0.000 C 
BRANCH  32  33
ATOM     33  C   UNL     1       3.114   2.695  19.912  0.00  0.00    +0.000 A 
ATOM     34  C   UNL     1       2.423   2.072  18.861  0.00  0.00    +0.000 A 
ATOM     35  C   UNL     1       1.045   2.247  18.719  0.00  0.00    +0.000 A 
ATOM     36  C   UNL     1       0.348   3.042  19.624  0.00  0.00    +0.000 A 
ATOM     37  C   UNL     1       1.024   3.665  20.670  0.00  0.00    +0.000 A 
ATOM     38  C   UNL     1       2.403   3.489  20.819  0.00  0.00    +0.000 A 
ENDBRANCH  32  33
ENDBRANCH  31  32
ENDBRANCH  30  31
ENDBRANCH   1  30
TORSDOF 11
ENDMDL
MODEL 3
REMARK VINA RESULT:      -8.3      0.972      1.465
REMARK  Name = 
REMARK  11 active torsions:
REMARK  status: ('A' for Active; 'I' for Inactive)
REMARK    1  A    between atoms: C_2  and  C_3
REMARK    2  A    between atoms: C_3  and  C_4
REMARK    3  A    between atoms: N_9  and  C_10
REMARK    4  A    between atoms: C_10  and  C_11
REMARK    5  A    between atoms: C_10  and  C_20
REMARK    6  A    between atoms: C_11  and  O_12
REMARK    7  A    between atoms: O_12  and  C_13
REMARK    8  A    between atoms: C_13  and  C_14
REMARK    9  A    between atoms: N_22  and  C_23
REMARK   10  A    between atoms: C_26  and  O_27
REMARK   11  A    between atoms: O_27  and  C_28
REMARK                            x       y       z     vdW  Elec       q    Type
REMARK                         _______ _______ _______ _____ _____    ______ ____
ROOT
ATOM      1  C   UNL     1       4.358   5.793  17.397  0.00  0.00    +0.000 C 
ENDROOT
BRANCH   1   4
ATOM      2  O   UNL     1       7.728   6.933  16.646  0.00  0.00    +0.000 OA
ATOM      3  C   UNL     1       6.791   6.135  16.710  0.00  0.00    +0.000 C 
ATOM      4  N   UNL     1       5.583   6.586  17.167  0.00  0.00    +0.000 N 
ATOM      5  H   UNL     1       5.585   7.563  17.444  0.00  0.00    +0.000 HD
BRANCH   3   6
ATOM      6  C   UNL     1       6.952   4.688  16.270  0.00  0.00    +0.000 C 
BRANCH   6   7
ATOM      7  C   UNL     1       6.991   4.581  14.789  0.00  0.00    +0.000 A 
ATOM      8  C   UNL     1       6.308   3.776  13.902  0.00  0.00    +0.000 A 
ATOM      9  N   UNL     1       6.622   4.097  12.609  0.00  0.00    +0.000 NA
ATOM     10  C   UNL     1       7.475   5.090  12.693  0.00  0.00    +0.000 A 
ATOM     11  N   UNL     1       7.755   5.402  13.992  0.00  0.00    +0.000 N 
ATOM     12  H   UNL     1       8.394   6.122  14.306  0.00  0.00    +0.000 HD
ENDBRANCH   6   7
ENDBRANCH   3   6
ENDBRANCH   1   4
BRANCH   1  13
ATOM     13  C   UNL     1       3.402   6.440  18.435  0.00  0.00    +0.000 C 
ATOM     14  O   UNL     1       3.174   5.893  19.509  0.00  0.00    +0.000 OA
ATOM     15  N   UNL     1       2.826   7.622  18.003  0.00  0.00    +0.000 N 
ATOM     16  H   UNL     1       3.075   7.923  17.070  0.00  0.00    +0.000 HD
BRANCH  15  17
ATOM     17  C   UNL     1       1.908   8.434  18.703  0.00  0.00    +0.000 A 
ATOM     18  C   UNL     1       1.582   8.285  20.053  0.00  0.00    +0.000 A 
ATOM     19  C   UNL     1       0.664   9.152  20.671  0.00  0.00    +0.000 A 
ATOM     20  C   UNL     1       0.067  10.187  19.953  0.00  0.00    +0.000 A 
ATOM     21  C   UNL     1       0.374  10.319  18.599  0.00  0.00    +0.000 A 
ATOM     22  C   UNL     1       1.288   9.456  17.982  0.00  0.00    +0.000 A 
BRANCH  20  23
ATOM     23  O   UNL     1      -0.816  10.995  20.634  0.00  0.00    +0.000 OA
BRANCH  23  24
ATOM     24  C   UNL     1      -0.295  11.612  21.828  0.00  0.00    +0.000 C 
ATOM     25  C   UNL     1      -0.199  13.137  21.673  0.00  0.00    +0.000 C 
ATOM     26  C   UNL     1      -1.524  13.883  21.785  0.00  0.00    +0.000 C 
ATOM     27  C   UNL     1      -2.356  13.470  22.990  0.00  0.00    +0.000 C 
ATOM     28  C   UNL     1      -2.494  11.960  23.129  0.00  0.00    +0.000 C 
ATOM     29  C   UNL     1      -1.160  11.224  23.035  0.00  0.00    +0.000 C 
ENDBRANCH  23  24
ENDBRANCH  20  23
ENDBRANCH  15  17
ENDBRANCH   1  13
BRANCH   1  30
ATOM     30  C   UNL     1       4.698   4.345  17.803  0.00  0.00    +0.000 C 
BRANCH  30  31
ATOM     31  O   UNL     1       3.926   3.330  17.164  0.00  0.00    +0.000 OA
BRANCH  31  32
ATOM     32  C   UNL     1       3.715   2.160  17.950  0.00  0.00    +0.000 C 
BRANCH  32  33
ATOM     33  C   UNL     1       2.837   2.496  19.127  0.00  0.00    +0.000 A 
ATOM     34  C   UNL     1       1.477   2.787  18.933  0.00  0.00    +0.000 A 
ATOM     35  C   UNL     1       0.647   3.046  20.024  0.00  0.00    +0.000 A 
ATOM     36  C   UNL     1       1.165   3.015  21.316  0.00  0.00    +0.000 A 
ATOM     37  C   UNL     1       2.513   2.727  21.520  0.00  0.00    +0.000 A 
ATOM     38  C   UNL     1       3.347   2.462  20.430  0.00  0.00    +0.000 A 
ENDBRANCH  32  33
ENDBRANCH  31  32
ENDBRANCH  30  31
ENDBRANCH   1  30
TORSDOF 11
ENDMDL
MODEL 4
REMARK VINA RESULT:      -8.2      1.069      1.487
REMARK  Name = 
REMARK  11 active torsions:
REMARK  status: ('A' for Active; 'I' for Inactive)
REMARK    1  A    between atoms: C_2  and  C_3
REMARK    2  A    between atoms: C_3  and  C_4
REMARK    3  A    between atoms: N_9  and  C_10
REMARK    4  A    between atoms: C_10  and  C_11
REMARK    5  A    between atoms: C_10  and  C_20
REMARK    6  A    between atoms: C_11  and  O_12
REMARK    7  A    between atoms: O_12  and  C_13
REMARK    8  A    between atoms: C_13  and  C_14
REMARK    9  A    between atoms: N_22  and  C_23
REMARK   10  A    between atoms: C_26  and  O_27
REMARK   11  A    between atoms: O_27  and  C_28
REMARK                            x       y       z     vdW  Elec       q    Type
REMARK                         _______ _______ _______ _____ _____    ______ ____
ROOT
ATOM      1  C   UNL     1       5.141   4.472  18.038  0.00  0.00    +0.000 C 
ENDROOT
BRANCH   1   4
ATOM      2  O   UNL     1       7.601   6.211  16.000  0.00  0.00    +0.000 OA
ATOM      3  C   UNL     1       6.546   5.622  16.244  0.00  0.00    +0.000 C 
ATOM      4  N   UNL     1       6.295   5.247  17.536  0.00  0.00    +0.000 N 
ATOM      5  H   UNL     1       7.042   5.477  18.185  0.00  0.00    +0.000 HD
BRANCH   3   6
ATOM      6  C   UNL     1       5.526   5.337  15.152  0.00  0.00    +0.000 C 
BRANCH   6   7
ATOM      7  C   UNL     1       6.173   4.727  13.962  0.00  0.00    +0.000 A 
ATOM      8  C   UNL     1       5.791   3.698  13.128  0.00  0.00    +0.000 A 
ATOM      9  N   UNL     1       6.684   3.543  12.103  0.00  0.00    +0.000 NA
ATOM     10  C   UNL     1       7.596   4.468  12.290  0.00  0.00    +0.000 A 
ATOM     11  N   UNL     1       7.349   5.193  13.420  0.00  0.00    +0.000 N 
ATOM     12  H   UNL     1       7.919   5.949  13.778  0.00  0.00    +0.000 HD
ENDBRANCH   6   7
ENDBRANCH   3   6
ENDBRANCH   1   4
BRANCH   1  13
ATOM     13  C   UNL     1       3.810   5.269  17.994  0.00  0.00    +0.000 C 
ATOM     14  O   UNL     1       2.832   4.831  17.395  0.00  0.00    +0.000 OA
ATOM     15  N   UNL     1       3.871   6.495  18.633  0.00  0.00    +0.000 N 
ATOM     16  H   UNL     1       4.764   6.739  19.040  0.00  0.00    +0.000 HD
BRANCH  15  17
ATOM     17  C   UNL     1       2.841   7.452  18.751  0.00  0.00    +0.000 A 
ATOM     18  C   UNL     1       2.445   8.325  17.736  0.00  0.00    +0.000 A 
ATOM     19  C   UNL     1       1.396   9.238  17.940  0.00  0.00    +0.000 A 
ATOM     20  C   UNL     1       0.720   9.286  19.159  0.00  0.00    +0.000 A 
ATOM     21  C   UNL     1       1.133   8.431  20.181  0.00  0.00    +0.000 A 
ATOM     22  C   UNL     1       2.178   7.521  19.978  0.00  0.00    +0.000 A 
BRANCH  20  23
ATOM     23  O   UNL     1      -0.298  10.205  19.275  0.00  0.00    +0.000 OA
BRANCH  23  24
ATOM     24  C   UNL     1       0.116  11.585  19.325  0.00  0.00    +0.000 C 
ATOM     25  C   UNL     1      -1.038  12.529  18.958  0.00  0.00    +0.000 C 
ATOM     26  C   UNL     1      -2.079  12.733  20.054  0.00  0.00    +0.000 C 
ATOM     27  C   UNL     1      -1.477  13.048  21.415  0.00  0.00    +0.000 C 
ATOM     28  C   UNL     1      -0.360  12.091  21.808  0.00  0.00    +0.000 C 
ATOM     29  C   UNL     1       0.687  11.908  20.712  0.00  0.00    +0.000 C 
ENDBRANCH  23  24
ENDBRANCH  20  23
ENDBRANCH  15  17
ENDBRANCH   1  13
BRANCH   1  30
ATOM     30  C   UNL     1       5.405   3.937  19.460  0.00  0.00    +0.000 C 
BRANCH  30  31
ATOM     31  O   UNL     1       5.185   2.539  19.641  0.00  0.00    +0.000 OA
BRANCH  31  32
ATOM     32  C   UNL     1       4.274   2.211  20.687  0.00  0.00    +0.000 C 
BRANCH  32  33
ATOM     33  C   UNL     1       2.873   2.567  20.264  0.00  0.00    +0.000 A 
ATOM     34  C   UNL     1       2.186   3.611  20.903  0.00  0.00    +0.000 A 
ATOM     35  C   UNL     1       0.908   3.981  20.480  0.00  0.00    +0.000 A 
ATOM     36  C   UNL     1       0.308   3.315  19.415  0.00  0.00    +0.000 A 
ATOM     37  C   UNL     1       0.981   2.277  18.773  0.00  0.00    +0.000 A 
ATOM     38  C   UNL     1       2.262   1.906  19.191  0.00  0.00    +0.000 A 
ENDBRANCH  32  33
ENDBRANCH  31  32
ENDBRANCH  30  31
ENDBRANCH   1  30
TORSDOF 11
ENDMDL
MODEL 5
REMARK VINA RESULT:      -8.1      1.934      2.940
REMARK  Name = 
REMARK  11 active torsions:
REMARK  status: ('A' for Active; 'I' for Inactive)
REMARK    1  A    between atoms: C_2  and  C_3
REMARK    2  A    between atoms: C_3  and  C_4
REMARK    3  A    between atoms: N_9  and  C_10
REMARK    4  A    between atoms: C_10  and  C_11
REMARK    5  A    between atoms: C_10  and  C_20
REMARK    6  A    between atoms: C_11  and  O_12
REMARK    7  A    between atoms: O_12  and  C_13
REMARK    8  A    between atoms: C_13  and  C_14
REMARK    9  A    between atoms: N_22  and  C_23
REMARK   10  A    between atoms: C_26  and  O_27
REMARK   11  A    between atoms: O_27  and  C_28
REMARK                            x       y       z     vdW  Elec       q    Type
REMARK                         _______ _______ _______ _____ _____    ______ ____
ROOT
ATOM      1  C   UNL     1       4.760   4.319  17.839  0.00  0.00    +0.000 C 
ENDROOT
BRANCH   1   4
ATOM      2  O   UNL     1       7.934   4.522  16.075  0.00  0.00    +0.000 OA
ATOM      3  C   UNL     1       7.151   4.663  17.018  0.00  0.00    +0.000 C 
ATOM      4  N   UNL     1       5.874   4.191  16.878  0.00  0.00    +0.000 N 
ATOM      5  H   UNL     1       5.683   3.781  15.968  0.00  0.00    +0.000 HD
BRANCH   3   6
ATOM      6  C   UNL     1       7.588   5.317  18.319  0.00  0.00    +0.000 C 
BRANCH   6   7
ATOM      7  C   UNL     1       7.827   6.771  18.134  0.00  0.00    +0.000 A 
ATOM      8  C   UNL     1       7.365   7.672  17.199  0.00  0.00    +0.000 A 
ATOM      9  N   UNL     1       7.799   8.939  17.483  0.00  0.00    +0.000 NA
ATOM     10  C   UNL     1       8.508   8.826  18.581  0.00  0.00    +0.000 A 
ATOM     11  N   UNL     1       8.581   7.529  19.000  0.00  0.00    +0.000 N 
ATOM     12  H   UNL     1       9.083   7.194  19.813  0.00  0.00    +0.000 HD
ENDBRANCH   6   7
ENDBRANCH   3   6
ENDBRANCH   1   4
BRANCH   1  13
ATOM     13  C   UNL     1       4.070   5.709  17.788  0.00  0.00    +0.000 C 
ATOM     14  O   UNL     1       4.332   6.510  16.896  0.00  0.00    +0.000 OA
ATOM     15  N   UNL     1       3.209   5.945  18.844  0.00  0.00    +0.000 N 
ATOM     16  H   UNL     1       3.134   5.205  19.530  0.00  0.00    +0.000 HD
BRANCH  15  17
ATOM     17  C   UNL     1       2.452   7.110  19.089  0.00  0.00    +0.000 A 
ATOM     18  C   UNL     1       1.894   7.452  20.323  0.00  0.00    +0.000 A 
ATOM     19  C   UNL     1       1.164   8.644  20.477  0.00  0.00    +0.000 A 
ATOM     20  C   UNL     1       0.990   9.517  19.404  0.00  0.00    +0.000 A 
ATOM     21  C   UNL     1       1.526   9.162  18.166  0.00  0.00    +0.000 A 
ATOM     22  C   UNL     1       2.253   7.975  18.011  0.00  0.00    +0.000 A 
BRANCH  20  23
ATOM     23  O   UNL     1       0.268  10.665  19.640  0.00  0.00    +0.000 OA
BRANCH  23  24
ATOM     24  C   UNL     1      -0.231  11.336  18.465  0.00  0.00    +0.000 C 
ATOM     25  C   UNL     1      -1.220  10.452  17.693  0.00  0.00    +0.000 C 
ATOM     26  C   UNL     1      -2.612  10.352  18.308  0.00  0.00    +0.000 C 
ATOM     27  C   UNL     1      -3.208  11.698  18.691  0.00  0.00    +0.000 C 
ATOM     28  C   UNL     1      -2.250  12.566  19.495  0.00  0.00    +0.000 C 
ATOM     29  C   UNL     1      -0.865  12.676  18.862  0.00  0.00    +0.000 C 
ENDBRANCH  23  24
ENDBRANCH  20  23
ENDBRANCH  15  17
ENDBRANCH   1  13
BRANCH   1  30
ATOM     30  C   UNL     1       5.222   3.997  19.275  0.00  0.00    +0.000 C 
BRANCH  30  31
ATOM     31  O   UNL     1       5.237   2.613  19.620  0.00  0.00    +0.000 OA
BRANCH  31  32
ATOM     32  C   UNL     1       4.312   2.244  20.640  0.00  0.00    +0.000 C 
BRANCH  32  33
ATOM     33  C   UNL     1       2.916   2.612  20.209  0.00  0.00    +0.000 A 
ATOM     34  C   UNL     1       2.325   1.971  19.109  0.00  0.00    +0.000 A 
ATOM     35  C   UNL     1       1.013   2.268  18.738  0.00  0.00    +0.000 A 
ATOM     36  C   UNL     1       0.280   3.204  19.463  0.00  0.00    +0.000 A 
ATOM     37  C   UNL     1       0.857   3.846  20.557  0.00  0.00    +0.000 A 
ATOM     38  C   UNL     1       2.170   3.548  20.934  0.00  0.00    +0.000 A 
ENDBRANCH  32  33
ENDBRANCH  31  32
ENDBRANCH  30  31
ENDBRANCH   1  30
TORSDOF 11
ENDMDL
MODEL 6
REMARK VINA RESULT:      -8.1      1.479      2.103
REMARK  Name = 
REMARK  11 active torsions:
REMARK  status: ('A' for Active; 'I' for Inactive)
REMARK    1  A    between atoms: C_2  and  C_3
REMARK    2  A    between atoms: C_3  and  C_4
REMARK    3  A    between atoms: N_9  and  C_10
REMARK    4  A    between atoms: C_10  and  C_11
REMARK    5  A    between atoms: C_10  and  C_20
REMARK    6  A    between atoms: C_11  and  O_12
REMARK    7  A    between atoms: O_12  and  C_13
REMARK    8  A    between atoms: C_13  and  C_14
REMARK    9  A    between atoms: N_22  and  C_23
REMARK   10  A    between atoms: C_26  and  O_27
REMARK   11  A    between atoms: O_27  and  C_28
REMARK                            x       y       z     vdW  Elec       q    Type
REMARK                         _______ _______ _______ _____ _____    ______ ____
ROOT
ATOM      1  C   UNL     1       4.591   4.721  16.900  0.00  0.00    +0.000 C 
ENDROOT
BRANCH   1   4
ATOM      2  O   UNL     1       8.175   4.118  16.775  0.00  0.00    +0.000 OA
ATOM      3  C   UNL     1       7.098   4.610  16.434  0.00  0.00    +0.000 C 
ATOM      4  N   UNL     1       5.984   4.309  17.170  0.00  0.00    +0.000 N 
ATOM      5  H   UNL     1       6.157   3.664  17.936  0.00  0.00    +0.000 HD
BRANCH   3   6
ATOM      6  C   UNL     1       6.998   5.552  15.245  0.00  0.00    +0.000 C 
BRANCH   6   7
ATOM      7  C   UNL     1       6.885   4.796  13.971  0.00  0.00    +0.000 A 
ATOM      8  C   UNL     1       7.592   4.866  12.790  0.00  0.00    +0.000 A 
ATOM      9  N   UNL     1       7.175   3.900  11.913  0.00  0.00    +0.000 NA
ATOM     10  C   UNL     1       6.236   3.237  12.545  0.00  0.00    +0.000 A 
ATOM     11  N   UNL     1       6.001   3.759  13.784  0.00  0.00    +0.000 N 
ATOM     12  H   UNL     1       5.314   3.426  14.449  0.00  0.00    +0.000 HD
ENDBRANCH   6   7
ENDBRANCH   3   6
ENDBRANCH   1   4
BRANCH   1  13
ATOM     13  C   UNL     1       4.213   6.062  17.583  0.00  0.00    +0.000 C 
ATOM     14  O   UNL     1       5.023   6.981  17.662  0.00  0.00    +0.000 OA
ATOM     15  N   UNL     1       2.935   6.078  18.114  0.00  0.00    +0.000 N 
ATOM     16  H   UNL     1       2.401   5.225  18.012  0.00  0.00    +0.000 HD
BRANCH  15  17
ATOM     17  C   UNL     1       2.307   7.136  18.807  0.00  0.00    +0.000 A 
ATOM     18  C   UNL     1       1.990   7.119  20.166  0.00  0.00    +0.000 A 
ATOM     19  C   UNL     1       1.376   8.227  20.776  0.00  0.00    +0.000 A 
ATOM     20  C   UNL     1       1.080   9.372  20.039  0.00  0.00    +0.000 A 
ATOM     21  C   UNL     1       1.374   9.379  18.675  0.00  0.00    +0.000 A 
ATOM     22  C   UNL     1       1.985   8.275  18.067  0.00  0.00    +0.000 A 
BRANCH  20  23
ATOM     23  O   UNL     1       0.484  10.414  20.712  0.00  0.00    +0.000 OA
BRANCH  23  24
ATOM     24  C   UNL     1       0.224  11.593  19.924  0.00  0.00    +0.000 C 
ATOM     25  C   UNL     1      -1.276  11.760  19.643  0.00  0.00    +0.000 C 
ATOM     26  C   UNL     1      -2.099  12.281  20.816  0.00  0.00    +0.000 C 
ATOM     27  C   UNL     1      -1.493  13.502  21.491  0.00  0.00    +0.000 C 
ATOM     28  C   UNL     1      -0.015  13.332  21.814  0.00  0.00    +0.000 C 
ATOM     29  C   UNL     1       0.804  12.827  20.628  0.00  0.00    +0.000 C 
ENDBRANCH  23  24
ENDBRANCH  20  23
ENDBRANCH  15  17
ENDBRANCH   1  13
BRANCH   1  30
ATOM     30  C   UNL     1       3.595   3.613  17.294  0.00  0.00    +0.000 C 
BRANCH  30  31
ATOM     31  O   UNL     1       4.141   2.298  17.386  0.00  0.00    +0.000 OA
BRANCH  31  32
ATOM     32  C   UNL     1       3.440   1.422  18.264  0.00  0.00    +0.000 C 
BRANCH  32  33
ATOM     33  C   UNL     1       2.625   2.233  19.239  0.00  0.00    +0.000 A 
ATOM     34  C   UNL     1       3.215   2.728  20.412  0.00  0.00    +0.000 A 
ATOM     35  C   UNL     1       2.481   3.525  21.292  0.00  0.00    +0.000 A 
ATOM     36  C   UNL     1       1.154   3.835  21.007  0.00  0.00    +0.000 A 
ATOM     37  C   UNL     1       0.558   3.348  19.846  0.00  0.00    +0.000 A 
ATOM     38  C   UNL     1       1.291   2.553  18.960  0.00  0.00    +0.000 A 
ENDBRANCH  32  33
ENDBRANCH  31  32
ENDBRANCH  30  31
ENDBRANCH   1  30
TORSDOF 11
ENDMDL
MODEL 7
REMARK VINA RESULT:      -7.9      1.748      3.070
REMARK  Name = 
REMARK  11 active torsions:
REMARK  status: ('A' for Active; 'I' for Inactive)
REMARK    1  A    between atoms: C_2  and  C_3
REMARK    2  A    between atoms: C_3  and  C_4
REMARK    3  A    between atoms: N_9  and  C_10
REMARK    4  A    between atoms: C_10  and  C_11
REMARK    5  A    between atoms: C_10  and  C_20
REMARK    6  A    between atoms: C_11  and  O_12
REMARK    7  A    between atoms: O_12  and  C_13
REMARK    8  A    between atoms: C_13  and  C_14
REMARK    9  A    between atoms: N_22  and  C_23
REMARK   10  A    between atoms: C_26  and  O_27
REMARK   11  A    between atoms: O_27  and  C_28
REMARK                            x       y       z     vdW  Elec       q    Type
REMARK                         _______ _______ _______ _____ _____    ______ ____
ROOT
ATOM      1  C   UNL     1       4.632   4.431  15.848  0.00  0.00    +0.000 C 
ENDROOT
BRANCH   1   4
ATOM      2  O   UNL     1       8.081   5.017  14.855  0.00  0.00    +0.000 OA
ATOM      3  C   UNL     1       7.141   4.842  15.634  0.00  0.00    +0.000 C 
ATOM      4  N   UNL     1       5.902   4.593  15.110  0.00  0.00    +0.000 N 
ATOM      5  H   UNL     1       5.873   4.603  14.095  0.00  0.00    +0.000 HD
BRANCH   3   6
ATOM      6  C   UNL     1       7.344   4.873  17.141  0.00  0.00    +0.000 C 
BRANCH   6   7
ATOM      7  C   UNL     1       7.640   6.250  17.613  0.00  0.00    +0.000 A 
ATOM      8  C   UNL     1       8.231   6.725  18.764  0.00  0.00    +0.000 A 
ATOM      9  N   UNL     1       8.365   8.086  18.719  0.00  0.00    +0.000 NA
ATOM     10  C   UNL     1       7.877   8.447  17.556  0.00  0.00    +0.000 A 
ATOM     11  N   UNL     1       7.398   7.375  16.859  0.00  0.00    +0.000 N 
ATOM     12  H   UNL     1       6.963   7.406  15.946  0.00  0.00    +0.000 HD
ENDBRANCH   6   7
ENDBRANCH   3   6
ENDBRANCH   1   4
BRANCH   1  13
ATOM     13  C   UNL     1       4.175   5.731  16.561  0.00  0.00    +0.000 C 
ATOM     14  O   UNL     1       4.613   6.825  16.220  0.00  0.00    +0.000 OA
ATOM     15  N   UNL     1       3.299   5.515  17.610  0.00  0.00    +0.000 N 
ATOM     16  H   UNL     1       3.067   4.550  17.803  0.00  0.00    +0.000 HD
BRANCH  15  17
ATOM     17  C   UNL     1       2.722   6.484  18.459  0.00  0.00    +0.000 A 
ATOM     18  C   UNL     1       2.402   6.277  19.802  0.00  0.00    +0.000 A 
ATOM     19  C   UNL     1       1.841   7.308  20.576  0.00  0.00    +0.000 A 
ATOM     20  C   UNL     1       1.600   8.564  20.022  0.00  0.00    +0.000 A 
ATOM     21  C   UNL     1       1.896   8.763  18.673  0.00  0.00    +0.000 A 
ATOM     22  C   UNL     1       2.455   7.736  17.901  0.00  0.00    +0.000 A 
BRANCH  20  23
ATOM     23  O   UNL     1       1.054   9.520  20.848  0.00  0.00    +0.000 OA
BRANCH  23  24
ATOM     24  C   UNL     1      -0.377   9.450  21.015  0.00  0.00    +0.000 C 
ATOM     25  C   UNL     1      -0.773   9.545  22.495  0.00  0.00    +0.000 C 
ATOM     26  C   UNL     1      -0.704  10.947  23.093  0.00  0.00    +0.000 C 
ATOM     27  C   UNL     1      -1.381  12.007  22.238  0.00  0.00    +0.000 C 
ATOM     28  C   UNL     1      -0.962  11.950  20.775  0.00  0.00    +0.000 C 
ATOM     29  C   UNL     1      -1.051  10.546  20.181  0.00  0.00    +0.000 C 
ENDBRANCH  23  24
ENDBRANCH  20  23
ENDBRANCH  15  17
ENDBRANCH   1  13
BRANCH   1  30
ATOM     30  C   UNL     1       4.715   3.263  16.852  0.00  0.00    +0.000 C 
BRANCH  30  31
ATOM     31  O   UNL     1       3.494   2.564  17.084  0.00  0.00    +0.000 OA
BRANCH  31  32
ATOM     32  C   UNL     1       3.527   1.657  18.183  0.00  0.00    +0.000 C 
BRANCH  32  33
ATOM     33  C   UNL     1       2.746   2.234  19.335  0.00  0.00    +0.000 A 
ATOM     34  C   UNL     1       1.391   2.565  19.174  0.00  0.00    +0.000 A 
ATOM     35  C   UNL     1       0.648   3.049  20.251  0.00  0.00    +0.000 A 
ATOM     36  C   UNL     1       1.249   3.204  21.498  0.00  0.00    +0.000 A 
ATOM     37  C   UNL     1       2.593   2.878  21.669  0.00  0.00    +0.000 A 
ATOM     38  C   UNL     1       3.340   2.389  20.593  0.00  0.00    +0.000 A 
ENDBRANCH  32  33
ENDBRANCH  31  32
ENDBRANCH  30  31
ENDBRANCH   1  30
TORSDOF 11
ENDMDL
MODEL 8
REMARK VINA RESULT:      -7.9      2.298      5.725
REMARK  Name = 
REMARK  11 active torsions:
REMARK  status: ('A' for Active; 'I' for Inactive)
REMARK    1  A    between atoms: C_2  and  C_3
REMARK    2  A    between atoms: C_3  and  C_4
REMARK    3  A    between atoms: N_9  and  C_10
REMARK    4  A    between atoms: C_10  and  C_11
REMARK    5  A    between atoms: C_10  and  C_20
REMARK    6  A    between atoms: C_11  and  O_12
REMARK    7  A    between atoms: O_12  and  C_13
REMARK    8  A    between atoms: C_13  and  C_14
REMARK    9  A    between atoms: N_22  and  C_23
REMARK   10  A    between atoms: C_26  and  O_27
REMARK   11  A    between atoms: O_27  and  C_28
REMARK                            x       y       z     vdW  Elec       q    Type
REMARK                         _______ _______ _______ _____ _____    ______ ____
ROOT
ATOM      1  C   UNL     1       5.531   4.714  17.320  0.00  0.00    +0.000 C 
ENDROOT
BRANCH   1   4
ATOM      2  O   UNL     1       3.179   1.942  17.418  0.00  0.00    +0.000 OA
ATOM      3  C   UNL     1       3.979   2.764  17.869  0.00  0.00    +0.000 C 
ATOM      4  N   UNL     1       4.507   3.694  17.015  0.00  0.00    +0.000 N 
ATOM      5  H   UNL     1       4.196   3.594  16.053  0.00  0.00    +0.000 HD
BRANCH   3   6
ATOM      6  C   UNL     1       4.359   2.775  19.342  0.00  0.00    +0.000 C 
BRANCH   6   7
ATOM      7  C   UNL     1       3.154   2.876  20.204  0.00  0.00    +0.000 A 
ATOM      8  C   UNL     1       2.926   2.528  21.518  0.00  0.00    +0.000 A 
ATOM      9  N   UNL     1       1.664   2.890  21.908  0.00  0.00    +0.000 NA
ATOM     10  C   UNL     1       1.125   3.463  20.858  0.00  0.00    +0.000 A 
ATOM     11  N   UNL     1       1.975   3.454  19.791  0.00  0.00    +0.000 N 
ATOM     12  H   UNL     1       1.777   3.825  18.869  0.00  0.00    +0.000 HD
ENDBRANCH   6   7
ENDBRANCH   3   6
ENDBRANCH   1   4
BRANCH   1  13
ATOM     13  C   UNL     1       4.924   6.111  17.620  0.00  0.00    +0.000 C 
ATOM     14  O   UNL     1       5.572   7.135  17.428  0.00  0.00    +0.000 OA
ATOM     15  N   UNL     1       3.649   6.063  18.155  0.00  0.00    +0.000 N 
ATOM     16  H   UNL     1       3.263   5.139  18.301  0.00  0.00    +0.000 HD
BRANCH  15  17
ATOM     17  C   UNL     1       2.842   7.153  18.547  0.00  0.00    +0.000 A 
ATOM     18  C   UNL     1       2.510   8.233  17.727  0.00  0.00    +0.000 A 
ATOM     19  C   UNL     1       1.686   9.269  18.200  0.00  0.00    +0.000 A 
ATOM     20  C   UNL     1       1.174   9.236  19.497  0.00  0.00    +0.000 A 
ATOM     21  C   UNL     1       1.527   8.170  20.323  0.00  0.00    +0.000 A 
ATOM     22  C   UNL     1       2.348   7.137  19.853  0.00  0.00    +0.000 A 
BRANCH  20  23
ATOM     23  O   UNL     1       0.371  10.287  19.881  0.00  0.00    +0.000 OA
BRANCH  23  24
ATOM     24  C   UNL     1       0.120  11.277  18.863  0.00  0.00    +0.000 C 
ATOM     25  C   UNL     1      -1.368  11.327  18.486  0.00  0.00    +0.000 C 
ATOM     26  C   UNL     1      -2.266  12.036  19.494  0.00  0.00    +0.000 C 
ATOM     27  C   UNL     1      -1.732  13.389  19.941  0.00  0.00    +0.000 C 
ATOM     28  C   UNL     1      -0.269  13.342  20.359  0.00  0.00    +0.000 C 
ATOM     29  C   UNL     1       0.626  12.647  19.336  0.00  0.00    +0.000 C 
ENDBRANCH  23  24
ENDBRANCH  20  23
ENDBRANCH  15  17
ENDBRANCH   1  13
BRANCH   1  30
ATOM     30  C   UNL     1       6.577   4.810  16.191  0.00  0.00    +0.000 C 
BRANCH  30  31
ATOM     31  O   UNL     1       6.335   3.980  15.057  0.00  0.00    +0.000 OA
BRANCH  31  32
ATOM     32  C   UNL     1       6.626   4.589  13.801  0.00  0.00    +0.000 C 
BRANCH  32  33
ATOM     33  C   UNL     1       6.376   3.600  12.692  0.00  0.00    +0.000 A 
ATOM     34  C   UNL     1       7.455   2.968  12.054  0.00  0.00    +0.000 A 
ATOM     35  C   UNL     1       7.229   2.012  11.063  0.00  0.00    +0.000 A 
ATOM     36  C   UNL     1       5.925   1.677  10.704  0.00  0.00    +0.000 A 
ATOM     37  C   UNL     1       4.848   2.299  11.330  0.00  0.00    +0.000 A 
ATOM     38  C   UNL     1       5.070   3.254  12.327  0.00  0.00    +0.000 A 
ENDBRANCH  32  33
ENDBRANCH  31  32
ENDBRANCH  30  31
ENDBRANCH   1  30
TORSDOF 11
ENDMDL
MODEL 9
REMARK VINA RESULT:      -7.9      1.331      1.871
REMARK  Name = 
REMARK  11 active torsions:
REMARK  status: ('A' for Active; 'I' for Inactive)
REMARK    1  A    between atoms: C_2  and  C_3
REMARK    2  A    between atoms: C_3  and  C_4
REMARK    3  A    between atoms: N_9  and  C_10
REMARK    4  A    between atoms: C_10  and  C_11
REMARK    5  A    between atoms: C_10  and  C_20
REMARK    6  A    between atoms: C_11  and  O_12
REMARK    7  A    between atoms: O_12  and  C_13
REMARK    8  A    between atoms: C_13  and  C_14
REMARK    9  A    between atoms: N_22  and  C_23
REMARK   10  A    between atoms: C_26  and  O_27
REMARK   11  A    between atoms: O_27  and  C_28
REMARK                            x       y       z     vdW  Elec       q    Type
REMARK                         _______ _______ _______ _____ _____    ______ ____
ROOT
ATOM      1  C   UNL     1       3.832   5.512  17.757  0.00  0.00    +0.000 C 
ENDROOT
BRANCH   1   4
ATOM      2  O   UNL     1       7.318   4.772  18.480  0.00  0.00    +0.000 OA
ATOM      3  C   UNL     1       6.369   5.269  17.870  0.00  0.00    +0.000 C 
ATOM      4  N   UNL     1       5.107   5.076  18.362  0.00  0.00    +0.000 N 
ATOM      5  H   UNL     1       5.074   4.500  19.198  0.00  0.00    +0.000 HD
BRANCH   3   6
ATOM      6  C   UNL     1       6.583   6.101  16.615  0.00  0.00    +0.000 C 
BRANCH   6   7
ATOM      7  C   UNL     1       6.653   5.240  15.407  0.00  0.00    +0.000 A 
ATOM      8  C   UNL     1       5.827   4.242  14.934  0.00  0.00    +0.000 A 
ATOM      9  N   UNL     1       6.262   3.782  13.720  0.00  0.00    +0.000 NA
ATOM     10  C   UNL     1       7.330   4.490  13.440  0.00  0.00    +0.000 A 
ATOM     11  N   UNL     1       7.627   5.367  14.443  0.00  0.00    +0.000 N 
ATOM     12  H   UNL     1       8.411   6.008  14.460  0.00  0.00    +0.000 HD
ENDBRANCH   6   7
ENDBRANCH   3   6
ENDBRANCH   1   4
BRANCH   1  13
ATOM     13  C   UNL     1       2.956   6.350  18.726  0.00  0.00    +0.000 C 
ATOM     14  O   UNL     1       2.640   5.914  19.828  0.00  0.00    +0.000 OA
ATOM     15  N   UNL     1       2.550   7.565  18.202  0.00  0.00    +0.000 N 
ATOM     16  H   UNL     1       2.851   7.764  17.257  0.00  0.00    +0.000 HD
BRANCH  15  17
ATOM     17  C   UNL     1       1.738   8.538  18.824  0.00  0.00    +0.000 A 
ATOM     18  C   UNL     1       1.543   8.649  20.202  0.00  0.00    +0.000 A 
ATOM     19  C   UNL     1       0.726   9.662  20.734  0.00  0.00    +0.000 A 
ATOM     20  C   UNL     1       0.100  10.586  19.897  0.00  0.00    +0.000 A 
ATOM     21  C   UNL     1       0.275  10.458  18.519  0.00  0.00    +0.000 A 
ATOM     22  C   UNL     1       1.089   9.449  17.988  0.00  0.00    +0.000 A 
BRANCH  20  23
ATOM     23  O   UNL     1      -0.678  11.549  20.498  0.00  0.00    +0.000 OA
BRANCH  23  24
ATOM     24  C   UNL     1      -1.364  12.441  19.597  0.00  0.00    +0.000 C 
ATOM     25  C   UNL     1      -2.886  12.244  19.663  0.00  0.00    +0.000 C 
ATOM     26  C   UNL     1      -3.563  12.851  20.888  0.00  0.00    +0.000 C 
ATOM     27  C   UNL     1      -3.148  14.288  21.163  0.00  0.00    +0.000 C 
ATOM     28  C   UNL     1      -1.639  14.487  21.143  0.00  0.00    +0.000 C 
ATOM     29  C   UNL     1      -0.972  13.893  19.905  0.00  0.00    +0.000 C 
ENDBRANCH  23  24
ENDBRANCH  20  23
ENDBRANCH  15  17
ENDBRANCH   1  13
BRANCH   1  30
ATOM     30  C   UNL     1       3.035   4.310  17.209  0.00  0.00    +0.000 C 
BRANCH  30  31
ATOM     31  O   UNL     1       3.736   3.068  17.183  0.00  0.00    +0.000 OA
BRANCH  31  32
ATOM     32  C   UNL     1       3.015   1.966  17.727  0.00  0.00    +0.000 C 
BRANCH  32  33
ATOM     33  C   UNL     1       2.480   2.336  19.086  0.00  0.00    +0.000 A 
ATOM     34  C   UNL     1       3.332   2.341  20.202  0.00  0.00    +0.000 A 
ATOM     35  C   UNL     1       2.856   2.735  21.454  0.00  0.00    +0.000 A 
ATOM     36  C   UNL     1       1.528   3.128  21.601  0.00  0.00    +0.000 A 
ATOM     37  C   UNL     1       0.674   3.125  20.500  0.00  0.00    +0.000 A 
ATOM     38  C   UNL     1       1.148   2.736  19.244  0.00  0.00    +0.000 A 
ENDBRANCH  32  33
ENDBRANCH  31  32
ENDBRANCH  30  31
ENDBRANCH   1  30
TORSDOF 11
ENDMDL
