MODEL 1
REMARK VINA RESULT:      -6.6      0.000      0.000
REMARK  Name = 
REMARK  4 active torsions:
REMARK  status: ('A' for Active; 'I' for Inactive)
REMARK    1  A    between atoms: C_1  and  C_2
REMARK    2  A    between atoms: C_6  and  C_7
REMARK    3  A    between atoms: C_8  and  N_9
REMARK    4  A    between atoms: N_12  and  N_13
REMARK                            x       y       z     vdW  Elec       q    Type
REMARK                         _______ _______ _______ _____ _____    ______ ____
ROOT
ATOM      1  N   UNL     1       5.116   5.108  19.664  0.00  0.00    +0.000 N 
ATOM      2  C   UNL     1       6.402   5.031  19.217  0.00  0.00    +0.000 C 
ATOM      3  O   UNL     1       7.314   5.582  19.830  0.00  0.00    +0.000 OA
ATOM      4  N   UNL     1       6.626   4.273  18.081  0.00  0.00    +0.000 N 
ATOM      5  H   UNL     1       5.085   5.411  20.628  0.00  0.00    +0.000 HD
ATOM      6  H   UNL     1       5.978   3.516  17.905  0.00  0.00    +0.000 HD
ENDROOT
BRANCH   1  14
ATOM      7  C   UNL     1       4.445   2.183  20.146  0.00  0.00    +0.000 C 
ATOM      8  C   UNL     1       3.605   3.160  19.361  0.00  0.00    +0.000 A 
ATOM      9  C   UNL     1       2.458   2.628  18.742  0.00  0.00    +0.000 A 
ATOM     10  C   UNL     1       1.648   3.404  17.928  0.00  0.00    +0.000 A 
ATOM     11  C   UNL     1       1.978   4.733  17.699  0.00  0.00    +0.000 A 
ATOM     12  C   UNL     1       3.127   5.298  18.280  0.00  0.00    +0.000 A 
ATOM     13  C   UNL     1       3.389   6.754  17.985  0.00  0.00    +0.000 C 
ATOM     14  C   UNL     1       3.940   4.517  19.139  0.00  0.00    +0.000 A 
ENDBRANCH   1  14
BRANCH   4  15
ATOM     15  N   UNL     1       7.959   4.137  17.595  0.00  0.00    +0.000 NA
ATOM     16  H   UNL     1       8.482   3.626  18.315  0.00  0.00    +0.000 HD
ATOM     17  H   UNL     1       8.375   5.072  17.616  0.00  0.00    +0.000 HD
ENDBRANCH   4  15
TORSDOF 2
ENDMDL
MODEL 2
REMARK VINA RESULT:      -6.5      0.243      2.442
REMARK  Name = 
REMARK  4 active torsions:
REMARK  status: ('A' for Active; 'I' for Inactive)
REMARK    1  A    between atoms: C_1  and  C_2
REMARK    2  A    between atoms: C_6  and  C_7
REMARK    3  A    between atoms: C_8  and  N_9
REMARK    4  A    between atoms: N_12  and  N_13
REMARK                            x       y       z     vdW  Elec       q    Type
REMARK                         _______ _______ _______ _____ _____    ______ ____
ROOT
ATOM      1  N   UNL     1       5.184   4.956  19.501  0.00  0.00    +0.000 N 
ATOM      2  C   UNL     1       6.437   4.921  18.966  0.00  0.00    +0.000 C 
ATOM      3  O   UNL     1       7.398   5.363  19.590  0.00  0.00    +0.000 OA
ATOM      4  N   UNL     1       6.571   4.327  17.723  0.00  0.00    +0.000 N 
ATOM      5  H   UNL     1       5.219   5.120  20.498  0.00  0.00    +0.000 HD
ATOM      6  H   UNL     1       5.894   3.615  17.485  0.00  0.00    +0.000 HD
ENDROOT
BRANCH   1  14
ATOM      7  C   UNL     1       3.313   6.728  17.889  0.00  0.00    +0.000 C 
ATOM      8  C   UNL     1       3.083   5.273  18.213  0.00  0.00    +0.000 A 
ATOM      9  C   UNL     1       1.853   4.735  17.791  0.00  0.00    +0.000 A 
ATOM     10  C   UNL     1       1.488   3.433  18.096  0.00  0.00    +0.000 A 
ATOM     11  C   UNL     1       2.343   2.641  18.852  0.00  0.00    +0.000 A 
ATOM     12  C   UNL     1       3.571   3.146  19.313  0.00  0.00    +0.000 A 
ATOM     13  C   UNL     1       4.436   2.203  20.110  0.00  0.00    +0.000 C 
ATOM     14  C   UNL     1       3.962   4.466  18.975  0.00  0.00    +0.000 A 
ENDBRANCH   1  14
BRANCH   4  15
ATOM     15  N   UNL     1       7.868   4.238  17.138  0.00  0.00    +0.000 NA
ATOM     16  H   UNL     1       8.039   3.243  16.957  0.00  0.00    +0.000 HD
ATOM     17  H   UNL     1       8.538   4.465  17.877  0.00  0.00    +0.000 HD
ENDBRANCH   4  15
TORSDOF 2
ENDMDL
MODEL 3
REMARK VINA RESULT:      -6.4      1.510      1.691
REMARK  Name = 
REMARK  4 active torsions:
REMARK  status: ('A' for Active; 'I' for Inactive)
REMARK    1  A    between atoms: C_1  and  C_2
REMARK    2  A    between atoms: C_6  and  C_7
REMARK    3  A    between atoms: C_8  and  N_9
REMARK    4  A    between atoms: N_12  and  N_13
REMARK                            x       y       z     vdW  Elec       q    Type
REMARK                         _______ _______ _______ _____ _____    ______ ____
ROOT
ATOM      1  N   UNL     1       5.855   4.246  17.739  0.00  0.00    +0.000 N 
ATOM      2  C   UNL     1       7.028   4.559  18.360  0.00  0.00    +0.000 C 
ATOM      3  O   UNL     1       8.106   4.328  17.818  0.00  0.00    +0.000 OA
ATOM      4  N   UNL     1       6.937   5.183  19.592  0.00  0.00    +0.000 N 
ATOM      5  H   UNL     1       6.000   4.082  16.753  0.00  0.00    +0.000 HD
ATOM      6  H   UNL     1       6.107   5.734  19.762  0.00  0.00    +0.000 HD
ENDROOT
BRANCH   1  14
ATOM      7  C   UNL     1       4.358   2.205  19.422  0.00  0.00    +0.000 C 
ATOM      8  C   UNL     1       3.811   3.532  18.957  0.00  0.00    +0.000 A 
ATOM      9  C   UNL     1       2.464   3.788  19.275  0.00  0.00    +0.000 A 
ATOM     10  C   UNL     1       1.821   4.936  18.836  0.00  0.00    +0.000 A 
ATOM     11  C   UNL     1       2.511   5.849  18.050  0.00  0.00    +0.000 A 
ATOM     12  C   UNL     1       3.851   5.621  17.691  0.00  0.00    +0.000 A 
ATOM     13  C   UNL     1       4.517   6.681  16.850  0.00  0.00    +0.000 C 
ATOM     14  C   UNL     1       4.521   4.465  18.164  0.00  0.00    +0.000 A 
ENDBRANCH   1  14
BRANCH   4  15
ATOM     15  N   UNL     1       8.137   5.559  20.264  0.00  0.00    +0.000 NA
ATOM     16  H   UNL     1       7.926   5.548  21.268  0.00  0.00    +0.000 HD
ATOM     17  H   UNL     1       8.287   6.551  20.062  0.00  0.00    +0.000 HD
ENDBRANCH   4  15
TORSDOF 2
ENDMDL
MODEL 4
REMARK VINA RESULT:      -6.3      2.010      2.105
REMARK  Name = 
REMARK  4 active torsions:
REMARK  status: ('A' for Active; 'I' for Inactive)
REMARK    1  A    between atoms: C_1  and  C_2
REMARK    2  A    between atoms: C_6  and  C_7
REMARK    3  A    between atoms: C_8  and  N_9
REMARK    4  A    between atoms: N_12  and  N_13
REMARK                            x       y       z     vdW  Elec       q    Type
REMARK                         _______ _______ _______ _____ _____    ______ ____
ROOT
ATOM      1  N   UNL     1       3.922   4.211  17.310  0.00  0.00    +0.000 N 
ATOM      2  C   UNL     1       5.274   4.293  17.152  0.00  0.00    +0.000 C 
ATOM      3  O   UNL     1       5.765   4.498  16.045  0.00  0.00    +0.000 OA
ATOM      4  N   UNL     1       6.046   4.180  18.296  0.00  0.00    +0.000 N 
ATOM      5  H   UNL     1       3.440   4.595  16.509  0.00  0.00    +0.000 HD
ATOM      6  H   UNL     1       5.615   4.467  19.165  0.00  0.00    +0.000 HD
ENDROOT
BRANCH   1  14
ATOM      7  C   UNL     1       3.446   1.451  18.491  0.00  0.00    +0.000 C 
ATOM      8  C   UNL     1       2.935   2.751  19.062  0.00  0.00    +0.000 A 
ATOM      9  C   UNL     1       2.103   2.644  20.192  0.00  0.00    +0.000 A 
ATOM     10  C   UNL     1       1.507   3.758  20.762  0.00  0.00    +0.000 A 
ATOM     11  C   UNL     1       1.716   5.010  20.199  0.00  0.00    +0.000 A 
ATOM     12  C   UNL     1       2.521   5.160  19.057  0.00  0.00    +0.000 A 
ATOM     13  C   UNL     1       2.701   6.562  18.532  0.00  0.00    +0.000 C 
ATOM     14  C   UNL     1       3.159   4.027  18.491  0.00  0.00    +0.000 A 
ENDBRANCH   1  14
BRANCH   4  15
ATOM     15  N   UNL     1       7.462   4.291  18.184  0.00  0.00    +0.000 NA
ATOM     16  H   UNL     1       7.757   4.985  18.880  0.00  0.00    +0.000 HD
ATOM     17  H   UNL     1       7.650   4.755  17.291  0.00  0.00    +0.000 HD
ENDBRANCH   4  15
TORSDOF 2
ENDMDL
MODEL 5
REMARK VINA RESULT:      -6.3      2.864      4.028
REMARK  Name = 
REMARK  4 active torsions:
REMARK  status: ('A' for Active; 'I' for Inactive)
REMARK    1  A    between atoms: C_1  and  C_2
REMARK    2  A    between atoms: C_6  and  C_7
REMARK    3  A    between atoms: C_8  and  N_9
REMARK    4  A    between atoms: N_12  and  N_13
REMARK                            x       y       z     vdW  Elec       q    Type
REMARK                         _______ _______ _______ _____ _____    ______ ____
ROOT
ATOM      1  N   UNL     1       3.599   3.116  17.423  0.00  0.00    +0.000 N 
ATOM      2  C   UNL     1       3.929   2.218  18.394  0.00  0.00    +0.000 C 
ATOM      3  O   UNL     1       3.519   1.061  18.344  0.00  0.00    +0.000 OA
ATOM      4  N   UNL     1       4.774   2.661  19.397  0.00  0.00    +0.000 N 
ATOM      5  H   UNL     1       3.246   2.648  16.600  0.00  0.00    +0.000 HD
ATOM      6  H   UNL     1       5.410   3.410  19.157  0.00  0.00    +0.000 HD
ENDROOT
BRANCH   1  14
ATOM      7  C   UNL     1       2.157   5.378  18.853  0.00  0.00    +0.000 C 
ATOM      8  C   UNL     1       3.344   5.534  17.936  0.00  0.00    +0.000 A 
ATOM      9  C   UNL     1       3.750   6.856  17.673  0.00  0.00    +0.000 A 
ATOM     10  C   UNL     1       4.776   7.136  16.785  0.00  0.00    +0.000 A 
ATOM     11  C   UNL     1       5.412   6.095  16.122  0.00  0.00    +0.000 A 
ATOM     12  C   UNL     1       5.024   4.761  16.338  0.00  0.00    +0.000 A 
ATOM     13  C   UNL     1       5.788   3.702  15.585  0.00  0.00    +0.000 C 
ATOM     14  C   UNL     1       3.997   4.469  17.270  0.00  0.00    +0.000 A 
ENDBRANCH   1  14
BRANCH   4  15
ATOM     15  N   UNL     1       5.171   1.748  20.416  0.00  0.00    +0.000 NA
ATOM     16  H   UNL     1       5.219   0.822  19.977  0.00  0.00    +0.000 HD
ATOM     17  H   UNL     1       4.380   1.666  21.061  0.00  0.00    +0.000 HD
ENDBRANCH   4  15
TORSDOF 2
ENDMDL
MODEL 6
REMARK VINA RESULT:      -6.3      2.867      3.912
REMARK  Name = 
REMARK  4 active torsions:
REMARK  status: ('A' for Active; 'I' for Inactive)
REMARK    1  A    between atoms: C_1  and  C_2
REMARK    2  A    between atoms: C_6  and  C_7
REMARK    3  A    between atoms: C_8  and  N_9
REMARK    4  A    between atoms: N_12  and  N_13
REMARK                            x       y       z     vdW  Elec       q    Type
REMARK                         _______ _______ _______ _____ _____    ______ ____
ROOT
ATOM      1  N   UNL     1       3.472   3.100  17.416  0.00  0.00    +0.000 N 
ATOM      2  C   UNL     1       3.827   2.227  18.402  0.00  0.00    +0.000 C 
ATOM      3  O   UNL     1       3.371   1.087  18.424  0.00  0.00    +0.000 OA
ATOM      4  N   UNL     1       4.749   2.674  19.333  0.00  0.00    +0.000 N 
ATOM      5  H   UNL     1       3.051   2.614  16.636  0.00  0.00    +0.000 HD
ATOM      6  H   UNL     1       5.397   3.387  19.024  0.00  0.00    +0.000 HD
ENDROOT
BRANCH   1  14
ATOM      7  C   UNL     1       5.856   3.706  15.630  0.00  0.00    +0.000 C 
ATOM      8  C   UNL     1       5.012   4.731  16.347  0.00  0.00    +0.000 A 
ATOM      9  C   UNL     1       5.433   6.068  16.228  0.00  0.00    +0.000 A 
ATOM     10  C   UNL     1       4.790   7.094  16.903  0.00  0.00    +0.000 A 
ATOM     11  C   UNL     1       3.716   6.800  17.733  0.00  0.00    +0.000 A 
ATOM     12  C   UNL     1       3.277   5.475  17.898  0.00  0.00    +0.000 A 
ATOM     13  C   UNL     1       2.091   5.261  18.805  0.00  0.00    +0.000 C 
ATOM     14  C   UNL     1       3.911   4.428  17.184  0.00  0.00    +0.000 A 
ENDBRANCH   1  14
BRANCH   4  15
ATOM     15  N   UNL     1       5.174   1.786  20.363  0.00  0.00    +0.000 NA
ATOM     16  H   UNL     1       4.327   1.483  20.856  0.00  0.00    +0.000 HD
ATOM     17  H   UNL     1       5.664   2.356  21.058  0.00  0.00    +0.000 HD
ENDBRANCH   4  15
TORSDOF 2
ENDMDL
MODEL 7
REMARK VINA RESULT:      -6.3      2.003      2.161
REMARK  Name = 
REMARK  4 active torsions:
REMARK  status: ('A' for Active; 'I' for Inactive)
REMARK    1  A    between atoms: C_1  and  C_2
REMARK    2  A    between atoms: C_6  and  C_7
REMARK    3  A    between atoms: C_8  and  N_9
REMARK    4  A    between atoms: N_12  and  N_13
REMARK                            x       y       z     vdW  Elec       q    Type
REMARK                         _______ _______ _______ _____ _____    ______ ____
ROOT
ATOM      1  N   UNL     1       4.544   4.201  16.694  0.00  0.00    +0.000 N 
ATOM      2  C   UNL     1       5.901   4.120  16.583  0.00  0.00    +0.000 C 
ATOM      3  O   UNL     1       6.436   4.042  15.481  0.00  0.00    +0.000 OA
ATOM      4  N   UNL     1       6.630   4.178  17.759  0.00  0.00    +0.000 N 
ATOM      5  H   UNL     1       4.122   4.451  15.811  0.00  0.00    +0.000 HD
ATOM      6  H   UNL     1       6.210   4.680  18.530  0.00  0.00    +0.000 HD
ENDROOT
BRANCH   1  14
ATOM      7  C   UNL     1       3.428   1.787  18.167  0.00  0.00    +0.000 C 
ATOM      8  C   UNL     1       3.219   3.229  18.558  0.00  0.00    +0.000 A 
ATOM      9  C   UNL     1       2.365   3.452  19.654  0.00  0.00    +0.000 A 
ATOM     10  C   UNL     1       2.029   4.734  20.062  0.00  0.00    +0.000 A 
ATOM     11  C   UNL     1       2.529   5.828  19.367  0.00  0.00    +0.000 A 
ATOM     12  C   UNL     1       3.367   5.649  18.253  0.00  0.00    +0.000 A 
ATOM     13  C   UNL     1       3.872   6.899  17.577  0.00  0.00    +0.000 C 
ATOM     14  C   UNL     1       3.739   4.341  17.853  0.00  0.00    +0.000 A 
ENDBRANCH   1  14
BRANCH   4  15
ATOM     15  N   UNL     1       8.053   4.130  17.689  0.00  0.00    +0.000 NA
ATOM     16  H   UNL     1       8.315   4.537  16.786  0.00  0.00    +0.000 HD
ATOM     17  H   UNL     1       8.308   3.144  17.590  0.00  0.00    +0.000 HD
ENDBRANCH   4  15
TORSDOF 2
ENDMDL
MODEL 8
REMARK VINA RESULT:      -6.3      1.862      2.063
REMARK  Name = 
REMARK  4 active torsions:
REMARK  status: ('A' for Active; 'I' for Inactive)
REMARK    1  A    between atoms: C_1  and  C_2
REMARK    2  A    between atoms: C_6  and  C_7
REMARK    3  A    between atoms: C_8  and  N_9
REMARK    4  A    between atoms: N_12  and  N_13
REMARK                            x       y       z     vdW  Elec       q    Type
REMARK                         _______ _______ _______ _____ _____    ______ ____
ROOT
ATOM      1  N   UNL     1       4.002   4.731  17.999  0.00  0.00    +0.000 N 
ATOM      2  C   UNL     1       5.306   5.079  18.199  0.00  0.00    +0.000 C 
ATOM      3  O   UNL     1       5.969   5.576  17.293  0.00  0.00    +0.000 OA
ATOM      4  N   UNL     1       5.816   4.886  19.472  0.00  0.00    +0.000 N 
ATOM      5  H   UNL     1       3.634   5.170  17.166  0.00  0.00    +0.000 HD
ATOM      6  H   UNL     1       5.155   4.920  20.236  0.00  0.00    +0.000 HD
ENDROOT
BRANCH   1  14
ATOM      7  C   UNL     1       3.491   1.741  18.188  0.00  0.00    +0.000 C 
ATOM      8  C   UNL     1       2.816   2.802  19.021  0.00  0.00    +0.000 A 
ATOM      9  C   UNL     1       1.810   2.351  19.895  0.00  0.00    +0.000 A 
ATOM     10  C   UNL     1       1.060   3.235  20.655  0.00  0.00    +0.000 A 
ATOM     11  C   UNL     1       1.290   4.600  20.543  0.00  0.00    +0.000 A 
ATOM     12  C   UNL     1       2.269   5.095  19.665  0.00  0.00    +0.000 A 
ATOM     13  C   UNL     1       2.455   6.591  19.628  0.00  0.00    +0.000 C 
ATOM     14  C   UNL     1       3.060   4.192  18.910  0.00  0.00    +0.000 A 
ENDBRANCH   1  14
BRANCH   4  15
ATOM     15  N   UNL     1       7.164   5.265  19.737  0.00  0.00    +0.000 NA
ATOM     16  H   UNL     1       7.482   4.684  20.521  0.00  0.00    +0.000 HD
ATOM     17  H   UNL     1       7.131   6.207  20.137  0.00  0.00    +0.000 HD
ENDBRANCH   4  15
TORSDOF 2
ENDMDL
MODEL 9
REMARK VINA RESULT:      -6.2      2.037      3.160
REMARK  Name = 
REMARK  4 active torsions:
REMARK  status: ('A' for Active; 'I' for Inactive)
REMARK    1  A    between atoms: C_1  and  C_2
REMARK    2  A    between atoms: C_6  and  C_7
REMARK    3  A    between atoms: C_8  and  N_9
REMARK    4  A    between atoms: N_12  and  N_13
REMARK                            x       y       z     vdW  Elec       q    Type
REMARK                         _______ _______ _______ _____ _____    ______ ____
ROOT
ATOM      1  N   UNL     1       3.890   4.058  17.232  0.00  0.00    +0.000 N 
ATOM      2  C   UNL     1       5.246   4.130  17.113  0.00  0.00    +0.000 C 
ATOM      3  O   UNL     1       5.776   4.187  16.006  0.00  0.00    +0.000 OA
ATOM      4  N   UNL     1       5.977   4.181  18.288  0.00  0.00    +0.000 N 
ATOM      5  H   UNL     1       3.435   4.324  16.370  0.00  0.00    +0.000 HD
ATOM      6  H   UNL     1       5.513   4.580  19.094  0.00  0.00    +0.000 HD
ENDROOT
BRANCH   1  14
ATOM      7  C   UNL     1       2.802   6.604  18.487  0.00  0.00    +0.000 C 
ATOM      8  C   UNL     1       2.561   5.203  18.992  0.00  0.00    +0.000 A 
ATOM      9  C   UNL     1       1.835   5.097  20.193  0.00  0.00    +0.000 A 
ATOM     10  C   UNL     1       1.615   3.872  20.802  0.00  0.00    +0.000 A 
ATOM     11  C   UNL     1       2.137   2.719  20.229  0.00  0.00    +0.000 A 
ATOM     12  C   UNL     1       2.887   2.781  19.042  0.00  0.00    +0.000 A 
ATOM     13  C   UNL     1       3.394   1.473  18.490  0.00  0.00    +0.000 C 
ATOM     14  C   UNL     1       3.085   4.029  18.399  0.00  0.00    +0.000 A 
ENDBRANCH   1  14
BRANCH   4  15
ATOM     15  N   UNL     1       7.396   4.290  18.212  0.00  0.00    +0.000 NA
ATOM     16  H   UNL     1       7.641   4.232  17.218  0.00  0.00    +0.000 HD
ATOM     17  H   UNL     1       7.777   3.424  18.603  0.00  0.00    +0.000 HD
ENDBRANCH   4  15
TORSDOF 2
ENDMDL
