MODEL 1
REMARK VINA RESULT:      -7.7      0.000      0.000
REMARK  Name = 
REMARK  10 active torsions:
REMARK  status: ('A' for Active; 'I' for Inactive)
REMARK    1  A    between atoms: C_1  and  C_2
REMARK    2  A    between atoms: C_2  and  C_3
REMARK    3  A    between atoms: C_3  and  C_4
REMARK    4  A    between atoms: C_4  and  N_5
REMARK    5  A    between atoms: C_6  and  C_8
REMARK    6  A    between atoms: C_12  and  N_13
REMARK    7  A    between atoms: C_14  and  C_16
REMARK    8  A    between atoms: C_16  and  C_18
REMARK    9  A    between atoms: C_23  and  N_24
REMARK   10  A    between atoms: C_25  and  C_26
REMARK                            x       y       z     vdW  Elec       q    Type
REMARK                         _______ _______ _______ _____ _____    ______ ____
ROOT
ATOM      1  N   UNL     1       1.727   7.222  21.223  0.00  0.00    +0.000 N 
ATOM      2  C   UNL     1       1.244   8.455  20.800  0.00  0.00    +0.000 C 
ATOM      3  O   UNL     1       0.857   8.777  19.681  0.00  0.00    +0.000 OA
ATOM      4  H   UNL     1       1.805   7.096  22.230  0.00  0.00    +0.000 HD
ENDROOT
BRANCH   1   9
ATOM      5  C   UNL     1       3.444   5.027  18.731  0.00  0.00    +0.000 A 
ATOM      6  C   UNL     1       2.590   3.919  18.722  0.00  0.00    +0.000 A 
ATOM      7  C   UNL     1       1.462   3.903  19.533  0.00  0.00    +0.000 A 
ATOM      8  C   UNL     1       1.175   4.989  20.355  0.00  0.00    +0.000 A 
ATOM      9  C   UNL     1       2.012   6.110  20.395  0.00  0.00    +0.000 A 
ATOM     10  C   UNL     1       3.146   6.128  19.564  0.00  0.00    +0.000 A 
BRANCH   5  12
ATOM     11  N   UNL     1       5.349   6.264  17.814  0.00  0.00    +0.000 N 
ATOM     12  C   UNL     1       4.632   5.083  17.819  0.00  0.00    +0.000 C 
ATOM     13  O   UNL     1       4.925   4.110  17.134  0.00  0.00    +0.000 OA
ATOM     14  H   UNL     1       4.958   7.089  18.246  0.00  0.00    +0.000 HD
BRANCH  11  15
ATOM     15  C   UNL     1       6.548   6.453  17.017  0.00  0.00    +0.000 C 
BRANCH  15  16
ATOM     16  C   UNL     1       7.674   7.138  17.790  0.00  0.00    +0.000 C 
BRANCH  16  18
ATOM     17  C   UNL     1       8.717   9.322  18.502  0.00  0.00    +0.000 C 
ATOM     18  C   UNL     1       7.635   8.663  17.660  0.00  0.00    +0.000 C 
ENDBRANCH  16  18
ENDBRANCH  15  16
ENDBRANCH  11  15
ENDBRANCH   5  12
ENDBRANCH   1   9
BRANCH   2  19
ATOM     19  C   UNL     1       1.142   9.485  21.900  0.00  0.00    +0.000 C 
ATOM     20  O   UNL     1       2.022   9.445  22.756  0.00  0.00    +0.000 OA
BRANCH  19  21
ATOM     21  C   UNL     1       0.111  10.575  21.884  0.00  0.00    +0.000 A 
ATOM     22  C   UNL     1      -0.817  10.473  22.949  0.00  0.00    +0.000 A 
ATOM     23  C   UNL     1      -1.795  11.440  23.168  0.00  0.00    +0.000 A 
ATOM     24  C   UNL     1      -1.875  12.526  22.317  0.00  0.00    +0.000 A 
ATOM     25  C   UNL     1      -0.995  12.629  21.239  0.00  0.00    +0.000 A 
ATOM     26  C   UNL     1       0.010  11.672  20.990  0.00  0.00    +0.000 A 
BRANCH  26  27
ATOM     27  N   UNL     1       0.816  11.810  19.825  0.00  0.00    +0.000 N 
ATOM     28  C   UNL     1       1.894  12.668  19.657  0.00  0.00    +0.000 C 
ATOM     29  C   UNL     1       2.437  12.711  18.251  0.00  0.00    +0.000 C 
ATOM     30  O   UNL     1       2.436  13.339  20.530  0.00  0.00    +0.000 OA
ATOM     31  H   UNL     1       0.642  11.165  19.054  0.00  0.00    +0.000 HD
ENDBRANCH  26  27
ENDBRANCH  19  21
ENDBRANCH   2  19
TORSDOF 8
ENDMDL
MODEL 2
REMARK VINA RESULT:      -7.7      1.776      2.408
REMARK  Name = 
REMARK  10 active torsions:
REMARK  status: ('A' for Active; 'I' for Inactive)
REMARK    1  A    between atoms: C_1  and  C_2
REMARK    2  A    between atoms: C_2  and  C_3
REMARK    3  A    between atoms: C_3  and  C_4
REMARK    4  A    between atoms: C_4  and  N_5
REMARK    5  A    between atoms: C_6  and  C_8
REMARK    6  A    between atoms: C_12  and  N_13
REMARK    7  A    between atoms: C_14  and  C_16
REMARK    8  A    between atoms: C_16  and  C_18
REMARK    9  A    between atoms: C_23  and  N_24
REMARK   10  A    between atoms: C_25  and  C_26
REMARK                            x       y       z     vdW  Elec       q    Type
REMARK                         _______ _______ _______ _____ _____    ______ ____
ROOT
ATOM      1  N   UNL     1       1.710   7.195  21.174  0.00  0.00    +0.000 N 
ATOM      2  C   UNL     1       1.272   8.455  20.782  0.00  0.00    +0.000 C 
ATOM      3  O   UNL     1       0.927   8.826  19.665  0.00  0.00    +0.000 OA
ATOM      4  H   UNL     1       1.756   7.033  22.178  0.00  0.00    +0.000 HD
ENDROOT
BRANCH   1   9
ATOM      5  C   UNL     1       3.368   5.097  18.561  0.00  0.00    +0.000 A 
ATOM      6  C   UNL     1       2.555   3.959  18.582  0.00  0.00    +0.000 A 
ATOM      7  C   UNL     1       1.474   3.891  19.452  0.00  0.00    +0.000 A 
ATOM      8  C   UNL     1       1.193   4.955  20.305  0.00  0.00    +0.000 A 
ATOM      9  C   UNL     1       1.990   6.105  20.316  0.00  0.00    +0.000 A 
ATOM     10  C   UNL     1       3.075   6.176  19.426  0.00  0.00    +0.000 A 
BRANCH   5  12
ATOM     11  N   UNL     1       4.894   4.041  16.963  0.00  0.00    +0.000 N 
ATOM     12  C   UNL     1       4.501   5.209  17.588  0.00  0.00    +0.000 C 
ATOM     13  O   UNL     1       5.024   6.298  17.379  0.00  0.00    +0.000 OA
ATOM     14  H   UNL     1       4.562   3.152  17.309  0.00  0.00    +0.000 HD
BRANCH  11  15
ATOM     15  C   UNL     1       5.946   3.999  15.963  0.00  0.00    +0.000 C 
BRANCH  15  16
ATOM     16  C   UNL     1       5.473   4.448  14.582  0.00  0.00    +0.000 C 
BRANCH  16  18
ATOM     17  C   UNL     1       5.866   3.297  12.371  0.00  0.00    +0.000 C 
ATOM     18  C   UNL     1       6.488   4.133  13.480  0.00  0.00    +0.000 C 
ENDBRANCH  16  18
ENDBRANCH  15  16
ENDBRANCH  11  15
ENDBRANCH   5  12
ENDBRANCH   1   9
BRANCH   2  19
ATOM     19  C   UNL     1       1.165   9.449  21.915  0.00  0.00    +0.000 C 
ATOM     20  O   UNL     1       2.039   9.377  22.776  0.00  0.00    +0.000 OA
BRANCH  19  21
ATOM     21  C   UNL     1       0.139  10.543  21.927  0.00  0.00    +0.000 A 
ATOM     22  C   UNL     1      -0.803  10.405  22.975  0.00  0.00    +0.000 A 
ATOM     23  C   UNL     1      -1.780  11.366  23.218  0.00  0.00    +0.000 A 
ATOM     24  C   UNL     1      -1.846  12.484  22.408  0.00  0.00    +0.000 A 
ATOM     25  C   UNL     1      -0.952  12.624  21.346  0.00  0.00    +0.000 A 
ATOM     26  C   UNL     1       0.053  11.673  21.074  0.00  0.00    +0.000 A 
BRANCH  26  27
ATOM     27  N   UNL     1       0.874  11.852  19.925  0.00  0.00    +0.000 N 
ATOM     28  C   UNL     1       1.877  12.798  19.759  0.00  0.00    +0.000 C 
ATOM     29  C   UNL     1       2.451  12.852  18.366  0.00  0.00    +0.000 C 
ATOM     30  O   UNL     1       2.335  13.536  20.626  0.00  0.00    +0.000 OA
ATOM     31  H   UNL     1       0.778  11.175  19.168  0.00  0.00    +0.000 HD
ENDBRANCH  26  27
ENDBRANCH  19  21
ENDBRANCH   2  19
TORSDOF 8
ENDMDL
MODEL 3
REMARK VINA RESULT:      -7.7      3.226      9.136
REMARK  Name = 
REMARK  10 active torsions:
REMARK  status: ('A' for Active; 'I' for Inactive)
REMARK    1  A    between atoms: C_1  and  C_2
REMARK    2  A    between atoms: C_2  and  C_3
REMARK    3  A    between atoms: C_3  and  C_4
REMARK    4  A    between atoms: C_4  and  N_5
REMARK    5  A    between atoms: C_6  and  C_8
REMARK    6  A    between atoms: C_12  and  N_13
REMARK    7  A    between atoms: C_14  and  C_16
REMARK    8  A    between atoms: C_16  and  C_18
REMARK    9  A    between atoms: C_23  and  N_24
REMARK   10  A    between atoms: C_25  and  C_26
REMARK                            x       y       z     vdW  Elec       q    Type
REMARK                         _______ _______ _______ _____ _____    ______ ____
ROOT
ATOM      1  N   UNL     1       1.694   8.744  17.762  0.00  0.00    +0.000 N 
ATOM      2  C   UNL     1       2.281   7.852  18.651  0.00  0.00    +0.000 C 
ATOM      3  O   UNL     1       2.057   7.715  19.850  0.00  0.00    +0.000 OA
ATOM      4  H   UNL     1       1.866   8.566  16.774  0.00  0.00    +0.000 HD
ENDROOT
BRANCH   1   9
ATOM      5  C   UNL     1      -1.457  10.728  18.090  0.00  0.00    +0.000 A 
ATOM      6  C   UNL     1      -0.981  11.876  18.734  0.00  0.00    +0.000 A 
ATOM      7  C   UNL     1       0.366  11.986  19.054  0.00  0.00    +0.000 A 
ATOM      8  C   UNL     1       1.249  10.957  18.734  0.00  0.00    +0.000 A 
ATOM      9  C   UNL     1       0.805   9.793  18.098  0.00  0.00    +0.000 A 
ATOM     10  C   UNL     1      -0.557   9.690  17.764  0.00  0.00    +0.000 A 
BRANCH   5  12
ATOM     11  N   UNL     1      -3.536  11.803  17.364  0.00  0.00    +0.000 N 
ATOM     12  C   UNL     1      -2.897  10.621  17.686  0.00  0.00    +0.000 C 
ATOM     13  O   UNL     1      -3.442   9.524  17.650  0.00  0.00    +0.000 OA
ATOM     14  H   UNL     1      -3.102  12.685  17.593  0.00  0.00    +0.000 HD
BRANCH  11  15
ATOM     15  C   UNL     1      -4.914  11.853  16.912  0.00  0.00    +0.000 C 
BRANCH  15  16
ATOM     16  C   UNL     1      -5.907  12.068  18.053  0.00  0.00    +0.000 C 
BRANCH  16  18
ATOM     17  C   UNL     1      -6.230  13.316  20.222  0.00  0.00    +0.000 C 
ATOM     18  C   UNL     1      -5.238  12.588  19.328  0.00  0.00    +0.000 C 
ENDBRANCH  16  18
ENDBRANCH  15  16
ENDBRANCH  11  15
ENDBRANCH   5  12
ENDBRANCH   1   9
BRANCH   2  19
ATOM     19  C   UNL     1       3.273   6.909  18.012  0.00  0.00    +0.000 C 
ATOM     20  O   UNL     1       4.170   7.437  17.358  0.00  0.00    +0.000 OA
BRANCH  19  21
ATOM     21  C   UNL     1       3.251   5.430  18.264  0.00  0.00    +0.000 A 
ATOM     22  C   UNL     1       2.017   4.830  17.913  0.00  0.00    +0.000 A 
ATOM     23  C   UNL     1       1.823   3.453  17.981  0.00  0.00    +0.000 A 
ATOM     24  C   UNL     1       2.857   2.644  18.415  0.00  0.00    +0.000 A 
ATOM     25  C   UNL     1       4.069   3.217  18.801  0.00  0.00    +0.000 A 
ATOM     26  C   UNL     1       4.303   4.607  18.740  0.00  0.00    +0.000 A 
BRANCH  26  27
ATOM     27  N   UNL     1       5.539   5.117  19.226  0.00  0.00    +0.000 N 
ATOM     28  C   UNL     1       6.705   5.305  18.496  0.00  0.00    +0.000 C 
ATOM     29  C   UNL     1       7.899   5.698  19.328  0.00  0.00    +0.000 C 
ATOM     30  O   UNL     1       6.826   5.214  17.278  0.00  0.00    +0.000 OA
ATOM     31  H   UNL     1       5.563   5.454  20.189  0.00  0.00    +0.000 HD
ENDBRANCH  26  27
ENDBRANCH  19  21
ENDBRANCH   2  19
TORSDOF 8
ENDMDL
MODEL 4
REMARK VINA RESULT:      -7.6      2.889      8.262
REMARK  Name = 
REMARK  10 active torsions:
REMARK  status: ('A' for Active; 'I' for Inactive)
REMARK    1  A    between atoms: C_1  and  C_2
REMARK    2  A    between atoms: C_2  and  C_3
REMARK    3  A    between atoms: C_3  and  C_4
REMARK    4  A    between atoms: C_4  and  N_5
REMARK    5  A    between atoms: C_6  and  C_8
REMARK    6  A    between atoms: C_12  and  N_13
REMARK    7  A    between atoms: C_14  and  C_16
REMARK    8  A    between atoms: C_16  and  C_18
REMARK    9  A    between atoms: C_23  and  N_24
REMARK   10  A    between atoms: C_25  and  C_26
REMARK                            x       y       z     vdW  Elec       q    Type
REMARK                         _______ _______ _______ _____ _____    ______ ____
ROOT
ATOM      1  N   UNL     1       2.081   8.482  17.571  0.00  0.00    +0.000 N 
ATOM      2  C   UNL     1       2.610   7.493  18.392  0.00  0.00    +0.000 C 
ATOM      3  O   UNL     1       2.474   7.358  19.604  0.00  0.00    +0.000 OA
ATOM      4  H   UNL     1       2.141   8.307  16.569  0.00  0.00    +0.000 HD
ENDROOT
BRANCH   1   9
ATOM      5  C   UNL     1       1.397  12.008  18.606  0.00  0.00    +0.000 A 
ATOM      6  C   UNL     1       0.025  11.945  18.871  0.00  0.00    +0.000 A 
ATOM      7  C   UNL     1      -0.661  10.747  18.705  0.00  0.00    +0.000 A 
ATOM      8  C   UNL     1       0.014   9.607  18.280  0.00  0.00    +0.000 A 
ATOM      9  C   UNL     1       1.384   9.637  17.998  0.00  0.00    +0.000 A 
ATOM     10  C   UNL     1       2.078  10.846  18.178  0.00  0.00    +0.000 A 
BRANCH   5  12
ATOM     11  N   UNL     1       3.264  13.486  18.030  0.00  0.00    +0.000 N 
ATOM     12  C   UNL     1       2.161  13.277  18.835  0.00  0.00    +0.000 C 
ATOM     13  O   UNL     1       1.793  14.066  19.698  0.00  0.00    +0.000 OA
ATOM     14  H   UNL     1       3.631  12.725  17.475  0.00  0.00    +0.000 HD
BRANCH  11  15
ATOM     15  C   UNL     1       4.076  14.687  18.103  0.00  0.00    +0.000 C 
BRANCH  15  16
ATOM     16  C   UNL     1       3.580  15.798  17.179  0.00  0.00    +0.000 C 
BRANCH  16  18
ATOM     17  C   UNL     1       1.877  17.654  17.047  0.00  0.00    +0.000 C 
ATOM     18  C   UNL     1       2.869  16.922  17.937  0.00  0.00    +0.000 C 
ENDBRANCH  16  18
ENDBRANCH  15  16
ENDBRANCH  11  15
ENDBRANCH   5  12
ENDBRANCH   1   9
BRANCH   2  19
ATOM     19  C   UNL     1       3.399   6.437  17.653  0.00  0.00    +0.000 C 
ATOM     20  O   UNL     1       4.354   6.843  16.996  0.00  0.00    +0.000 OA
BRANCH  19  21
ATOM     21  C   UNL     1       3.120   4.971  17.813  0.00  0.00    +0.000 A 
ATOM     22  C   UNL     1       1.771   4.699  18.144  0.00  0.00    +0.000 A 
ATOM     23  C   UNL     1       1.286   3.398  18.244  0.00  0.00    +0.000 A 
ATOM     24  C   UNL     1       2.144   2.337  18.026  0.00  0.00    +0.000 A 
ATOM     25  C   UNL     1       3.487   2.581  17.734  0.00  0.00    +0.000 A 
ATOM     26  C   UNL     1       4.011   3.885  17.621  0.00  0.00    +0.000 A 
BRANCH  26  27
ATOM     27  N   UNL     1       5.408   4.046  17.398  0.00  0.00    +0.000 N 
ATOM     28  C   UNL     1       6.348   4.503  18.312  0.00  0.00    +0.000 C 
ATOM     29  C   UNL     1       7.719   4.729  17.728  0.00  0.00    +0.000 C 
ATOM     30  O   UNL     1       6.167   4.696  19.511  0.00  0.00    +0.000 OA
ATOM     31  H   UNL     1       5.782   3.726  16.505  0.00  0.00    +0.000 HD
ENDBRANCH  26  27
ENDBRANCH  19  21
ENDBRANCH   2  19
TORSDOF 8
ENDMDL
MODEL 5
REMARK VINA RESULT:      -7.6      3.469      9.303
REMARK  Name = 
REMARK  10 active torsions:
REMARK  status: ('A' for Active; 'I' for Inactive)
REMARK    1  A    between atoms: C_1  and  C_2
REMARK    2  A    between atoms: C_2  and  C_3
REMARK    3  A    between atoms: C_3  and  C_4
REMARK    4  A    between atoms: C_4  and  N_5
REMARK    5  A    between atoms: C_6  and  C_8
REMARK    6  A    between atoms: C_12  and  N_13
REMARK    7  A    between atoms: C_14  and  C_16
REMARK    8  A    between atoms: C_16  and  C_18
REMARK    9  A    between atoms: C_23  and  N_24
REMARK   10  A    between atoms: C_25  and  C_26
REMARK                            x       y       z     vdW  Elec       q    Type
REMARK                         _______ _______ _______ _____ _____    ______ ____
ROOT
ATOM      1  N   UNL     1       1.360   8.976  19.279  0.00  0.00    +0.000 N 
ATOM      2  C   UNL     1       2.151   8.364  18.313  0.00  0.00    +0.000 C 
ATOM      3  O   UNL     1       2.417   8.764  17.184  0.00  0.00    +0.000 OA
ATOM      4  H   UNL     1       1.426   8.588  20.218  0.00  0.00    +0.000 HD
ENDROOT
BRANCH   1   9
ATOM      5  C   UNL     1      -1.360  11.238  18.073  0.00  0.00    +0.000 A 
ATOM      6  C   UNL     1      -1.006  12.437  18.702  0.00  0.00    +0.000 A 
ATOM      7  C   UNL     1       0.120  12.489  19.516  0.00  0.00    +0.000 A 
ATOM      8  C   UNL     1       0.901  11.353  19.705  0.00  0.00    +0.000 A 
ATOM      9  C   UNL     1       0.571  10.136  19.098  0.00  0.00    +0.000 A 
ATOM     10  C   UNL     1      -0.562  10.089  18.266  0.00  0.00    +0.000 A 
BRANCH   5  12
ATOM     11  N   UNL     1      -3.682  11.834  17.565  0.00  0.00    +0.000 N 
ATOM     12  C   UNL     1      -2.538  11.181  17.148  0.00  0.00    +0.000 C 
ATOM     13  O   UNL     1      -2.450  10.581  16.082  0.00  0.00    +0.000 OA
ATOM     14  H   UNL     1      -3.760  12.144  18.523  0.00  0.00    +0.000 HD
BRANCH  11  15
ATOM     15  C   UNL     1      -4.886  11.904  16.758  0.00  0.00    +0.000 C 
BRANCH  15  16
ATOM     16  C   UNL     1      -6.163  11.948  17.595  0.00  0.00    +0.000 C 
BRANCH  16  18
ATOM     17  C   UNL     1      -6.783  10.025  19.106  0.00  0.00    +0.000 C 
ATOM     18  C   UNL     1      -5.984  11.313  18.977  0.00  0.00    +0.000 C 
ENDBRANCH  16  18
ENDBRANCH  15  16
ENDBRANCH  11  15
ENDBRANCH   5  12
ENDBRANCH   1   9
BRANCH   2  19
ATOM     19  C   UNL     1       2.792   7.075  18.770  0.00  0.00    +0.000 C 
ATOM     20  O   UNL     1       2.514   6.711  19.910  0.00  0.00    +0.000 OA
BRANCH  19  21
ATOM     21  C   UNL     1       3.613   6.219  17.851  0.00  0.00    +0.000 A 
ATOM     22  C   UNL     1       4.434   6.975  16.979  0.00  0.00    +0.000 A 
ATOM     23  C   UNL     1       5.341   6.369  16.113  0.00  0.00    +0.000 A 
ATOM     24  C   UNL     1       5.439   4.991  16.091  0.00  0.00    +0.000 A 
ATOM     25  C   UNL     1       4.614   4.224  16.914  0.00  0.00    +0.000 A 
ATOM     26  C   UNL     1       3.688   4.803  17.807  0.00  0.00    +0.000 A 
BRANCH  26  27
ATOM     27  N   UNL     1       2.830   3.949  18.555  0.00  0.00    +0.000 N 
ATOM     28  C   UNL     1       1.494   3.676  18.291  0.00  0.00    +0.000 C 
ATOM     29  C   UNL     1       0.805   2.869  19.362  0.00  0.00    +0.000 C 
ATOM     30  O   UNL     1       0.868   3.995  17.284  0.00  0.00    +0.000 OA
ATOM     31  H   UNL     1       3.245   3.418  19.320  0.00  0.00    +0.000 HD
ENDBRANCH  26  27
ENDBRANCH  19  21
ENDBRANCH   2  19
TORSDOF 8
ENDMDL
MODEL 6
REMARK VINA RESULT:      -7.6      2.778      8.341
REMARK  Name = 
REMARK  10 active torsions:
REMARK  status: ('A' for Active; 'I' for Inactive)
REMARK    1  A    between atoms: C_1  and  C_2
REMARK    2  A    between atoms: C_2  and  C_3
REMARK    3  A    between atoms: C_3  and  C_4
REMARK    4  A    between atoms: C_4  and  N_5
REMARK    5  A    between atoms: C_6  and  C_8
REMARK    6  A    between atoms: C_12  and  N_13
REMARK    7  A    between atoms: C_14  and  C_16
REMARK    8  A    between atoms: C_16  and  C_18
REMARK    9  A    between atoms: C_23  and  N_24
REMARK   10  A    between atoms: C_25  and  C_26
REMARK                            x       y       z     vdW  Elec       q    Type
REMARK                         _______ _______ _______ _____ _____    ______ ____
ROOT
ATOM      1  N   UNL     1       2.222   7.429  20.552  0.00  0.00    +0.000 N 
ATOM      2  C   UNL     1       2.513   6.968  19.273  0.00  0.00    +0.000 C 
ATOM      3  O   UNL     1       2.170   7.448  18.196  0.00  0.00    +0.000 OA
ATOM      4  H   UNL     1       2.763   7.012  21.308  0.00  0.00    +0.000 HD
ENDROOT
BRANCH   1   9
ATOM      5  C   UNL     1      -0.160  10.283  20.160  0.00  0.00    +0.000 A 
ATOM      6  C   UNL     1      -0.416  10.599  21.499  0.00  0.00    +0.000 A 
ATOM      7  C   UNL     1       0.194   9.873  22.514  0.00  0.00    +0.000 A 
ATOM      8  C   UNL     1       1.063   8.830  22.205  0.00  0.00    +0.000 A 
ATOM      9  C   UNL     1       1.336   8.482  20.878  0.00  0.00    +0.000 A 
ATOM     10  C   UNL     1       0.727   9.227  19.852  0.00  0.00    +0.000 A 
BRANCH   5  12
ATOM     11  N   UNL     1      -2.107  10.886  18.801  0.00  0.00    +0.000 N 
ATOM     12  C   UNL     1      -0.765  11.094  19.054  0.00  0.00    +0.000 C 
ATOM     13  O   UNL     1      -0.074  11.893  18.433  0.00  0.00    +0.000 OA
ATOM     14  H   UNL     1      -2.576  10.089  19.207  0.00  0.00    +0.000 HD
BRANCH  11  15
ATOM     15  C   UNL     1      -2.841  11.629  17.793  0.00  0.00    +0.000 C 
BRANCH  15  16
ATOM     16  C   UNL     1      -3.623  10.727  16.840  0.00  0.00    +0.000 C 
BRANCH  16  18
ATOM     17  C   UNL     1      -3.076  10.061  14.469  0.00  0.00    +0.000 C 
ATOM     18  C   UNL     1      -2.712   9.893  15.936  0.00  0.00    +0.000 C 
ENDBRANCH  16  18
ENDBRANCH  15  16
ENDBRANCH  11  15
ENDBRANCH   5  12
ENDBRANCH   1   9
BRANCH   2  19
ATOM     19  C   UNL     1       3.413   5.756  19.245  0.00  0.00    +0.000 C 
ATOM     20  O   UNL     1       4.573   5.941  19.606  0.00  0.00    +0.000 OA
BRANCH  19  21
ATOM     21  C   UNL     1       2.899   4.383  18.926  0.00  0.00    +0.000 A 
ATOM     22  C   UNL     1       1.627   4.124  19.493  0.00  0.00    +0.000 A 
ATOM     23  C   UNL     1       0.934   2.944  19.239  0.00  0.00    +0.000 A 
ATOM     24  C   UNL     1       1.504   1.988  18.419  0.00  0.00    +0.000 A 
ATOM     25  C   UNL     1       2.772   2.204  17.879  0.00  0.00    +0.000 A 
ATOM     26  C   UNL     1       3.500   3.389  18.112  0.00  0.00    +0.000 A 
BRANCH  26  27
ATOM     27  N   UNL     1       4.819   3.498  17.588  0.00  0.00    +0.000 N 
ATOM     28  C   UNL     1       5.248   4.362  16.589  0.00  0.00    +0.000 C 
ATOM     29  C   UNL     1       6.663   4.122  16.129  0.00  0.00    +0.000 C 
ATOM     30  O   UNL     1       4.606   5.287  16.098  0.00  0.00    +0.000 OA
ATOM     31  H   UNL     1       5.550   2.945  18.035  0.00  0.00    +0.000 HD
ENDBRANCH  26  27
ENDBRANCH  19  21
ENDBRANCH   2  19
TORSDOF 8
ENDMDL
MODEL 7
REMARK VINA RESULT:      -7.5      2.792      8.389
REMARK  Name = 
REMARK  10 active torsions:
REMARK  status: ('A' for Active; 'I' for Inactive)
REMARK    1  A    between atoms: C_1  and  C_2
REMARK    2  A    between atoms: C_2  and  C_3
REMARK    3  A    between atoms: C_3  and  C_4
REMARK    4  A    between atoms: C_4  and  N_5
REMARK    5  A    between atoms: C_6  and  C_8
REMARK    6  A    between atoms: C_12  and  N_13
REMARK    7  A    between atoms: C_14  and  C_16
REMARK    8  A    between atoms: C_16  and  C_18
REMARK    9  A    between atoms: C_23  and  N_24
REMARK   10  A    between atoms: C_25  and  C_26
REMARK                            x       y       z     vdW  Elec       q    Type
REMARK                         _______ _______ _______ _____ _____    ______ ____
ROOT
ATOM      1  N   UNL     1       2.206   7.845  19.507  0.00  0.00    +0.000 N 
ATOM      2  C   UNL     1       2.544   7.950  18.164  0.00  0.00    +0.000 C 
ATOM      3  O   UNL     1       2.254   8.844  17.374  0.00  0.00    +0.000 OA
ATOM      4  H   UNL     1       2.708   7.136  20.039  0.00  0.00    +0.000 HD
ENDROOT
BRANCH   1   9
ATOM      5  C   UNL     1      -0.409  10.426  20.195  0.00  0.00    +0.000 A 
ATOM      6  C   UNL     1      -0.437  10.408  21.594  0.00  0.00    +0.000 A 
ATOM      7  C   UNL     1       0.401   9.550  22.296  0.00  0.00    +0.000 A 
ATOM      8  C   UNL     1       1.272   8.707  21.612  0.00  0.00    +0.000 A 
ATOM      9  C   UNL     1       1.320   8.693  20.213  0.00  0.00    +0.000 A 
ATOM     10  C   UNL     1       0.480   9.571  19.506  0.00  0.00    +0.000 A 
BRANCH   5  12
ATOM     11  N   UNL     1      -2.409  10.868  18.851  0.00  0.00    +0.000 N 
ATOM     12  C   UNL     1      -1.265  11.387  19.427  0.00  0.00    +0.000 C 
ATOM     13  O   UNL     1      -0.936  12.565  19.339  0.00  0.00    +0.000 OA
ATOM     14  H   UNL     1      -2.531   9.868  18.792  0.00  0.00    +0.000 HD
BRANCH  11  15
ATOM     15  C   UNL     1      -3.358  11.684  18.116  0.00  0.00    +0.000 C 
BRANCH  15  16
ATOM     16  C   UNL     1      -4.255  10.865  17.190  0.00  0.00    +0.000 C 
BRANCH  16  18
ATOM     17  C   UNL     1      -2.813  10.588  15.138  0.00  0.00    +0.000 C 
ATOM     18  C   UNL     1      -3.465   9.884  16.318  0.00  0.00    +0.000 C 
ENDBRANCH  16  18
ENDBRANCH  15  16
ENDBRANCH  11  15
ENDBRANCH   5  12
ENDBRANCH   1   9
BRANCH   2  19
ATOM     19  C   UNL     1       3.429   6.833  17.663  0.00  0.00    +0.000 C 
ATOM     20  O   UNL     1       4.335   7.166  16.903  0.00  0.00    +0.000 OA
BRANCH  19  21
ATOM     21  C   UNL     1       3.300   5.423  18.162  0.00  0.00    +0.000 A 
ATOM     22  C   UNL     1       2.043   4.844  17.860  0.00  0.00    +0.000 A 
ATOM     23  C   UNL     1       1.757   3.513  18.152  0.00  0.00    +0.000 A 
ATOM     24  C   UNL     1       2.719   2.733  18.766  0.00  0.00    +0.000 A 
ATOM     25  C   UNL     1       3.951   3.292  19.106  0.00  0.00    +0.000 A 
ATOM     26  C   UNL     1       4.277   4.634  18.821  0.00  0.00    +0.000 A 
BRANCH  26  27
ATOM     27  N   UNL     1       5.526   5.148  19.271  0.00  0.00    +0.000 N 
ATOM     28  C   UNL     1       6.707   5.216  18.544  0.00  0.00    +0.000 C 
ATOM     29  C   UNL     1       7.905   5.650  19.350  0.00  0.00    +0.000 C 
ATOM     30  O   UNL     1       6.840   4.994  17.344  0.00  0.00    +0.000 OA
ATOM     31  H   UNL     1       5.551   5.583  20.193  0.00  0.00    +0.000 HD
ENDBRANCH  26  27
ENDBRANCH  19  21
ENDBRANCH   2  19
TORSDOF 8
ENDMDL
MODEL 8
REMARK VINA RESULT:      -7.5      3.591      9.445
REMARK  Name = 
REMARK  10 active torsions:
REMARK  status: ('A' for Active; 'I' for Inactive)
REMARK    1  A    between atoms: C_1  and  C_2
REMARK    2  A    between atoms: C_2  and  C_3
REMARK    3  A    between atoms: C_3  and  C_4
REMARK    4  A    between atoms: C_4  and  N_5
REMARK    5  A    between atoms: C_6  and  C_8
REMARK    6  A    between atoms: C_12  and  N_13
REMARK    7  A    between atoms: C_14  and  C_16
REMARK    8  A    between atoms: C_16  and  C_18
REMARK    9  A    between atoms: C_23  and  N_24
REMARK   10  A    between atoms: C_25  and  C_26
REMARK                            x       y       z     vdW  Elec       q    Type
REMARK                         _______ _______ _______ _____ _____    ______ ____
ROOT
ATOM      1  N   UNL     1       1.411   8.869  19.397  0.00  0.00    +0.000 N 
ATOM      2  C   UNL     1       2.133   8.256  18.380  0.00  0.00    +0.000 C 
ATOM      3  O   UNL     1       2.281   8.630  17.221  0.00  0.00    +0.000 OA
ATOM      4  H   UNL     1       1.574   8.512  20.336  0.00  0.00    +0.000 HD
ENDROOT
BRANCH   1   9
ATOM      5  C   UNL     1      -1.570  10.959  18.550  0.00  0.00    +0.000 A 
ATOM      6  C   UNL     1      -1.127  12.225  18.948  0.00  0.00    +0.000 A 
ATOM      7  C   UNL     1       0.142  12.379  19.491  0.00  0.00    +0.000 A 
ATOM      8  C   UNL     1       0.980  11.277  19.638  0.00  0.00    +0.000 A 
ATOM      9  C   UNL     1       0.566   9.995  19.257  0.00  0.00    +0.000 A 
ATOM     10  C   UNL     1      -0.715   9.845  18.697  0.00  0.00    +0.000 A 
BRANCH   5  12
ATOM     11  N   UNL     1      -3.619  11.943  17.635  0.00  0.00    +0.000 N 
ATOM     12  C   UNL     1      -2.914  10.787  17.909  0.00  0.00    +0.000 C 
ATOM     13  O   UNL     1      -3.331   9.663  17.653  0.00  0.00    +0.000 OA
ATOM     14  H   UNL     1      -3.318  12.820  18.036  0.00  0.00    +0.000 HD
BRANCH  11  15
ATOM     15  C   UNL     1      -4.912  11.939  16.976  0.00  0.00    +0.000 C 
BRANCH  15  16
ATOM     16  C   UNL     1      -6.062  12.289  17.920  0.00  0.00    +0.000 C 
BRANCH  16  18
ATOM     17  C   UNL     1      -6.868  14.335  16.684  0.00  0.00    +0.000 C 
ATOM     18  C   UNL     1      -7.237  12.952  17.197  0.00  0.00    +0.000 C 
ENDBRANCH  16  18
ENDBRANCH  15  16
ENDBRANCH  11  15
ENDBRANCH   5  12
ENDBRANCH   1   9
BRANCH   2  19
ATOM     19  C   UNL     1       2.860   7.004  18.810  0.00  0.00    +0.000 C 
ATOM     20  O   UNL     1       2.672   6.646  19.971  0.00  0.00    +0.000 OA
BRANCH  19  21
ATOM     21  C   UNL     1       3.657   6.169  17.851  0.00  0.00    +0.000 A 
ATOM     22  C   UNL     1       4.484   6.944  17.002  0.00  0.00    +0.000 A 
ATOM     23  C   UNL     1       5.372   6.357  16.105  0.00  0.00    +0.000 A 
ATOM     24  C   UNL     1       5.445   4.979  16.027  0.00  0.00    +0.000 A 
ATOM     25  C   UNL     1       4.613   4.195  16.828  0.00  0.00    +0.000 A 
ATOM     26  C   UNL     1       3.705   4.755  17.751  0.00  0.00    +0.000 A 
BRANCH  26  27
ATOM     27  N   UNL     1       2.838   3.888  18.473  0.00  0.00    +0.000 N 
ATOM     28  C   UNL     1       1.490   3.667  18.225  0.00  0.00    +0.000 C 
ATOM     29  C   UNL     1       0.799   2.826  19.269  0.00  0.00    +0.000 C 
ATOM     30  O   UNL     1       0.853   4.056  17.251  0.00  0.00    +0.000 OA
ATOM     31  H   UNL     1       3.253   3.306  19.201  0.00  0.00    +0.000 HD
ENDBRANCH  26  27
ENDBRANCH  19  21
ENDBRANCH   2  19
TORSDOF 8
ENDMDL
MODEL 9
REMARK VINA RESULT:      -7.4      2.173      2.737
REMARK  Name = 
REMARK  10 active torsions:
REMARK  status: ('A' for Active; 'I' for Inactive)
REMARK    1  A    between atoms: C_1  and  C_2
REMARK    2  A    between atoms: C_2  and  C_3
REMARK    3  A    between atoms: C_3  and  C_4
REMARK    4  A    between atoms: C_4  and  N_5
REMARK    5  A    between atoms: C_6  and  C_8
REMARK    6  A    between atoms: C_12  and  N_13
REMARK    7  A    between atoms: C_14  and  C_16
REMARK    8  A    between atoms: C_16  and  C_18
REMARK    9  A    between atoms: C_23  and  N_24
REMARK   10  A    between atoms: C_25  and  C_26
REMARK                            x       y       z     vdW  Elec       q    Type
REMARK                         _______ _______ _______ _____ _____    ______ ____
ROOT
ATOM      1  N   UNL     1       1.744   7.712  21.304  0.00  0.00    +0.000 N 
ATOM      2  C   UNL     1       0.491   8.220  21.628  0.00  0.00    +0.000 C 
ATOM      3  O   UNL     1      -0.611   7.747  21.370  0.00  0.00    +0.000 OA
ATOM      4  H   UNL     1       2.535   8.142  21.780  0.00  0.00    +0.000 HD
ENDROOT
BRANCH   1   9
ATOM      5  C   UNL     1       3.251   5.587  18.624  0.00  0.00    +0.000 A 
ATOM      6  C   UNL     1       2.520   4.404  18.781  0.00  0.00    +0.000 A 
ATOM      7  C   UNL     1       1.542   4.317  19.764  0.00  0.00    +0.000 A 
ATOM      8  C   UNL     1       1.284   5.404  20.594  0.00  0.00    +0.000 A 
ATOM      9  C   UNL     1       2.002   6.599  20.470  0.00  0.00    +0.000 A 
ATOM     10  C   UNL     1       2.982   6.689  19.466  0.00  0.00    +0.000 A 
BRANCH   5  12
ATOM     11  N   UNL     1       4.981   4.576  17.214  0.00  0.00    +0.000 N 
ATOM     12  C   UNL     1       4.268   5.717  17.531  0.00  0.00    +0.000 C 
ATOM     13  O   UNL     1       4.427   6.793  16.967  0.00  0.00    +0.000 OA
ATOM     14  H   UNL     1       4.947   3.777  17.830  0.00  0.00    +0.000 HD
BRANCH  11  15
ATOM     15  C   UNL     1       5.966   4.535  16.149  0.00  0.00    +0.000 C 
BRANCH  15  16
ATOM     16  C   UNL     1       5.338   4.401  14.762  0.00  0.00    +0.000 C 
BRANCH  16  18
ATOM     17  C   UNL     1       5.820   3.335  12.527  0.00  0.00    +0.000 C 
ATOM     18  C   UNL     1       6.380   4.178  13.662  0.00  0.00    +0.000 C 
ENDBRANCH  16  18
ENDBRANCH  15  16
ENDBRANCH  11  15
ENDBRANCH   5  12
ENDBRANCH   1   9
BRANCH   2  19
ATOM     19  C   UNL     1       0.535   9.486  22.451  0.00  0.00    +0.000 C 
ATOM     20  O   UNL     1       1.272   9.461  23.434  0.00  0.00    +0.000 OA
BRANCH  19  21
ATOM     21  C   UNL     1      -0.170  10.742  22.029  0.00  0.00    +0.000 A 
ATOM     22  C   UNL     1      -1.162  11.154  22.952  0.00  0.00    +0.000 A 
ATOM     23  C   UNL     1      -1.865  12.345  22.793  0.00  0.00    +0.000 A 
ATOM     24  C   UNL     1      -1.600  13.147  21.699  0.00  0.00    +0.000 A 
ATOM     25  C   UNL     1      -0.652  12.743  20.758  0.00  0.00    +0.000 A 
ATOM     26  C   UNL     1       0.082  11.546  20.889  0.00  0.00    +0.000 A 
BRANCH  26  27
ATOM     27  N   UNL     1       0.973  11.169  19.844  0.00  0.00    +0.000 N 
ATOM     28  C   UNL     1       0.682  10.355  18.758  0.00  0.00    +0.000 C 
ATOM     29  C   UNL     1       1.880   9.998  17.915  0.00  0.00    +0.000 C 
ATOM     30  O   UNL     1      -0.428   9.950  18.425  0.00  0.00    +0.000 OA
ATOM     31  H   UNL     1       1.900  11.594  19.840  0.00  0.00    +0.000 HD
ENDBRANCH  26  27
ENDBRANCH  19  21
ENDBRANCH   2  19
TORSDOF 8
ENDMDL
