MODEL 1
REMARK VINA RESULT:      -6.6      0.000      0.000
REMARK  Name = 
REMARK  8 active torsions:
REMARK  status: ('A' for Active; 'I' for Inactive)
REMARK    1  A    between atoms: O_1  and  C_2
REMARK    2  A    between atoms: C_2  and  C_3
REMARK    3  A    between atoms: C_3  and  C_4
REMARK    4  A    between atoms: C_7  and  O_8
REMARK    5  A    between atoms: O_8  and  C_9
REMARK    6  A    between atoms: C_9  and  C_10
REMARK    7  A    between atoms: C_10  and  C_11
REMARK    8  A    between atoms: C_11  and  N_12
REMARK                            x       y       z     vdW  Elec       q    Type
REMARK                         _______ _______ _______ _____ _____    ______ ____
ROOT
ATOM      1  C   UNL     1       5.933   3.604  12.668  0.00  0.00    +0.000 A 
ATOM      2  C   UNL     1       7.068   4.406  12.520  0.00  0.00    +0.000 A 
ATOM      3  C   UNL     1       7.599   5.090  13.614  0.00  0.00    +0.000 A 
ATOM      4  C   UNL     1       7.011   4.981  14.877  0.00  0.00    +0.000 A 
ATOM      5  C   UNL     1       5.878   4.181  15.028  0.00  0.00    +0.000 A 
ATOM      6  C   UNL     1       5.340   3.495  13.932  0.00  0.00    +0.000 A 
ENDROOT
BRANCH   1   7
ATOM      7  C   UNL     1       5.388   2.856  11.481  0.00  0.00    +0.000 C 
BRANCH   7   8
ATOM      8  C   UNL     1       5.894   1.420  11.426  0.00  0.00    +0.000 C 
BRANCH   8   9
ATOM      9  O   UNL     1       7.294   1.425  11.164  0.00  0.00    +0.000 OA
ATOM     10  H   UNL     1       7.646   2.256  11.527  0.00  0.00    +0.000 HD
ENDBRANCH   8   9
ENDBRANCH   7   8
ENDBRANCH   1   7
BRANCH   4  11
ATOM     11  O   UNL     1       7.462   5.602  16.016  0.00  0.00    +0.000 OA
BRANCH  11  12
ATOM     12  C   UNL     1       7.436   4.786  17.192  0.00  0.00    +0.000 C 
BRANCH  12  13
ATOM     13  C   UNL     1       7.164   5.642  18.422  0.00  0.00    +0.000 C 
BRANCH  13  14
ATOM     14  C   UNL     1       5.924   5.152  19.184  0.00  0.00    +0.000 C 
BRANCH  14  15
ATOM     15  N   UNL     1       4.707   5.023  18.356  0.00  0.00    +0.000 NA
ATOM     16  C   UNL     1       4.253   3.626  18.262  0.00  0.00    +0.000 C 
ATOM     17  C   UNL     1       3.002   3.492  17.391  0.00  0.00    +0.000 C 
ATOM     18  C   UNL     1       1.877   4.381  17.901  0.00  0.00    +0.000 C 
ATOM     19  C   UNL     1       2.368   5.816  18.040  0.00  0.00    +0.000 C 
ATOM     20  C   UNL     1       3.639   5.888  18.889  0.00  0.00    +0.000 C 
ENDBRANCH  14  15
ENDBRANCH  13  14
ENDBRANCH  12  13
ENDBRANCH  11  12
ENDBRANCH   4  11
TORSDOF 8
ENDMDL
MODEL 2
REMARK VINA RESULT:      -6.3      2.601      4.964
REMARK  Name = 
REMARK  8 active torsions:
REMARK  status: ('A' for Active; 'I' for Inactive)
REMARK    1  A    between atoms: O_1  and  C_2
REMARK    2  A    between atoms: C_2  and  C_3
REMARK    3  A    between atoms: C_3  and  C_4
REMARK    4  A    between atoms: C_7  and  O_8
REMARK    5  A    between atoms: O_8  and  C_9
REMARK    6  A    between atoms: C_9  and  C_10
REMARK    7  A    between atoms: C_10  and  C_11
REMARK    8  A    between atoms: C_11  and  N_12
REMARK                            x       y       z     vdW  Elec       q    Type
REMARK                         _______ _______ _______ _____ _____    ______ ____
ROOT
ATOM      1  C   UNL     1       5.774   4.936  17.456  0.00  0.00    +0.000 A 
ATOM      2  C   UNL     1       4.642   5.358  16.753  0.00  0.00    +0.000 A 
ATOM      3  C   UNL     1       3.539   5.877  17.432  0.00  0.00    +0.000 A 
ATOM      4  C   UNL     1       3.549   5.992  18.824  0.00  0.00    +0.000 A 
ATOM      5  C   UNL     1       4.677   5.572  19.529  0.00  0.00    +0.000 A 
ATOM      6  C   UNL     1       5.784   5.048  18.853  0.00  0.00    +0.000 A 
ENDROOT
BRANCH   1   7
ATOM      7  C   UNL     1       6.963   4.399  16.706  0.00  0.00    +0.000 C 
BRANCH   7   8
ATOM      8  C   UNL     1       6.775   4.489  15.196  0.00  0.00    +0.000 C 
BRANCH   8   9
ATOM      9  O   UNL     1       7.665   5.467  14.669  0.00  0.00    +0.000 OA
ATOM     10  H   UNL     1       8.568   5.157  14.857  0.00  0.00    +0.000 HD
ENDBRANCH   8   9
ENDBRANCH   7   8
ENDBRANCH   1   7
BRANCH   4  11
ATOM     11  O   UNL     1       2.522   6.498  19.584  0.00  0.00    +0.000 OA
BRANCH  11  12
ATOM     12  C   UNL     1       2.208   5.732  20.751  0.00  0.00    +0.000 C 
BRANCH  12  13
ATOM     13  C   UNL     1       1.020   4.819  20.478  0.00  0.00    +0.000 C 
BRANCH  13  14
ATOM     14  C   UNL     1       1.280   3.393  20.987  0.00  0.00    +0.000 C 
BRANCH  14  15
ATOM     15  N   UNL     1       1.947   2.507  20.012  0.00  0.00    +0.000 NA
ATOM     16  C   UNL     1       1.659   2.905  18.624  0.00  0.00    +0.000 C 
ATOM     17  C   UNL     1       2.338   1.976  17.614  0.00  0.00    +0.000 C 
ATOM     18  C   UNL     1       3.841   1.912  17.846  0.00  0.00    +0.000 C 
ATOM     19  C   UNL     1       4.130   1.545  19.296  0.00  0.00    +0.000 C 
ATOM     20  C   UNL     1       3.399   2.481  20.262  0.00  0.00    +0.000 C 
ENDBRANCH  14  15
ENDBRANCH  13  14
ENDBRANCH  12  13
ENDBRANCH  11  12
ENDBRANCH   4  11
TORSDOF 8
ENDMDL
MODEL 3
REMARK VINA RESULT:      -6.3      4.138      7.908
REMARK  Name = 
REMARK  8 active torsions:
REMARK  status: ('A' for Active; 'I' for Inactive)
REMARK    1  A    between atoms: O_1  and  C_2
REMARK    2  A    between atoms: C_2  and  C_3
REMARK    3  A    between atoms: C_3  and  C_4
REMARK    4  A    between atoms: C_7  and  O_8
REMARK    5  A    between atoms: O_8  and  C_9
REMARK    6  A    between atoms: C_9  and  C_10
REMARK    7  A    between atoms: C_10  and  C_11
REMARK    8  A    between atoms: C_11  and  N_12
REMARK                            x       y       z     vdW  Elec       q    Type
REMARK                         _______ _______ _______ _____ _____    ______ ____
ROOT
ATOM      1  C   UNL     1       1.295   9.289  19.817  0.00  0.00    +0.000 A 
ATOM      2  C   UNL     1       1.632   8.069  20.410  0.00  0.00    +0.000 A 
ATOM      3  C   UNL     1       2.296   7.085  19.677  0.00  0.00    +0.000 A 
ATOM      4  C   UNL     1       2.644   7.304  18.341  0.00  0.00    +0.000 A 
ATOM      5  C   UNL     1       2.310   8.521  17.747  0.00  0.00    +0.000 A 
ATOM      6  C   UNL     1       1.641   9.509  18.477  0.00  0.00    +0.000 A 
ENDROOT
BRANCH   1   7
ATOM      7  C   UNL     1       0.598  10.346  20.629  0.00  0.00    +0.000 C 
BRANCH   7   8
ATOM      8  C   UNL     1      -0.191   9.751  21.789  0.00  0.00    +0.000 C 
BRANCH   8   9
ATOM      9  O   UNL     1       0.375  10.192  23.018  0.00  0.00    +0.000 OA
ATOM     10  H   UNL     1       1.168   9.651  23.174  0.00  0.00    +0.000 HD
ENDBRANCH   8   9
ENDBRANCH   7   8
ENDBRANCH   1   7
BRANCH   4  11
ATOM     11  O   UNL     1       3.307   6.407  17.539  0.00  0.00    +0.000 OA
BRANCH  11  12
ATOM     12  C   UNL     1       4.414   5.750  18.166  0.00  0.00    +0.000 C 
BRANCH  12  13
ATOM     13  C   UNL     1       4.765   4.474  17.411  0.00  0.00    +0.000 C 
BRANCH  13  14
ATOM     14  C   UNL     1       3.867   3.304  17.839  0.00  0.00    +0.000 C 
BRANCH  14  15
ATOM     15  N   UNL     1       3.119   3.532  19.092  0.00  0.00    +0.000 NA
ATOM     16  C   UNL     1       1.665   3.582  18.861  0.00  0.00    +0.000 C 
ATOM     17  C   UNL     1       0.893   3.835  20.157  0.00  0.00    +0.000 C 
ATOM     18  C   UNL     1       1.225   2.788  21.211  0.00  0.00    +0.000 C 
ATOM     19  C   UNL     1       2.733   2.710  21.410  0.00  0.00    +0.000 C 
ATOM     20  C   UNL     1       3.458   2.493  20.080  0.00  0.00    +0.000 C 
ENDBRANCH  14  15
ENDBRANCH  13  14
ENDBRANCH  12  13
ENDBRANCH  11  12
ENDBRANCH   4  11
TORSDOF 8
ENDMDL
MODEL 4
REMARK VINA RESULT:      -6.2      1.215      1.337
REMARK  Name = 
REMARK  8 active torsions:
REMARK  status: ('A' for Active; 'I' for Inactive)
REMARK    1  A    between atoms: O_1  and  C_2
REMARK    2  A    between atoms: C_2  and  C_3
REMARK    3  A    between atoms: C_3  and  C_4
REMARK    4  A    between atoms: C_7  and  O_8
REMARK    5  A    between atoms: O_8  and  C_9
REMARK    6  A    between atoms: C_9  and  C_10
REMARK    7  A    between atoms: C_10  and  C_11
REMARK    8  A    between atoms: C_11  and  N_12
REMARK                            x       y       z     vdW  Elec       q    Type
REMARK                         _______ _______ _______ _____ _____    ______ ____
ROOT
ATOM      1  C   UNL     1       5.773   3.604  12.558  0.00  0.00    +0.000 A 
ATOM      2  C   UNL     1       7.000   4.232  12.328  0.00  0.00    +0.000 A 
ATOM      3  C   UNL     1       7.648   4.918  13.357  0.00  0.00    +0.000 A 
ATOM      4  C   UNL     1       7.085   4.983  14.634  0.00  0.00    +0.000 A 
ATOM      5  C   UNL     1       5.861   4.356  14.867  0.00  0.00    +0.000 A 
ATOM      6  C   UNL     1       5.207   3.670  13.837  0.00  0.00    +0.000 A 
ENDROOT
BRANCH   1   7
ATOM      7  C   UNL     1       5.100   2.850  11.442  0.00  0.00    +0.000 C 
BRANCH   7   8
ATOM      8  C   UNL     1       3.941   3.634  10.839  0.00  0.00    +0.000 C 
BRANCH   8   9
ATOM      9  O   UNL     1       2.958   2.724  10.357  0.00  0.00    +0.000 OA
ATOM     10  H   UNL     1       3.171   2.547   9.424  0.00  0.00    +0.000 HD
ENDBRANCH   8   9
ENDBRANCH   7   8
ENDBRANCH   1   7
BRANCH   4  11
ATOM     11  O   UNL     1       7.646   5.621  15.714  0.00  0.00    +0.000 OA
BRANCH  11  12
ATOM     12  C   UNL     1       6.703   6.155  16.648  0.00  0.00    +0.000 C 
BRANCH  12  13
ATOM     13  C   UNL     1       7.140   5.844  18.074  0.00  0.00    +0.000 C 
BRANCH  13  14
ATOM     14  C   UNL     1       6.066   5.046  18.828  0.00  0.00    +0.000 C 
BRANCH  14  15
ATOM     15  N   UNL     1       4.757   4.985  18.147  0.00  0.00    +0.000 NA
ATOM     16  C   UNL     1       4.263   3.603  18.031  0.00  0.00    +0.000 C 
ATOM     17  C   UNL     1       2.914   3.540  17.311  0.00  0.00    +0.000 C 
ATOM     18  C   UNL     1       1.878   4.416  18.002  0.00  0.00    +0.000 C 
ATOM     19  C   UNL     1       2.415   5.832  18.160  0.00  0.00    +0.000 C 
ATOM     20  C   UNL     1       3.780   5.835  18.852  0.00  0.00    +0.000 C 
ENDBRANCH  14  15
ENDBRANCH  13  14
ENDBRANCH  12  13
ENDBRANCH  11  12
ENDBRANCH   4  11
TORSDOF 8
ENDMDL
MODEL 5
REMARK VINA RESULT:      -6.2      4.108      7.852
REMARK  Name = 
REMARK  8 active torsions:
REMARK  status: ('A' for Active; 'I' for Inactive)
REMARK    1  A    between atoms: O_1  and  C_2
REMARK    2  A    between atoms: C_2  and  C_3
REMARK    3  A    between atoms: C_3  and  C_4
REMARK    4  A    between atoms: C_7  and  O_8
REMARK    5  A    between atoms: O_8  and  C_9
REMARK    6  A    between atoms: C_9  and  C_10
REMARK    7  A    between atoms: C_10  and  C_11
REMARK    8  A    between atoms: C_11  and  N_12
REMARK                            x       y       z     vdW  Elec       q    Type
REMARK                         _______ _______ _______ _____ _____    ______ ____
ROOT
ATOM      1  C   UNL     1       1.205   8.973  19.921  0.00  0.00    +0.000 A 
ATOM      2  C   UNL     1       1.409   9.380  18.600  0.00  0.00    +0.000 A 
ATOM      3  C   UNL     1       2.191   8.615  17.735  0.00  0.00    +0.000 A 
ATOM      4  C   UNL     1       2.779   7.424  18.171  0.00  0.00    +0.000 A 
ATOM      5  C   UNL     1       2.577   7.014  19.490  0.00  0.00    +0.000 A 
ATOM      6  C   UNL     1       1.796   7.781  20.361  0.00  0.00    +0.000 A 
ENDROOT
BRANCH   1   7
ATOM      7  C   UNL     1       0.341   9.801  20.833  0.00  0.00    +0.000 C 
BRANCH   7   8
ATOM      8  C   UNL     1       0.683  11.284  20.757  0.00  0.00    +0.000 C 
BRANCH   8   9
ATOM      9  O   UNL     1       0.232  11.931  21.942  0.00  0.00    +0.000 OA
ATOM     10  H   UNL     1      -0.708  12.142  21.808  0.00  0.00    +0.000 HD
ENDBRANCH   8   9
ENDBRANCH   7   8
ENDBRANCH   1   7
BRANCH   4  11
ATOM     11  O   UNL     1       3.554   6.595  17.398  0.00  0.00    +0.000 OA
BRANCH  11  12
ATOM     12  C   UNL     1       4.455   5.761  18.134  0.00  0.00    +0.000 C 
BRANCH  12  13
ATOM     13  C   UNL     1       4.718   4.468  17.373  0.00  0.00    +0.000 C 
BRANCH  13  14
ATOM     14  C   UNL     1       3.676   3.393  17.715  0.00  0.00    +0.000 C 
BRANCH  14  15
ATOM     15  N   UNL     1       2.991   3.594  19.008  0.00  0.00    +0.000 NA
ATOM     16  C   UNL     1       1.526   3.548  18.865  0.00  0.00    +0.000 C 
ATOM     17  C   UNL     1       0.817   3.772  20.202  0.00  0.00    +0.000 C 
ATOM     18  C   UNL     1       1.279   2.766  21.247  0.00  0.00    +0.000 C 
ATOM     19  C   UNL     1       2.797   2.787  21.356  0.00  0.00    +0.000 C 
ATOM     20  C   UNL     1       3.455   2.595  19.987  0.00  0.00    +0.000 C 
ENDBRANCH  14  15
ENDBRANCH  13  14
ENDBRANCH  12  13
ENDBRANCH  11  12
ENDBRANCH   4  11
TORSDOF 8
ENDMDL
MODEL 6
REMARK VINA RESULT:      -6.2      1.669      2.527
REMARK  Name = 
REMARK  8 active torsions:
REMARK  status: ('A' for Active; 'I' for Inactive)
REMARK    1  A    between atoms: O_1  and  C_2
REMARK    2  A    between atoms: C_2  and  C_3
REMARK    3  A    between atoms: C_3  and  C_4
REMARK    4  A    between atoms: C_7  and  O_8
REMARK    5  A    between atoms: O_8  and  C_9
REMARK    6  A    between atoms: C_9  and  C_10
REMARK    7  A    between atoms: C_10  and  C_11
REMARK    8  A    between atoms: C_11  and  N_12
REMARK                            x       y       z     vdW  Elec       q    Type
REMARK                         _______ _______ _______ _____ _____    ______ ____
ROOT
ATOM      1  C   UNL     1       6.364   4.070  14.071  0.00  0.00    +0.000 A 
ATOM      2  C   UNL     1       7.214   4.955  14.739  0.00  0.00    +0.000 A 
ATOM      3  C   UNL     1       7.017   5.243  16.091  0.00  0.00    +0.000 A 
ATOM      4  C   UNL     1       5.972   4.646  16.801  0.00  0.00    +0.000 A 
ATOM      5  C   UNL     1       5.122   3.761  16.137  0.00  0.00    +0.000 A 
ATOM      6  C   UNL     1       5.314   3.472  14.781  0.00  0.00    +0.000 A 
ENDROOT
BRANCH   1   7
ATOM      7  C   UNL     1       6.605   3.755  12.620  0.00  0.00    +0.000 C 
BRANCH   7   8
ATOM      8  C   UNL     1       5.468   2.942  12.013  0.00  0.00    +0.000 C 
BRANCH   8   9
ATOM      9  O   UNL     1       5.944   1.642  11.680  0.00  0.00    +0.000 OA
ATOM     10  H   UNL     1       6.194   1.666  10.740  0.00  0.00    +0.000 HD
ENDBRANCH   8   9
ENDBRANCH   7   8
ENDBRANCH   1   7
BRANCH   4  11
ATOM     11  O   UNL     1       5.701   4.853  18.132  0.00  0.00    +0.000 OA
BRANCH  11  12
ATOM     12  C   UNL     1       5.388   6.207  18.474  0.00  0.00    +0.000 C 
BRANCH  12  13
ATOM     13  C   UNL     1       3.995   6.568  17.975  0.00  0.00    +0.000 C 
BRANCH  13  14
ATOM     14  C   UNL     1       2.936   6.358  19.067  0.00  0.00    +0.000 C 
BRANCH  14  15
ATOM     15  N   UNL     1       2.573   4.946  19.305  0.00  0.00    +0.000 NA
ATOM     16  C   UNL     1       1.598   4.808  20.400  0.00  0.00    +0.000 C 
ATOM     17  C   UNL     1       1.235   3.344  20.656  0.00  0.00    +0.000 C 
ATOM     18  C   UNL     1       0.710   2.676  19.392  0.00  0.00    +0.000 C 
ATOM     19  C   UNL     1       1.703   2.863  18.253  0.00  0.00    +0.000 C 
ATOM     20  C   UNL     1       2.059   4.340  18.063  0.00  0.00    +0.000 C 
ENDBRANCH  14  15
ENDBRANCH  13  14
ENDBRANCH  12  13
ENDBRANCH  11  12
ENDBRANCH   4  11
TORSDOF 8
ENDMDL
MODEL 7
REMARK VINA RESULT:      -6.2      4.224      6.868
REMARK  Name = 
REMARK  8 active torsions:
REMARK  status: ('A' for Active; 'I' for Inactive)
REMARK    1  A    between atoms: O_1  and  C_2
REMARK    2  A    between atoms: C_2  and  C_3
REMARK    3  A    between atoms: C_3  and  C_4
REMARK    4  A    between atoms: C_7  and  O_8
REMARK    5  A    between atoms: O_8  and  C_9
REMARK    6  A    between atoms: C_9  and  C_10
REMARK    7  A    between atoms: C_10  and  C_11
REMARK    8  A    between atoms: C_11  and  N_12
REMARK                            x       y       z     vdW  Elec       q    Type
REMARK                         _______ _______ _______ _____ _____    ______ ____
ROOT
ATOM      1  C   UNL     1       2.285   7.033  18.596  0.00  0.00    +0.000 A 
ATOM      2  C   UNL     1       1.935   5.887  17.877  0.00  0.00    +0.000 A 
ATOM      3  C   UNL     1       1.528   4.730  18.544  0.00  0.00    +0.000 A 
ATOM      4  C   UNL     1       1.456   4.700  19.939  0.00  0.00    +0.000 A 
ATOM      5  C   UNL     1       1.804   5.843  20.659  0.00  0.00    +0.000 A 
ATOM      6  C   UNL     1       2.215   7.004  19.995  0.00  0.00    +0.000 A 
ENDROOT
BRANCH   1   7
ATOM      7  C   UNL     1       2.701   8.278  17.859  0.00  0.00    +0.000 C 
BRANCH   7   8
ATOM      8  C   UNL     1       1.591   9.322  17.826  0.00  0.00    +0.000 C 
BRANCH   8   9
ATOM      9  O   UNL     1       2.142  10.583  17.462  0.00  0.00    +0.000 OA
ATOM     10  H   UNL     1       1.848  10.768  16.553  0.00  0.00    +0.000 HD
ENDBRANCH   8   9
ENDBRANCH   7   8
ENDBRANCH   1   7
BRANCH   4  11
ATOM     11  O   UNL     1       1.057   3.618  20.687  0.00  0.00    +0.000 OA
BRANCH  11  12
ATOM     12  C   UNL     1       1.776   2.410  20.420  0.00  0.00    +0.000 C 
BRANCH  12  13
ATOM     13  C   UNL     1       3.276   2.655  20.528  0.00  0.00    +0.000 C 
BRANCH  13  14
ATOM     14  C   UNL     1       4.020   2.129  19.291  0.00  0.00    +0.000 C 
BRANCH  14  15
ATOM     15  N   UNL     1       4.910   3.116  18.647  0.00  0.00    +0.000 NA
ATOM     16  C   UNL     1       4.473   3.437  17.278  0.00  0.00    +0.000 C 
ATOM     17  C   UNL     1       5.405   4.447  16.606  0.00  0.00    +0.000 C 
ATOM     18  C   UNL     1       5.530   5.718  17.434  0.00  0.00    +0.000 C 
ATOM     19  C   UNL     1       5.938   5.374  18.860  0.00  0.00    +0.000 C 
ATOM     20  C   UNL     1       4.996   4.335  19.472  0.00  0.00    +0.000 C 
ENDBRANCH  14  15
ENDBRANCH  13  14
ENDBRANCH  12  13
ENDBRANCH  11  12
ENDBRANCH   4  11
TORSDOF 8
ENDMDL
MODEL 8
REMARK VINA RESULT:      -6.1      1.454      1.780
REMARK  Name = 
REMARK  8 active torsions:
REMARK  status: ('A' for Active; 'I' for Inactive)
REMARK    1  A    between atoms: O_1  and  C_2
REMARK    2  A    between atoms: C_2  and  C_3
REMARK    3  A    between atoms: C_3  and  C_4
REMARK    4  A    between atoms: C_7  and  O_8
REMARK    5  A    between atoms: O_8  and  C_9
REMARK    6  A    between atoms: C_9  and  C_10
REMARK    7  A    between atoms: C_10  and  C_11
REMARK    8  A    between atoms: C_11  and  N_12
REMARK                            x       y       z     vdW  Elec       q    Type
REMARK                         _______ _______ _______ _____ _____    ______ ____
ROOT
ATOM      1  C   UNL     1       6.344   4.072  13.388  0.00  0.00    +0.000 A 
ATOM      2  C   UNL     1       7.417   4.745  13.979  0.00  0.00    +0.000 A 
ATOM      3  C   UNL     1       7.287   5.310  15.248  0.00  0.00    +0.000 A 
ATOM      4  C   UNL     1       6.085   5.207  15.953  0.00  0.00    +0.000 A 
ATOM      5  C   UNL     1       5.012   4.535  15.367  0.00  0.00    +0.000 A 
ATOM      6  C   UNL     1       5.138   3.970  14.093  0.00  0.00    +0.000 A 
ENDROOT
BRANCH   1   7
ATOM      7  C   UNL     1       6.511   3.450  12.028  0.00  0.00    +0.000 C 
BRANCH   7   8
ATOM      8  C   UNL     1       5.392   2.466  11.707  0.00  0.00    +0.000 C 
BRANCH   8   9
ATOM      9  O   UNL     1       5.956   1.195  11.402  0.00  0.00    +0.000 OA
ATOM     10  H   UNL     1       5.213   0.588  11.240  0.00  0.00    +0.000 HD
ENDBRANCH   8   9
ENDBRANCH   7   8
ENDBRANCH   1   7
BRANCH   4  11
ATOM     11  O   UNL     1       5.858   5.716  17.209  0.00  0.00    +0.000 OA
BRANCH  11  12
ATOM     12  C   UNL     1       6.488   4.992  18.270  0.00  0.00    +0.000 C 
BRANCH  12  13
ATOM     13  C   UNL     1       5.438   4.411  19.208  0.00  0.00    +0.000 C 
BRANCH  13  14
ATOM     14  C   UNL     1       4.330   5.431  19.510  0.00  0.00    +0.000 C 
BRANCH  14  15
ATOM     15  N   UNL     1       2.958   4.925  19.304  0.00  0.00    +0.000 NA
ATOM     16  C   UNL     1       2.925   3.808  18.344  0.00  0.00    +0.000 C 
ATOM     17  C   UNL     1       1.501   3.295  18.119  0.00  0.00    +0.000 C 
ATOM     18  C   UNL     1       0.848   2.885  19.432  0.00  0.00    +0.000 C 
ATOM     19  C   UNL     1       0.928   4.028  20.434  0.00  0.00    +0.000 C 
ATOM     20  C   UNL     1       2.366   4.527  20.594  0.00  0.00    +0.000 C 
ENDBRANCH  14  15
ENDBRANCH  13  14
ENDBRANCH  12  13
ENDBRANCH  11  12
ENDBRANCH   4  11
TORSDOF 8
ENDMDL
MODEL 9
REMARK VINA RESULT:      -6.1      4.070      7.374
REMARK  Name = 
REMARK  8 active torsions:
REMARK  status: ('A' for Active; 'I' for Inactive)
REMARK    1  A    between atoms: O_1  and  C_2
REMARK    2  A    between atoms: C_2  and  C_3
REMARK    3  A    between atoms: C_3  and  C_4
REMARK    4  A    between atoms: C_7  and  O_8
REMARK    5  A    between atoms: O_8  and  C_9
REMARK    6  A    between atoms: C_9  and  C_10
REMARK    7  A    between atoms: C_10  and  C_11
REMARK    8  A    between atoms: C_11  and  N_12
REMARK                            x       y       z     vdW  Elec       q    Type
REMARK                         _______ _______ _______ _____ _____    ______ ____
ROOT
ATOM      1  C   UNL     1       1.701   8.602  19.151  0.00  0.00    +0.000 A 
ATOM      2  C   UNL     1       1.870   7.586  20.095  0.00  0.00    +0.000 A 
ATOM      3  C   UNL     1       2.745   6.527  19.847  0.00  0.00    +0.000 A 
ATOM      4  C   UNL     1       3.473   6.469  18.656  0.00  0.00    +0.000 A 
ATOM      5  C   UNL     1       3.308   7.483  17.712  0.00  0.00    +0.000 A 
ATOM      6  C   UNL     1       2.428   8.544  17.955  0.00  0.00    +0.000 A 
ENDROOT
BRANCH   1   7
ATOM      7  C   UNL     1       0.769   9.747  19.445  0.00  0.00    +0.000 C 
BRANCH   7   8
ATOM      8  C   UNL     1       0.450   9.859  20.930  0.00  0.00    +0.000 C 
BRANCH   8   9
ATOM      9  O   UNL     1       1.164  10.960  21.482  0.00  0.00    +0.000 OA
ATOM     10  H   UNL     1       1.548  10.655  22.323  0.00  0.00    +0.000 HD
ENDBRANCH   8   9
ENDBRANCH   7   8
ENDBRANCH   1   7
BRANCH   4  11
ATOM     11  O   UNL     1       4.367   5.480  18.322  0.00  0.00    +0.000 OA
BRANCH  11  12
ATOM     12  C   UNL     1       4.289   5.039  16.963  0.00  0.00    +0.000 C 
BRANCH  12  13
ATOM     13  C   UNL     1       3.457   3.767  16.869  0.00  0.00    +0.000 C 
BRANCH  13  14
ATOM     14  C   UNL     1       3.925   2.714  17.885  0.00  0.00    +0.000 C 
BRANCH  14  15
ATOM     15  N   UNL     1       2.975   2.462  18.987  0.00  0.00    +0.000 NA
ATOM     16  C   UNL     1       3.542   2.834  20.294  0.00  0.00    +0.000 C 
ATOM     17  C   UNL     1       2.563   2.558  21.438  0.00  0.00    +0.000 C 
ATOM     18  C   UNL     1       1.237   3.272  21.213  0.00  0.00    +0.000 C 
ATOM     19  C   UNL     1       0.680   2.918  19.841  0.00  0.00    +0.000 C 
ATOM     20  C   UNL     1       1.711   3.179  18.739  0.00  0.00    +0.000 C 
ENDBRANCH  14  15
ENDBRANCH  13  14
ENDBRANCH  12  13
ENDBRANCH  11  12
ENDBRANCH   4  11
TORSDOF 8
ENDMDL
