MODEL 1
REMARK VINA RESULT:      -7.3      0.000      0.000
REMARK  Name = 
REMARK  2 active torsions:
REMARK  status: ('A' for Active; 'I' for Inactive)
REMARK    1  A    between atoms: C_2  and  C_3
REMARK    2  A    between atoms: C_3  and  N_4
REMARK                            x       y       z     vdW  Elec       q    Type
REMARK                         _______ _______ _______ _____ _____    ______ ____
ROOT
ATOM      1  C   UNL     1       0.907  10.571  19.414  0.00  0.00    +0.000 C 
ENDROOT
BRANCH   1   2
ATOM      2  N   UNL     1       1.397   9.198  19.627  0.00  0.00    +0.000 N 
ATOM      3  C   UNL     1       1.390   8.578  20.873  0.00  0.00    +0.000 A 
ATOM      4  S   UNL     1       1.034   9.252  22.367  0.00  0.00    +0.000 S 
ATOM      5  N   UNL     1       1.745   7.259  20.916  0.00  0.00    +0.000 N 
ATOM      6  C   UNL     1       2.248   6.555  19.830  0.00  0.00    +0.000 A 
ATOM      7  C   UNL     1       2.623   5.219  19.983  0.00  0.00    +0.000 A 
ATOM      8  C   UNL     1       3.206   4.542  18.912  0.00  0.00    +0.000 A 
ATOM      9  C   UNL     1       3.417   5.201  17.698  0.00  0.00    +0.000 A 
ATOM     10  C   UNL     1       3.025   6.532  17.547  0.00  0.00    +0.000 A 
ATOM     11  C   UNL     1       2.429   7.205  18.618  0.00  0.00    +0.000 A 
ATOM     12  C   UNL     1       2.012   8.615  18.504  0.00  0.00    +0.000 A 
ATOM     13  O   UNL     1       2.277   9.221  17.468  0.00  0.00    +0.000 OA
ATOM     14  H   UNL     1       1.698   6.807  21.822  0.00  0.00    +0.000 HD
ENDBRANCH   1   2
BRANCH   1  16
ATOM     15  O   UNL     1      -1.152  10.097  18.202  0.00  0.00    +0.000 OA
ATOM     16  C   UNL     1      -0.623  10.649  19.165  0.00  0.00    +0.000 C 
ATOM     17  N   UNL     1      -1.365  11.461  20.033  0.00  0.00    +0.000 N 
ATOM     18  C   UNL     1      -2.711  11.868  19.628  0.00  0.00    +0.000 C 
ATOM     19  C   UNL     1      -3.090  13.193  20.286  0.00  0.00    +0.000 C 
ATOM     20  C   UNL     1      -2.902  13.148  21.804  0.00  0.00    +0.000 C 
ATOM     21  C   UNL     1      -1.515  12.636  22.180  0.00  0.00    +0.000 C 
ATOM     22  C   UNL     1      -1.212  11.332  21.473  0.00  0.00    +0.000 C 
ATOM     23  O   UNL     1      -3.907  12.296  22.380  0.00  0.00    +0.000 OA
ATOM     24  C   UNL     1      -4.407  13.026  23.500  0.00  0.00    +0.000 C 
ATOM     25  C   UNL     1      -4.259  14.461  23.076  0.00  0.00    +0.000 C 
ATOM     26  O   UNL     1      -3.035  14.474  22.346  0.00  0.00    +0.000 OA
ENDBRANCH   1  16
TORSDOF 2
ENDMDL
MODEL 2
REMARK VINA RESULT:      -7.2      1.282      1.824
REMARK  Name = 
REMARK  2 active torsions:
REMARK  status: ('A' for Active; 'I' for Inactive)
REMARK    1  A    between atoms: C_2  and  C_3
REMARK    2  A    between atoms: C_3  and  N_4
REMARK                            x       y       z     vdW  Elec       q    Type
REMARK                         _______ _______ _______ _____ _____    ______ ____
ROOT
ATOM      1  C   UNL     1      -0.057  10.547  19.249  0.00  0.00    +0.000 C 
ENDROOT
BRANCH   1   2
ATOM      2  N   UNL     1       0.797   9.371  19.488  0.00  0.00    +0.000 N 
ATOM      3  C   UNL     1       0.843   8.705  20.710  0.00  0.00    +0.000 A 
ATOM      4  S   UNL     1       0.142   9.156  22.165  0.00  0.00    +0.000 S 
ATOM      5  N   UNL     1       1.572   7.550  20.765  0.00  0.00    +0.000 N 
ATOM      6  C   UNL     1       2.377   7.091  19.732  0.00  0.00    +0.000 A 
ATOM      7  C   UNL     1       3.118   5.920  19.898  0.00  0.00    +0.000 A 
ATOM      8  C   UNL     1       3.989   5.509  18.890  0.00  0.00    +0.000 A 
ATOM      9  C   UNL     1       4.122   6.269  17.726  0.00  0.00    +0.000 A 
ATOM     10  C   UNL     1       3.367   7.431  17.559  0.00  0.00    +0.000 A 
ATOM     11  C   UNL     1       2.484   7.834  18.566  0.00  0.00    +0.000 A 
ATOM     12  C   UNL     1       1.677   9.061  18.435  0.00  0.00    +0.000 A 
ATOM     13  O   UNL     1       1.857   9.778  17.452  0.00  0.00    +0.000 OA
ATOM     14  H   UNL     1       1.565   7.053  21.649  0.00  0.00    +0.000 HD
ENDBRANCH   1   2
BRANCH   1  16
ATOM     15  O   UNL     1       1.558  12.218  19.979  0.00  0.00    +0.000 OA
ATOM     16  C   UNL     1       0.399  11.810  20.027  0.00  0.00    +0.000 C 
ATOM     17  N   UNL     1      -0.547  12.411  20.869  0.00  0.00    +0.000 N 
ATOM     18  C   UNL     1      -0.076  13.347  21.890  0.00  0.00    +0.000 C 
ATOM     19  C   UNL     1      -1.044  13.379  23.072  0.00  0.00    +0.000 C 
ATOM     20  C   UNL     1      -2.483  13.646  22.622  0.00  0.00    +0.000 C 
ATOM     21  C   UNL     1      -2.899  12.704  21.497  0.00  0.00    +0.000 C 
ATOM     22  C   UNL     1      -1.881  12.718  20.377  0.00  0.00    +0.000 C 
ATOM     23  O   UNL     1      -2.594  15.010  22.180  0.00  0.00    +0.000 OA
ATOM     24  C   UNL     1      -3.790  15.495  22.792  0.00  0.00    +0.000 C 
ATOM     25  C   UNL     1      -3.862  14.721  24.079  0.00  0.00    +0.000 C 
ATOM     26  O   UNL     1      -3.381  13.427  23.724  0.00  0.00    +0.000 OA
ENDBRANCH   1  16
TORSDOF 2
ENDMDL
MODEL 3
REMARK VINA RESULT:      -7.0      2.319      8.529
REMARK  Name = 
REMARK  2 active torsions:
REMARK  status: ('A' for Active; 'I' for Inactive)
REMARK    1  A    between atoms: C_2  and  C_3
REMARK    2  A    between atoms: C_3  and  N_4
REMARK                            x       y       z     vdW  Elec       q    Type
REMARK                         _______ _______ _______ _____ _____    ______ ____
ROOT
ATOM      1  C   UNL     1       1.300   9.413  21.447  0.00  0.00    +0.000 C 
ENDROOT
BRANCH   1   2
ATOM      2  N   UNL     1       0.292  10.469  21.250  0.00  0.00    +0.000 N 
ATOM      3  C   UNL     1       0.186  11.203  20.071  0.00  0.00    +0.000 A 
ATOM      4  S   UNL     1       1.223  11.207  18.754  0.00  0.00    +0.000 S 
ATOM      5  N   UNL     1      -0.874  12.059  19.963  0.00  0.00    +0.000 N 
ATOM      6  C   UNL     1      -1.749  12.346  21.001  0.00  0.00    +0.000 A 
ATOM      7  C   UNL     1      -2.779  13.268  20.804  0.00  0.00    +0.000 A 
ATOM      8  C   UNL     1      -3.603  13.616  21.874  0.00  0.00    +0.000 A 
ATOM      9  C   UNL     1      -3.394  13.047  23.133  0.00  0.00    +0.000 A 
ATOM     10  C   UNL     1      -2.374  12.113  23.318  0.00  0.00    +0.000 A 
ATOM     11  C   UNL     1      -1.556  11.757  22.241  0.00  0.00    +0.000 A 
ATOM     12  C   UNL     1      -0.459  10.784  22.397  0.00  0.00    +0.000 A 
ATOM     13  O   UNL     1      -0.218  10.350  23.521  0.00  0.00    +0.000 OA
ATOM     14  H   UNL     1      -0.963  12.558  19.084  0.00  0.00    +0.000 HD
ENDBRANCH   1   2
BRANCH   1  16
ATOM     15  O   UNL     1      -0.347   7.632  21.669  0.00  0.00    +0.000 OA
ATOM     16  C   UNL     1       0.746   7.980  21.225  0.00  0.00    +0.000 C 
ATOM     17  N   UNL     1       1.589   7.068  20.578  0.00  0.00    +0.000 N 
ATOM     18  C   UNL     1       1.282   5.641  20.680  0.00  0.00    +0.000 C 
ATOM     19  C   UNL     1       2.555   4.809  20.533  0.00  0.00    +0.000 C 
ATOM     20  C   UNL     1       3.329   5.173  19.264  0.00  0.00    +0.000 C 
ATOM     21  C   UNL     1       3.549   6.678  19.157  0.00  0.00    +0.000 C 
ATOM     22  C   UNL     1       2.246   7.428  19.331  0.00  0.00    +0.000 C 
ATOM     23  O   UNL     1       2.600   4.706  18.115  0.00  0.00    +0.000 OA
ATOM     24  C   UNL     1       3.581   4.074  17.292  0.00  0.00    +0.000 C 
ATOM     25  C   UNL     1       4.578   3.541  18.284  0.00  0.00    +0.000 C 
ATOM     26  O   UNL     1       4.624   4.546  19.293  0.00  0.00    +0.000 OA
ENDBRANCH   1  16
TORSDOF 2
ENDMDL
MODEL 4
REMARK VINA RESULT:      -7.0      1.378      1.728
REMARK  Name = 
REMARK  2 active torsions:
REMARK  status: ('A' for Active; 'I' for Inactive)
REMARK    1  A    between atoms: C_2  and  C_3
REMARK    2  A    between atoms: C_3  and  N_4
REMARK                            x       y       z     vdW  Elec       q    Type
REMARK                         _______ _______ _______ _____ _____    ______ ____
ROOT
ATOM      1  C   UNL     1      -0.135  11.647  20.532  0.00  0.00    +0.000 C 
ENDROOT
BRANCH   1   2
ATOM      2  N   UNL     1       0.511  10.327  20.436  0.00  0.00    +0.000 N 
ATOM      3  C   UNL     1       0.517   9.409  21.483  0.00  0.00    +0.000 A 
ATOM      4  S   UNL     1       0.002   9.634  23.063  0.00  0.00    +0.000 S 
ATOM      5  N   UNL     1       1.032   8.170  21.225  0.00  0.00    +0.000 N 
ATOM      6  C   UNL     1       1.675   7.828  20.044  0.00  0.00    +0.000 A 
ATOM      7  C   UNL     1       2.205   6.546  19.889  0.00  0.00    +0.000 A 
ATOM      8  C   UNL     1       2.923   6.234  18.735  0.00  0.00    +0.000 A 
ATOM      9  C   UNL     1       3.114   7.201  17.745  0.00  0.00    +0.000 A 
ATOM     10  C   UNL     1       2.566   8.476  17.898  0.00  0.00    +0.000 A 
ATOM     11  C   UNL     1       1.836   8.783  19.051  0.00  0.00    +0.000 A 
ATOM     12  C   UNL     1       1.252  10.121  19.258  0.00  0.00    +0.000 A 
ATOM     13  O   UNL     1       1.492  10.999  18.431  0.00  0.00    +0.000 OA
ATOM     14  H   UNL     1       0.995   7.498  21.984  0.00  0.00    +0.000 HD
ENDBRANCH   1   2
BRANCH   1  16
ATOM     15  O   UNL     1      -1.927  11.179  18.950  0.00  0.00    +0.000 OA
ATOM     16  C   UNL     1      -1.607  11.652  20.040  0.00  0.00    +0.000 C 
ATOM     17  N   UNL     1      -2.544  12.308  20.848  0.00  0.00    +0.000 N 
ATOM     18  C   UNL     1      -3.837  12.669  20.266  0.00  0.00    +0.000 C 
ATOM     19  C   UNL     1      -4.426  13.882  20.983  0.00  0.00    +0.000 C 
ATOM     20  C   UNL     1      -4.480  13.677  22.499  0.00  0.00    +0.000 C 
ATOM     21  C   UNL     1      -3.133  13.219  23.048  0.00  0.00    +0.000 C 
ATOM     22  C   UNL     1      -2.612  12.026  22.274  0.00  0.00    +0.000 C 
ATOM     23  O   UNL     1      -5.489  12.700  22.808  0.00  0.00    +0.000 OA
ATOM     24  C   UNL     1      -6.221  13.264  23.897  0.00  0.00    +0.000 C 
ATOM     25  C   UNL     1      -6.128  14.744  23.651  0.00  0.00    +0.000 C 
ATOM     26  O   UNL     1      -4.809  14.921  23.142  0.00  0.00    +0.000 OA
ENDBRANCH   1  16
TORSDOF 2
ENDMDL
MODEL 5
REMARK VINA RESULT:      -6.9      2.905      8.199
REMARK  Name = 
REMARK  2 active torsions:
REMARK  status: ('A' for Active; 'I' for Inactive)
REMARK    1  A    between atoms: C_2  and  C_3
REMARK    2  A    between atoms: C_3  and  N_4
REMARK                            x       y       z     vdW  Elec       q    Type
REMARK                         _______ _______ _______ _____ _____    ______ ____
ROOT
ATOM      1  C   UNL     1       1.295   9.895  19.607  0.00  0.00    +0.000 C 
ENDROOT
BRANCH   1   2
ATOM      2  N   UNL     1      -0.065  10.408  19.366  0.00  0.00    +0.000 N 
ATOM      3  C   UNL     1      -0.806  11.074  20.339  0.00  0.00    +0.000 A 
ATOM      4  S   UNL     1      -0.444  11.272  21.964  0.00  0.00    +0.000 S 
ATOM      5  N   UNL     1      -1.999  11.616  19.953  0.00  0.00    +0.000 N 
ATOM      6  C   UNL     1      -2.575  11.416  18.706  0.00  0.00    +0.000 A 
ATOM      7  C   UNL     1      -3.819  11.980  18.419  0.00  0.00    +0.000 A 
ATOM      8  C   UNL     1      -4.431  11.707  17.196  0.00  0.00    +0.000 A 
ATOM      9  C   UNL     1      -3.804  10.869  16.270  0.00  0.00    +0.000 A 
ATOM     10  C   UNL     1      -2.552  10.322  16.557  0.00  0.00    +0.000 A 
ATOM     11  C   UNL     1      -1.934  10.608  17.779  0.00  0.00    +0.000 A 
ATOM     12  C   UNL     1      -0.619  10.041  18.126  0.00  0.00    +0.000 A 
ATOM     13  O   UNL     1      -0.106   9.235  17.352  0.00  0.00    +0.000 OA
ATOM     14  H   UNL     1      -2.510  12.133  20.660  0.00  0.00    +0.000 HD
ENDBRANCH   1   2
BRANCH   1  16
ATOM     15  O   UNL     1       0.630   7.991  20.973  0.00  0.00    +0.000 OA
ATOM     16  C   UNL     1       1.326   8.408  20.048  0.00  0.00    +0.000 C 
ATOM     17  N   UNL     1       2.256   7.577  19.410  0.00  0.00    +0.000 N 
ATOM     18  C   UNL     1       2.589   6.295  20.032  0.00  0.00    +0.000 C 
ATOM     19  C   UNL     1       3.997   5.857  19.633  0.00  0.00    +0.000 C 
ATOM     20  C   UNL     1       4.185   5.860  18.114  0.00  0.00    +0.000 C 
ATOM     21  C   UNL     1       3.744   7.184  17.500  0.00  0.00    +0.000 C 
ATOM     22  C   UNL     1       2.349   7.554  17.958  0.00  0.00    +0.000 C 
ATOM     23  O   UNL     1       3.425   4.782  17.541  0.00  0.00    +0.000 OA
ATOM     24  C   UNL     1       4.314   4.160  16.614  0.00  0.00    +0.000 C 
ATOM     25  C   UNL     1       5.668   4.376  17.231  0.00  0.00    +0.000 C 
ATOM     26  O   UNL     1       5.577   5.679  17.801  0.00  0.00    +0.000 OA
ENDBRANCH   1  16
TORSDOF 2
ENDMDL
MODEL 6
REMARK VINA RESULT:      -6.9      4.487      6.788
REMARK  Name = 
REMARK  2 active torsions:
REMARK  status: ('A' for Active; 'I' for Inactive)
REMARK    1  A    between atoms: C_2  and  C_3
REMARK    2  A    between atoms: C_3  and  N_4
REMARK                            x       y       z     vdW  Elec       q    Type
REMARK                         _______ _______ _______ _____ _____    ______ ____
ROOT
ATOM      1  C   UNL     1      -1.562  12.501  21.384  0.00  0.00    +0.000 C 
ENDROOT
BRANCH   1   2
ATOM      2  N   UNL     1      -2.357  12.179  20.187  0.00  0.00    +0.000 N 
ATOM      3  C   UNL     1      -3.679  12.585  20.025  0.00  0.00    +0.000 A 
ATOM      4  S   UNL     1      -4.685  13.318  21.149  0.00  0.00    +0.000 S 
ATOM      5  N   UNL     1      -4.264  12.339  18.815  0.00  0.00    +0.000 N 
ATOM      6  C   UNL     1      -3.677  11.586  17.807  0.00  0.00    +0.000 A 
ATOM      7  C   UNL     1      -4.372  11.355  16.620  0.00  0.00    +0.000 A 
ATOM      8  C   UNL     1      -3.812  10.529  15.646  0.00  0.00    +0.000 A 
ATOM      9  C   UNL     1      -2.566   9.934  15.863  0.00  0.00    +0.000 A 
ATOM     10  C   UNL     1      -1.869  10.183  17.046  0.00  0.00    +0.000 A 
ATOM     11  C   UNL     1      -2.427  11.022  18.016  0.00  0.00    +0.000 A 
ATOM     12  C   UNL     1      -1.730  11.301  19.285  0.00  0.00    +0.000 A 
ATOM     13  O   UNL     1      -0.676  10.710  19.516  0.00  0.00    +0.000 OA
ATOM     14  H   UNL     1      -5.213  12.675  18.695  0.00  0.00    +0.000 HD
ENDBRANCH   1   2
BRANCH   1  16
ATOM     15  O   UNL     1      -1.574  14.875  21.929  0.00  0.00    +0.000 OA
ATOM     16  C   UNL     1      -0.990  13.944  21.376  0.00  0.00    +0.000 C 
ATOM     17  N   UNL     1       0.173  14.160  20.626  0.00  0.00    +0.000 N 
ATOM     18  C   UNL     1       0.532  15.535  20.277  0.00  0.00    +0.000 C 
ATOM     19  C   UNL     1       1.355  15.562  18.990  0.00  0.00    +0.000 C 
ATOM     20  C   UNL     1       2.560  14.622  19.065  0.00  0.00    +0.000 C 
ATOM     21  C   UNL     1       2.149  13.224  19.517  0.00  0.00    +0.000 C 
ATOM     22  C   UNL     1       1.325  13.287  20.785  0.00  0.00    +0.000 C 
ATOM     23  O   UNL     1       3.526  15.165  19.982  0.00  0.00    +0.000 OA
ATOM     24  C   UNL     1       4.778  15.041  19.307  0.00  0.00    +0.000 C 
ATOM     25  C   UNL     1       4.408  15.174  17.856  0.00  0.00    +0.000 C 
ATOM     26  O   UNL     1       3.157  14.498  17.762  0.00  0.00    +0.000 OA
ENDBRANCH   1  16
TORSDOF 2
ENDMDL
MODEL 7
REMARK VINA RESULT:      -6.8      2.764      8.696
REMARK  Name = 
REMARK  2 active torsions:
REMARK  status: ('A' for Active; 'I' for Inactive)
REMARK    1  A    between atoms: C_2  and  C_3
REMARK    2  A    between atoms: C_3  and  N_4
REMARK                            x       y       z     vdW  Elec       q    Type
REMARK                         _______ _______ _______ _____ _____    ______ ____
ROOT
ATOM      1  C   UNL     1       1.694   8.510  21.110  0.00  0.00    +0.000 C 
ENDROOT
BRANCH   1   2
ATOM      2  N   UNL     1       0.854   9.692  20.848  0.00  0.00    +0.000 N 
ATOM      3  C   UNL     1       0.729  10.267  19.586  0.00  0.00    +0.000 A 
ATOM      4  S   UNL     1       1.590   9.908  18.193  0.00  0.00    +0.000 S 
ATOM      5  N   UNL     1      -0.182  11.276  19.447  0.00  0.00    +0.000 N 
ATOM      6  C   UNL     1      -0.870  11.852  20.506  0.00  0.00    +0.000 A 
ATOM      7  C   UNL     1      -1.751  12.908  20.268  0.00  0.00    +0.000 A 
ATOM      8  C   UNL     1      -2.375  13.538  21.344  0.00  0.00    +0.000 A 
ATOM      9  C   UNL     1      -2.114  13.117  22.650  0.00  0.00    +0.000 A 
ATOM     10  C   UNL     1      -1.244  12.050  22.880  0.00  0.00    +0.000 A 
ATOM     11  C   UNL     1      -0.629  11.411  21.799  0.00  0.00    +0.000 A 
ATOM     12  C   UNL     1       0.306  10.289  21.999  0.00  0.00    +0.000 A 
ATOM     13  O   UNL     1       0.606   9.975  23.149  0.00  0.00    +0.000 OA
ATOM     14  H   UNL     1      -0.292  11.659  18.515  0.00  0.00    +0.000 HD
ENDBRANCH   1   2
BRANCH   1  16
ATOM     15  O   UNL     1      -0.251   7.050  21.247  0.00  0.00    +0.000 OA
ATOM     16  C   UNL     1       0.936   7.166  20.946  0.00  0.00    +0.000 C 
ATOM     17  N   UNL     1       1.689   6.060  20.531  0.00  0.00    +0.000 N 
ATOM     18  C   UNL     1       1.129   4.722  20.723  0.00  0.00    +0.000 C 
ATOM     19  C   UNL     1       2.247   3.690  20.857  0.00  0.00    +0.000 C 
ATOM     20  C   UNL     1       3.238   3.770  19.694  0.00  0.00    +0.000 C 
ATOM     21  C   UNL     1       3.728   5.197  19.476  0.00  0.00    +0.000 C 
ATOM     22  C   UNL     1       2.563   6.158  19.372  0.00  0.00    +0.000 C 
ATOM     23  O   UNL     1       2.604   3.285  18.498  0.00  0.00    +0.000 OA
ATOM     24  C   UNL     1       3.564   2.413  17.903  0.00  0.00    +0.000 C 
ATOM     25  C   UNL     1       4.308   1.855  19.085  0.00  0.00    +0.000 C 
ATOM     26  O   UNL     1       4.389   2.957  19.985  0.00  0.00    +0.000 OA
ENDBRANCH   1  16
TORSDOF 2
ENDMDL
MODEL 8
REMARK VINA RESULT:      -6.7      3.050      4.721
REMARK  Name = 
REMARK  2 active torsions:
REMARK  status: ('A' for Active; 'I' for Inactive)
REMARK    1  A    between atoms: C_2  and  C_3
REMARK    2  A    between atoms: C_3  and  N_4
REMARK                            x       y       z     vdW  Elec       q    Type
REMARK                         _______ _______ _______ _____ _____    ______ ____
ROOT
ATOM      1  C   UNL     1       1.610   6.358  18.446  0.00  0.00    +0.000 C 
ENDROOT
BRANCH   1   2
ATOM      2  N   UNL     1       2.688   5.555  17.842  0.00  0.00    +0.000 N 
ATOM      3  C   UNL     1       2.693   4.163  17.860  0.00  0.00    +0.000 A 
ATOM      4  S   UNL     1       1.658   3.131  18.681  0.00  0.00    +0.000 S 
ATOM      5  N   UNL     1       3.677   3.533  17.151  0.00  0.00    +0.000 N 
ATOM      6  C   UNL     1       4.741   4.190  16.548  0.00  0.00    +0.000 A 
ATOM      7  C   UNL     1       5.721   3.455  15.879  0.00  0.00    +0.000 A 
ATOM      8  C   UNL     1       6.830   4.113  15.348  0.00  0.00    +0.000 A 
ATOM      9  C   UNL     1       6.960   5.496  15.492  0.00  0.00    +0.000 A 
ATOM     10  C   UNL     1       5.968   6.228  16.147  0.00  0.00    +0.000 A 
ATOM     11  C   UNL     1       4.850   5.568  16.668  0.00  0.00    +0.000 A 
ATOM     12  C   UNL     1       3.786   6.301  17.378  0.00  0.00    +0.000 A 
ATOM     13  O   UNL     1       3.940   7.503  17.582  0.00  0.00    +0.000 OA
ATOM     14  H   UNL     1       3.648   2.520  17.138  0.00  0.00    +0.000 HD
ENDBRANCH   1   2
BRANCH   1  16
ATOM     15  O   UNL     1       2.687   6.305  20.630  0.00  0.00    +0.000 OA
ATOM     16  C   UNL     1       1.973   6.926  19.844  0.00  0.00    +0.000 C 
ATOM     17  N   UNL     1       1.371   8.136  20.212  0.00  0.00    +0.000 N 
ATOM     18  C   UNL     1       1.372   8.514  21.626  0.00  0.00    +0.000 C 
ATOM     19  C   UNL     1       0.183   9.421  21.938  0.00  0.00    +0.000 C 
ATOM     20  C   UNL     1       0.118  10.621  20.990  0.00  0.00    +0.000 C 
ATOM     21  C   UNL     1       0.207  10.184  19.531  0.00  0.00    +0.000 C 
ATOM     22  C   UNL     1       1.399   9.277  19.311  0.00  0.00    +0.000 C 
ATOM     23  O   UNL     1       1.196  11.522  21.294  0.00  0.00    +0.000 OA
ATOM     24  C   UNL     1       0.595  12.817  21.313  0.00  0.00    +0.000 C 
ATOM     25  C   UNL     1      -0.807  12.544  21.782  0.00  0.00    +0.000 C 
ATOM     26  O   UNL     1      -1.136  11.303  21.161  0.00  0.00    +0.000 OA
ENDBRANCH   1  16
TORSDOF 2
ENDMDL
MODEL 9
REMARK VINA RESULT:      -6.7      2.806      4.219
REMARK  Name = 
REMARK  2 active torsions:
REMARK  status: ('A' for Active; 'I' for Inactive)
REMARK    1  A    between atoms: C_2  and  C_3
REMARK    2  A    between atoms: C_3  and  N_4
REMARK                            x       y       z     vdW  Elec       q    Type
REMARK                         _______ _______ _______ _____ _____    ______ ____
ROOT
ATOM      1  C   UNL     1       2.777   7.141  19.148  0.00  0.00    +0.000 C 
ENDROOT
BRANCH   1   2
ATOM      2  N   UNL     1       3.374   6.137  18.251  0.00  0.00    +0.000 N 
ATOM      3  C   UNL     1       2.850   4.857  18.093  0.00  0.00    +0.000 A 
ATOM      4  S   UNL     1       1.618   4.124  18.963  0.00  0.00    +0.000 S 
ATOM      5  N   UNL     1       3.416   4.065  17.133  0.00  0.00    +0.000 N 
ATOM      6  C   UNL     1       4.559   4.403  16.423  0.00  0.00    +0.000 A 
ATOM      7  C   UNL     1       5.086   3.508  15.490  0.00  0.00    +0.000 A 
ATOM      8  C   UNL     1       6.281   3.817  14.841  0.00  0.00    +0.000 A 
ATOM      9  C   UNL     1       6.947   5.011  15.129  0.00  0.00    +0.000 A 
ATOM     10  C   UNL     1       6.407   5.909  16.051  0.00  0.00    +0.000 A 
ATOM     11  C   UNL     1       5.201   5.603  16.691  0.00  0.00    +0.000 A 
ATOM     12  C   UNL     1       4.602   6.517  17.681  0.00  0.00    +0.000 A 
ATOM     13  O   UNL     1       5.230   7.525  18.000  0.00  0.00    +0.000 OA
ATOM     14  H   UNL     1       3.000   3.150  16.999  0.00  0.00    +0.000 HD
ENDBRANCH   1   2
BRANCH   1  16
ATOM     15  O   UNL     1       2.088   8.380  17.167  0.00  0.00    +0.000 OA
ATOM     16  C   UNL     1       2.073   8.302  18.395  0.00  0.00    +0.000 C 
ATOM     17  N   UNL     1       1.504   9.313  19.180  0.00  0.00    +0.000 N 
ATOM     18  C   UNL     1       1.174  10.588  18.543  0.00  0.00    +0.000 C 
ATOM     19  C   UNL     1       1.211  11.722  19.566  0.00  0.00    +0.000 C 
ATOM     20  C   UNL     1       0.343  11.413  20.788  0.00  0.00    +0.000 C 
ATOM     21  C   UNL     1       0.662  10.038  21.366  0.00  0.00    +0.000 C 
ATOM     22  C   UNL     1       0.622   8.977  20.286  0.00  0.00    +0.000 C 
ATOM     23  O   UNL     1      -1.043  11.473  20.411  0.00  0.00    +0.000 OA
ATOM     24  C   UNL     1      -1.670  12.232  21.444  0.00  0.00    +0.000 C 
ATOM     25  C   UNL     1      -0.587  13.173  21.894  0.00  0.00    +0.000 C 
ATOM     26  O   UNL     1       0.599  12.385  21.818  0.00  0.00    +0.000 OA
ENDBRANCH   1  16
TORSDOF 2
ENDMDL
