MODEL 1
REMARK VINA RESULT:      -7.9      0.000      0.000
REMARK  Name = 
REMARK  7 active torsions:
REMARK  status: ('A' for Active; 'I' for Inactive)
REMARK    1  A    between atoms: C_1  and  C_2
REMARK    2  A    between atoms: C_2  and  O_3
REMARK    3  A    between atoms: O_3  and  C_4
REMARK    4  A    between atoms: C_4  and  C_6
REMARK    5  A    between atoms: N_9  and  S_10
REMARK    6  A    between atoms: S_10  and  C_13
REMARK    7  A    between atoms: C_20  and  C_21
REMARK                            x       y       z     vdW  Elec       q    Type
REMARK                         _______ _______ _______ _____ _____    ______ ____
ROOT
ATOM      1  C   UNL     1       5.720   5.434  16.545  0.00  0.00    +0.000 C 
ATOM      2  C   UNL     1       5.245   6.476  15.854  0.00  0.00    +0.000 C 
ATOM      3  C   UNL     1       4.239   7.236  16.643  0.00  0.00    +0.000 C 
ATOM      4  N   UNL     1       4.215   6.563  17.966  0.00  0.00    +0.000 NA
ATOM      5  C   UNL     1       5.119   5.339  17.908  0.00  0.00    +0.000 C 
ENDROOT
BRANCH   5   6
ATOM      6  C   UNL     1       4.469   3.987  18.164  0.00  0.00    +0.000 A 
ATOM      7  C   UNL     1       3.566   3.418  17.248  0.00  0.00    +0.000 A 
ATOM      8  C   UNL     1       2.823   2.291  17.595  0.00  0.00    +0.000 A 
ATOM      9  C   UNL     1       3.021   1.695  18.832  0.00  0.00    +0.000 A 
ATOM     10  F   UNL     1       2.277   0.636  19.180  0.00  0.00    +0.000 F 
ATOM     11  C   UNL     1       3.968   2.188  19.721  0.00  0.00    +0.000 A 
ATOM     12  C   UNL     1       4.693   3.332  19.389  0.00  0.00    +0.000 A 
ENDBRANCH   5   6
BRANCH   4  13
ATOM     13  S   UNL     1       2.711   6.386  18.721  0.00  0.00    +0.000 S 
ATOM     14  O   UNL     1       1.796   5.796  17.768  0.00  0.00    +0.000 OA
ATOM     15  O   UNL     1       2.923   5.801  20.028  0.00  0.00    +0.000 OA
BRANCH  13  16
ATOM     16  C   UNL     1       2.080   8.028  19.037  0.00  0.00    +0.000 A 
ATOM     17  C   UNL     1       1.686   8.832  17.957  0.00  0.00    +0.000 A 
ATOM     18  C   UNL     1       0.875   9.946  18.187  0.00  0.00    +0.000 A 
ATOM     19  C   UNL     1       0.450  10.236  19.480  0.00  0.00    +0.000 A 
ATOM     20  F   UNL     1      -0.387  11.261  19.685  0.00  0.00    +0.000 F 
ATOM     21  C   UNL     1       0.844   9.452  20.559  0.00  0.00    +0.000 A 
ATOM     22  C   UNL     1       1.667   8.346  20.341  0.00  0.00    +0.000 A 
ENDBRANCH  13  16
ENDBRANCH   4  13
BRANCH   1  23
ATOM     23  C   UNL     1       6.754   4.484  16.121  0.00  0.00    +0.000 C 
ATOM     24  O   UNL     1       7.879   4.459  16.596  0.00  0.00    +0.000 OA
BRANCH  23  25
ATOM     25  O   UNL     1       6.283   3.708  15.115  0.00  0.00    +0.000 OA
BRANCH  25  27
ATOM     26  C   UNL     1       5.633   3.604  12.824  0.00  0.00    +0.000 C 
ATOM     27  C   UNL     1       6.691   4.094  13.794  0.00  0.00    +0.000 C 
ENDBRANCH  25  27
ENDBRANCH  23  25
ENDBRANCH   1  23
TORSDOF 6
ENDMDL
MODEL 2
REMARK VINA RESULT:      -7.5      3.240      5.152
REMARK  Name = 
REMARK  7 active torsions:
REMARK  status: ('A' for Active; 'I' for Inactive)
REMARK    1  A    between atoms: C_1  and  C_2
REMARK    2  A    between atoms: C_2  and  O_3
REMARK    3  A    between atoms: O_3  and  C_4
REMARK    4  A    between atoms: C_4  and  C_6
REMARK    5  A    between atoms: N_9  and  S_10
REMARK    6  A    between atoms: S_10  and  C_13
REMARK    7  A    between atoms: C_20  and  C_21
REMARK                            x       y       z     vdW  Elec       q    Type
REMARK                         _______ _______ _______ _____ _____    ______ ____
ROOT
ATOM      1  C   UNL     1       5.938   4.383  15.445  0.00  0.00    +0.000 C 
ATOM      2  C   UNL     1       5.370   3.224  15.798  0.00  0.00    +0.000 C 
ATOM      3  C   UNL     1       4.364   3.420  16.875  0.00  0.00    +0.000 C 
ATOM      4  N   UNL     1       4.324   4.888  17.088  0.00  0.00    +0.000 NA
ATOM      5  C   UNL     1       5.394   5.537  16.220  0.00  0.00    +0.000 C 
ENDROOT
BRANCH   5   6
ATOM      6  C   UNL     1       6.482   6.323  16.935  0.00  0.00    +0.000 A 
ATOM      7  C   UNL     1       7.422   5.689  17.768  0.00  0.00    +0.000 A 
ATOM      8  C   UNL     1       8.271   6.443  18.577  0.00  0.00    +0.000 A 
ATOM      9  C   UNL     1       8.225   7.828  18.515  0.00  0.00    +0.000 A 
ATOM     10  F   UNL     1       9.013   8.551  19.322  0.00  0.00    +0.000 F 
ATOM     11  C   UNL     1       7.365   8.477  17.638  0.00  0.00    +0.000 A 
ATOM     12  C   UNL     1       6.494   7.727  16.847  0.00  0.00    +0.000 A 
ENDBRANCH   5   6
BRANCH   4  13
ATOM     13  S   UNL     1       4.174   5.438  18.681  0.00  0.00    +0.000 S 
ATOM     14  O   UNL     1       5.455   5.278  19.334  0.00  0.00    +0.000 OA
ATOM     15  O   UNL     1       3.490   6.714  18.660  0.00  0.00    +0.000 OA
BRANCH  13  16
ATOM     16  C   UNL     1       3.063   4.322  19.526  0.00  0.00    +0.000 A 
ATOM     17  C   UNL     1       3.593   3.241  20.247  0.00  0.00    +0.000 A 
ATOM     18  C   UNL     1       2.796   2.585  21.187  0.00  0.00    +0.000 A 
ATOM     19  C   UNL     1       1.494   3.019  21.414  0.00  0.00    +0.000 A 
ATOM     20  F   UNL     1       0.760   2.432  22.367  0.00  0.00    +0.000 F 
ATOM     21  C   UNL     1       0.955   4.082  20.696  0.00  0.00    +0.000 A 
ATOM     22  C   UNL     1       1.739   4.734  19.744  0.00  0.00    +0.000 A 
ENDBRANCH  13  16
ENDBRANCH   4  13
BRANCH   1  23
ATOM     23  C   UNL     1       6.936   4.599  14.393  0.00  0.00    +0.000 C 
ATOM     24  O   UNL     1       7.648   5.589  14.334  0.00  0.00    +0.000 OA
BRANCH  23  25
ATOM     25  O   UNL     1       6.896   3.577  13.502  0.00  0.00    +0.000 OA
BRANCH  25  27
ATOM     26  C   UNL     1       5.158   3.140  11.931  0.00  0.00    +0.000 C 
ATOM     27  C   UNL     1       6.432   3.922  12.188  0.00  0.00    +0.000 C 
ENDBRANCH  25  27
ENDBRANCH  23  25
ENDBRANCH   1  23
TORSDOF 6
ENDMDL
MODEL 3
REMARK VINA RESULT:      -7.4      3.348      5.220
REMARK  Name = 
REMARK  7 active torsions:
REMARK  status: ('A' for Active; 'I' for Inactive)
REMARK    1  A    between atoms: C_1  and  C_2
REMARK    2  A    between atoms: C_2  and  O_3
REMARK    3  A    between atoms: O_3  and  C_4
REMARK    4  A    between atoms: C_4  and  C_6
REMARK    5  A    between atoms: N_9  and  S_10
REMARK    6  A    between atoms: S_10  and  C_13
REMARK    7  A    between atoms: C_20  and  C_21
REMARK                            x       y       z     vdW  Elec       q    Type
REMARK                         _______ _______ _______ _____ _____    ______ ____
ROOT
ATOM      1  C   UNL     1       5.872   4.609  15.709  0.00  0.00    +0.000 C 
ATOM      2  C   UNL     1       5.450   3.382  16.032  0.00  0.00    +0.000 C 
ATOM      3  C   UNL     1       4.429   3.426  17.113  0.00  0.00    +0.000 C 
ATOM      4  N   UNL     1       4.212   4.873  17.363  0.00  0.00    +0.000 NA
ATOM      5  C   UNL     1       5.193   5.669  16.511  0.00  0.00    +0.000 C 
ENDROOT
BRANCH   5   6
ATOM      6  C   UNL     1       6.179   6.563  17.247  0.00  0.00    +0.000 A 
ATOM      7  C   UNL     1       6.173   7.960  17.081  0.00  0.00    +0.000 A 
ATOM      8  C   UNL     1       7.212   8.737  17.592  0.00  0.00    +0.000 A 
ATOM      9  C   UNL     1       8.228   8.130  18.318  0.00  0.00    +0.000 A 
ATOM     10  F   UNL     1       9.246   8.873  18.773  0.00  0.00    +0.000 F 
ATOM     11  C   UNL     1       8.211   6.764  18.568  0.00  0.00    +0.000 A 
ATOM     12  C   UNL     1       7.188   5.979  18.035  0.00  0.00    +0.000 A 
ENDBRANCH   5   6
BRANCH   4  13
ATOM     13  S   UNL     1       4.000   5.361  18.968  0.00  0.00    +0.000 S 
ATOM     14  O   UNL     1       5.279   5.267  19.640  0.00  0.00    +0.000 OA
ATOM     15  O   UNL     1       3.232   6.588  18.975  0.00  0.00    +0.000 OA
BRANCH  13  16
ATOM     16  C   UNL     1       2.954   4.146  19.759  0.00  0.00    +0.000 A 
ATOM     17  C   UNL     1       3.533   3.189  20.606  0.00  0.00    +0.000 A 
ATOM     18  C   UNL     1       2.724   2.478  21.494  0.00  0.00    +0.000 A 
ATOM     19  C   UNL     1       1.358   2.737  21.545  0.00  0.00    +0.000 A 
ATOM     20  F   UNL     1       0.599   2.104  22.449  0.00  0.00    +0.000 F 
ATOM     21  C   UNL     1       0.772   3.675  20.702  0.00  0.00    +0.000 A 
ATOM     22  C   UNL     1       1.571   4.380  19.800  0.00  0.00    +0.000 A 
ENDBRANCH  13  16
ENDBRANCH   4  13
BRANCH   1  23
ATOM     23  C   UNL     1       6.834   4.971  14.663  0.00  0.00    +0.000 C 
ATOM     24  O   UNL     1       7.963   5.374  14.897  0.00  0.00    +0.000 OA
BRANCH  23  25
ATOM     25  O   UNL     1       6.258   4.840  13.442  0.00  0.00    +0.000 OA
BRANCH  25  27
ATOM     26  C   UNL     1       5.687   3.014  12.020  0.00  0.00    +0.000 C 
ATOM     27  C   UNL     1       6.829   3.830  12.596  0.00  0.00    +0.000 C 
ENDBRANCH  25  27
ENDBRANCH  23  25
ENDBRANCH   1  23
TORSDOF 6
ENDMDL
MODEL 4
REMARK VINA RESULT:      -7.3      0.768      1.239
REMARK  Name = 
REMARK  7 active torsions:
REMARK  status: ('A' for Active; 'I' for Inactive)
REMARK    1  A    between atoms: C_1  and  C_2
REMARK    2  A    between atoms: C_2  and  O_3
REMARK    3  A    between atoms: O_3  and  C_4
REMARK    4  A    between atoms: C_4  and  C_6
REMARK    5  A    between atoms: N_9  and  S_10
REMARK    6  A    between atoms: S_10  and  C_13
REMARK    7  A    between atoms: C_20  and  C_21
REMARK                            x       y       z     vdW  Elec       q    Type
REMARK                         _______ _______ _______ _____ _____    ______ ____
ROOT
ATOM      1  C   UNL     1       5.940   5.859  17.284  0.00  0.00    +0.000 C 
ATOM      2  C   UNL     1       5.528   6.863  16.502  0.00  0.00    +0.000 C 
ATOM      3  C   UNL     1       4.340   7.548  17.079  0.00  0.00    +0.000 C 
ATOM      4  N   UNL     1       4.118   6.875  18.384  0.00  0.00    +0.000 NA
ATOM      5  C   UNL     1       5.103   5.720  18.512  0.00  0.00    +0.000 C 
ENDROOT
BRANCH   5   6
ATOM      6  C   UNL     1       4.516   4.324  18.661  0.00  0.00    +0.000 A 
ATOM      7  C   UNL     1       4.634   3.600  19.860  0.00  0.00    +0.000 A 
ATOM      8  C   UNL     1       4.281   2.251  19.909  0.00  0.00    +0.000 A 
ATOM      9  C   UNL     1       3.756   1.640  18.779  0.00  0.00    +0.000 A 
ATOM     10  F   UNL     1       3.456   0.335  18.816  0.00  0.00    +0.000 F 
ATOM     11  C   UNL     1       3.551   2.357  17.607  0.00  0.00    +0.000 A 
ATOM     12  C   UNL     1       3.928   3.698  17.546  0.00  0.00    +0.000 A 
ENDBRANCH   5   6
BRANCH   4  13
ATOM     13  S   UNL     1       2.517   6.588  18.847  0.00  0.00    +0.000 S 
ATOM     14  O   UNL     1       1.774   6.184  17.673  0.00  0.00    +0.000 OA
ATOM     15  O   UNL     1       2.527   5.782  20.050  0.00  0.00    +0.000 OA
BRANCH  13  16
ATOM     16  C   UNL     1       1.817   8.158  19.339  0.00  0.00    +0.000 A 
ATOM     17  C   UNL     1       1.329   9.030  18.355  0.00  0.00    +0.000 A 
ATOM     18  C   UNL     1       0.474  10.072  18.722  0.00  0.00    +0.000 A 
ATOM     19  C   UNL     1       0.099  10.223  20.054  0.00  0.00    +0.000 A 
ATOM     20  F   UNL     1      -0.778  11.177  20.388  0.00  0.00    +0.000 F 
ATOM     21  C   UNL     1       0.587   9.371  21.038  0.00  0.00    +0.000 A 
ATOM     22  C   UNL     1       1.454   8.336  20.683  0.00  0.00    +0.000 A 
ENDBRANCH  13  16
ENDBRANCH   4  13
BRANCH   1  23
ATOM     23  C   UNL     1       7.101   4.988  17.073  0.00  0.00    +0.000 C 
ATOM     24  O   UNL     1       7.799   4.567  17.982  0.00  0.00    +0.000 OA
BRANCH  23  25
ATOM     25  O   UNL     1       7.289   4.784  15.746  0.00  0.00    +0.000 OA
BRANCH  25  27
ATOM     26  C   UNL     1       6.273   4.169  13.680  0.00  0.00    +0.000 C 
ATOM     27  C   UNL     1       6.430   3.804  15.144  0.00  0.00    +0.000 C 
ENDBRANCH  25  27
ENDBRANCH  23  25
ENDBRANCH   1  23
TORSDOF 6
ENDMDL
MODEL 5
REMARK VINA RESULT:      -7.2      2.841      6.544
REMARK  Name = 
REMARK  7 active torsions:
REMARK  status: ('A' for Active; 'I' for Inactive)
REMARK    1  A    between atoms: C_1  and  C_2
REMARK    2  A    between atoms: C_2  and  O_3
REMARK    3  A    between atoms: O_3  and  C_4
REMARK    4  A    between atoms: C_4  and  C_6
REMARK    5  A    between atoms: N_9  and  S_10
REMARK    6  A    between atoms: S_10  and  C_13
REMARK    7  A    between atoms: C_20  and  C_21
REMARK                            x       y       z     vdW  Elec       q    Type
REMARK                         _______ _______ _______ _____ _____    ______ ____
ROOT
ATOM      1  C   UNL     1       2.952   7.395  18.265  0.00  0.00    +0.000 C 
ATOM      2  C   UNL     1       4.149   7.906  17.957  0.00  0.00    +0.000 C 
ATOM      3  C   UNL     1       4.955   6.950  17.152  0.00  0.00    +0.000 C 
ATOM      4  N   UNL     1       4.052   5.794  16.928  0.00  0.00    +0.000 NA
ATOM      5  C   UNL     1       2.762   6.025  17.704  0.00  0.00    +0.000 C 
ENDROOT
BRANCH   5   6
ATOM      6  C   UNL     1       2.407   5.003  18.774  0.00  0.00    +0.000 A 
ATOM      7  C   UNL     1       1.355   4.086  18.597  0.00  0.00    +0.000 A 
ATOM      8  C   UNL     1       0.909   3.307  19.664  0.00  0.00    +0.000 A 
ATOM      9  C   UNL     1       1.548   3.399  20.892  0.00  0.00    +0.000 A 
ATOM     10  F   UNL     1       1.092   2.679  21.927  0.00  0.00    +0.000 F 
ATOM     11  C   UNL     1       2.643   4.235  21.069  0.00  0.00    +0.000 A 
ATOM     12  C   UNL     1       3.074   5.036  20.012  0.00  0.00    +0.000 A 
ENDBRANCH   5   6
BRANCH   4  13
ATOM     13  S   UNL     1       4.736   4.249  16.997  0.00  0.00    +0.000 S 
ATOM     14  O   UNL     1       5.657   4.213  18.113  0.00  0.00    +0.000 OA
ATOM     15  O   UNL     1       3.675   3.273  16.861  0.00  0.00    +0.000 OA
BRANCH  13  16
ATOM     16  C   UNL     1       5.748   4.051  15.537  0.00  0.00    +0.000 A 
ATOM     17  C   UNL     1       5.183   3.491  14.381  0.00  0.00    +0.000 A 
ATOM     18  C   UNL     1       5.827   3.653  13.153  0.00  0.00    +0.000 A 
ATOM     19  C   UNL     1       7.009   4.383  13.082  0.00  0.00    +0.000 A 
ATOM     20  F   UNL     1       7.583   4.596  11.891  0.00  0.00    +0.000 F 
ATOM     21  C   UNL     1       7.584   4.932  14.223  0.00  0.00    +0.000 A 
ATOM     22  C   UNL     1       6.956   4.762  15.458  0.00  0.00    +0.000 A 
ENDBRANCH  13  16
ENDBRANCH   4  13
BRANCH   1  23
ATOM     23  C   UNL     1       1.868   8.053  19.003  0.00  0.00    +0.000 C 
ATOM     24  O   UNL     1       1.715   7.945  20.210  0.00  0.00    +0.000 OA
BRANCH  23  25
ATOM     25  O   UNL     1       1.067   8.728  18.143  0.00  0.00    +0.000 OA
BRANCH  25  27
ATOM     26  C   UNL     1      -0.776  10.217  18.396  0.00  0.00    +0.000 C 
ATOM     27  C   UNL     1       0.727  10.065  18.536  0.00  0.00    +0.000 C 
ENDBRANCH  25  27
ENDBRANCH  23  25
ENDBRANCH   1  23
TORSDOF 6
ENDMDL
MODEL 6
REMARK VINA RESULT:      -7.2      0.564      1.088
REMARK  Name = 
REMARK  7 active torsions:
REMARK  status: ('A' for Active; 'I' for Inactive)
REMARK    1  A    between atoms: C_1  and  C_2
REMARK    2  A    between atoms: C_2  and  O_3
REMARK    3  A    between atoms: O_3  and  C_4
REMARK    4  A    between atoms: C_4  and  C_6
REMARK    5  A    between atoms: N_9  and  S_10
REMARK    6  A    between atoms: S_10  and  C_13
REMARK    7  A    between atoms: C_20  and  C_21
REMARK                            x       y       z     vdW  Elec       q    Type
REMARK                         _______ _______ _______ _____ _____    ______ ____
ROOT
ATOM      1  C   UNL     1       5.809   5.772  16.634  0.00  0.00    +0.000 C 
ATOM      2  C   UNL     1       5.217   6.764  15.962  0.00  0.00    +0.000 C 
ATOM      3  C   UNL     1       4.118   7.376  16.755  0.00  0.00    +0.000 C 
ATOM      4  N   UNL     1       4.163   6.673  18.062  0.00  0.00    +0.000 NA
ATOM      5  C   UNL     1       5.211   5.570  17.987  0.00  0.00    +0.000 C 
ENDROOT
BRANCH   5   6
ATOM      6  C   UNL     1       4.729   4.143  18.203  0.00  0.00    +0.000 A 
ATOM      7  C   UNL     1       3.992   3.458  17.220  0.00  0.00    +0.000 A 
ATOM      8  C   UNL     1       3.380   2.240  17.516  0.00  0.00    +0.000 A 
ATOM      9  C   UNL     1       3.550   1.677  18.773  0.00  0.00    +0.000 A 
ATOM     10  F   UNL     1       2.928   0.528  19.069  0.00  0.00    +0.000 F 
ATOM     11  C   UNL     1       4.342   2.294  19.733  0.00  0.00    +0.000 A 
ATOM     12  C   UNL     1       4.933   3.525  19.450  0.00  0.00    +0.000 A 
ENDBRANCH   5   6
BRANCH   4  13
ATOM     13  S   UNL     1       2.685   6.296  18.792  0.00  0.00    +0.000 S 
ATOM     14  O   UNL     1       1.890   5.549  17.841  0.00  0.00    +0.000 OA
ATOM     15  O   UNL     1       2.950   5.785  20.121  0.00  0.00    +0.000 OA
BRANCH  13  16
ATOM     16  C   UNL     1       1.810   7.833  19.045  0.00  0.00    +0.000 A 
ATOM     17  C   UNL     1       1.460   8.218  20.348  0.00  0.00    +0.000 A 
ATOM     18  C   UNL     1       1.108   9.545  20.603  0.00  0.00    +0.000 A 
ATOM     19  C   UNL     1       1.127  10.476  19.569  0.00  0.00    +0.000 A 
ATOM     20  F   UNL     1       0.859  11.761  19.833  0.00  0.00    +0.000 F 
ATOM     21  C   UNL     1       1.460  10.103  18.271  0.00  0.00    +0.000 A 
ATOM     22  C   UNL     1       1.798   8.775  18.004  0.00  0.00    +0.000 A 
ENDBRANCH  13  16
ENDBRANCH   4  13
BRANCH   1  23
ATOM     23  C   UNL     1       6.957   4.966  16.202  0.00  0.00    +0.000 C 
ATOM     24  O   UNL     1       7.792   4.519  16.972  0.00  0.00    +0.000 OA
BRANCH  23  25
ATOM     25  O   UNL     1       6.959   4.855  14.851  0.00  0.00    +0.000 OA
BRANCH  25  27
ATOM     26  C   UNL     1       6.396   3.726  12.829  0.00  0.00    +0.000 C 
ATOM     27  C   UNL     1       6.101   3.838  14.313  0.00  0.00    +0.000 C 
ENDBRANCH  25  27
ENDBRANCH  23  25
ENDBRANCH   1  23
TORSDOF 6
ENDMDL
MODEL 7
REMARK VINA RESULT:      -7.1      0.923      1.747
REMARK  Name = 
REMARK  7 active torsions:
REMARK  status: ('A' for Active; 'I' for Inactive)
REMARK    1  A    between atoms: C_1  and  C_2
REMARK    2  A    between atoms: C_2  and  O_3
REMARK    3  A    between atoms: O_3  and  C_4
REMARK    4  A    between atoms: C_4  and  C_6
REMARK    5  A    between atoms: N_9  and  S_10
REMARK    6  A    between atoms: S_10  and  C_13
REMARK    7  A    between atoms: C_20  and  C_21
REMARK                            x       y       z     vdW  Elec       q    Type
REMARK                         _______ _______ _______ _____ _____    ______ ____
ROOT
ATOM      1  C   UNL     1       5.483   5.591  16.649  0.00  0.00    +0.000 C 
ATOM      2  C   UNL     1       5.045   6.651  15.962  0.00  0.00    +0.000 C 
ATOM      3  C   UNL     1       4.043   7.426  16.742  0.00  0.00    +0.000 C 
ATOM      4  N   UNL     1       3.979   6.738  18.056  0.00  0.00    +0.000 NA
ATOM      5  C   UNL     1       4.855   5.494  17.999  0.00  0.00    +0.000 C 
ENDROOT
BRANCH   5   6
ATOM      6  C   UNL     1       4.169   4.155  18.227  0.00  0.00    +0.000 A 
ATOM      7  C   UNL     1       3.233   3.642  17.311  0.00  0.00    +0.000 A 
ATOM      8  C   UNL     1       2.463   2.526  17.639  0.00  0.00    +0.000 A 
ATOM      9  C   UNL     1       2.665   1.888  18.854  0.00  0.00    +0.000 A 
ATOM     10  F   UNL     1       1.896   0.841  19.184  0.00  0.00    +0.000 F 
ATOM     11  C   UNL     1       3.643   2.325  19.739  0.00  0.00    +0.000 A 
ATOM     12  C   UNL     1       4.396   3.457  19.427  0.00  0.00    +0.000 A 
ENDBRANCH   5   6
BRANCH   4  13
ATOM     13  S   UNL     1       2.459   6.588  18.781  0.00  0.00    +0.000 S 
ATOM     14  O   UNL     1       1.533   6.092  17.786  0.00  0.00    +0.000 OA
ATOM     15  O   UNL     1       2.625   5.924  20.057  0.00  0.00    +0.000 OA
BRANCH  13  16
ATOM     16  C   UNL     1       1.895   8.237  19.179  0.00  0.00    +0.000 A 
ATOM     17  C   UNL     1       1.542   9.112  18.140  0.00  0.00    +0.000 A 
ATOM     18  C   UNL     1       0.778  10.245  18.425  0.00  0.00    +0.000 A 
ATOM     19  C   UNL     1       0.357  10.486  19.729  0.00  0.00    +0.000 A 
ATOM     20  F   UNL     1      -0.436  11.535  19.983  0.00  0.00    +0.000 F 
ATOM     21  C   UNL     1       0.711   9.632  20.768  0.00  0.00    +0.000 A 
ATOM     22  C   UNL     1       1.487   8.505  20.496  0.00  0.00    +0.000 A 
ENDBRANCH  13  16
ENDBRANCH   4  13
BRANCH   1  23
ATOM     23  C   UNL     1       6.503   4.622  16.232  0.00  0.00    +0.000 C 
ATOM     24  O   UNL     1       6.259   3.643  15.543  0.00  0.00    +0.000 OA
BRANCH  23  25
ATOM     25  O   UNL     1       7.703   4.956  16.767  0.00  0.00    +0.000 OA
BRANCH  25  27
ATOM     26  C   UNL     1       8.065   5.776  18.976  0.00  0.00    +0.000 C 
ATOM     27  C   UNL     1       7.915   4.531  18.121  0.00  0.00    +0.000 C 
ENDBRANCH  25  27
ENDBRANCH  23  25
ENDBRANCH   1  23
TORSDOF 6
ENDMDL
MODEL 8
REMARK VINA RESULT:      -7.1      0.796      1.568
REMARK  Name = 
REMARK  7 active torsions:
REMARK  status: ('A' for Active; 'I' for Inactive)
REMARK    1  A    between atoms: C_1  and  C_2
REMARK    2  A    between atoms: C_2  and  O_3
REMARK    3  A    between atoms: O_3  and  C_4
REMARK    4  A    between atoms: C_4  and  C_6
REMARK    5  A    between atoms: N_9  and  S_10
REMARK    6  A    between atoms: S_10  and  C_13
REMARK    7  A    between atoms: C_20  and  C_21
REMARK                            x       y       z     vdW  Elec       q    Type
REMARK                         _______ _______ _______ _____ _____    ______ ____
ROOT
ATOM      1  C   UNL     1       5.965   5.747  17.317  0.00  0.00    +0.000 C 
ATOM      2  C   UNL     1       5.546   6.748  16.535  0.00  0.00    +0.000 C 
ATOM      3  C   UNL     1       4.348   7.418  17.107  0.00  0.00    +0.000 C 
ATOM      4  N   UNL     1       4.126   6.741  18.409  0.00  0.00    +0.000 NA
ATOM      5  C   UNL     1       5.123   5.597  18.541  0.00  0.00    +0.000 C 
ENDROOT
BRANCH   5   6
ATOM      6  C   UNL     1       4.551   4.194  18.684  0.00  0.00    +0.000 A 
ATOM      7  C   UNL     1       4.705   3.454  19.870  0.00  0.00    +0.000 A 
ATOM      8  C   UNL     1       4.364   2.102  19.908  0.00  0.00    +0.000 A 
ATOM      9  C   UNL     1       3.816   1.502  18.783  0.00  0.00    +0.000 A 
ATOM     10  F   UNL     1       3.527   0.195  18.809  0.00  0.00    +0.000 F 
ATOM     11  C   UNL     1       3.575   2.234  17.627  0.00  0.00    +0.000 A 
ATOM     12  C   UNL     1       3.940   3.579  17.576  0.00  0.00    +0.000 A 
ENDBRANCH   5   6
BRANCH   4  13
ATOM     13  S   UNL     1       2.526   6.435  18.863  0.00  0.00    +0.000 S 
ATOM     14  O   UNL     1       1.858   5.789  17.754  0.00  0.00    +0.000 OA
ATOM     15  O   UNL     1       2.531   5.850  20.187  0.00  0.00    +0.000 OA
BRANCH  13  16
ATOM     16  C   UNL     1       1.716   8.018  19.051  0.00  0.00    +0.000 A 
ATOM     17  C   UNL     1       1.327   8.442  20.331  0.00  0.00    +0.000 A 
ATOM     18  C   UNL     1       1.030   9.789  20.548  0.00  0.00    +0.000 A 
ATOM     19  C   UNL     1       1.140  10.699  19.501  0.00  0.00    +0.000 A 
ATOM     20  F   UNL     1       0.924  12.000  19.733  0.00  0.00    +0.000 F 
ATOM     21  C   UNL     1       1.513  10.287  18.227  0.00  0.00    +0.000 A 
ATOM     22  C   UNL     1       1.797   8.940  17.996  0.00  0.00    +0.000 A 
ENDBRANCH  13  16
ENDBRANCH   4  13
BRANCH   1  23
ATOM     23  C   UNL     1       7.137   4.889  17.112  0.00  0.00    +0.000 C 
ATOM     24  O   UNL     1       7.840   4.483  18.024  0.00  0.00    +0.000 OA
BRANCH  23  25
ATOM     25  O   UNL     1       7.329   4.680  15.787  0.00  0.00    +0.000 OA
BRANCH  25  27
ATOM     26  C   UNL     1       6.295   4.068  13.728  0.00  0.00    +0.000 C 
ATOM     27  C   UNL     1       6.474   3.695  15.187  0.00  0.00    +0.000 C 
ENDBRANCH  25  27
ENDBRANCH  23  25
ENDBRANCH   1  23
TORSDOF 6
ENDMDL
MODEL 9
REMARK VINA RESULT:      -7.0      2.853      6.553
REMARK  Name = 
REMARK  7 active torsions:
REMARK  status: ('A' for Active; 'I' for Inactive)
REMARK    1  A    between atoms: C_1  and  C_2
REMARK    2  A    between atoms: C_2  and  O_3
REMARK    3  A    between atoms: O_3  and  C_4
REMARK    4  A    between atoms: C_4  and  C_6
REMARK    5  A    between atoms: N_9  and  S_10
REMARK    6  A    between atoms: S_10  and  C_13
REMARK    7  A    between atoms: C_20  and  C_21
REMARK                            x       y       z     vdW  Elec       q    Type
REMARK                         _______ _______ _______ _____ _____    ______ ____
ROOT
ATOM      1  C   UNL     1       2.558   7.427  18.669  0.00  0.00    +0.000 C 
ATOM      2  C   UNL     1       3.730   7.903  18.233  0.00  0.00    +0.000 C 
ATOM      3  C   UNL     1       4.437   6.906  17.385  0.00  0.00    +0.000 C 
ATOM      4  N   UNL     1       3.494   5.763  17.286  0.00  0.00    +0.000 NA
ATOM      5  C   UNL     1       2.290   6.045  18.173  0.00  0.00    +0.000 C 
ENDROOT
BRANCH   5   6
ATOM      6  C   UNL     1       2.019   5.064  19.304  0.00  0.00    +0.000 A 
ATOM      7  C   UNL     1       2.760   5.095  20.499  0.00  0.00    +0.000 A 
ATOM      8  C   UNL     1       2.645   4.062  21.429  0.00  0.00    +0.000 A 
ATOM      9  C   UNL     1       1.750   3.028  21.196  0.00  0.00    +0.000 A 
ATOM     10  F   UNL     1       1.670   2.017  22.071  0.00  0.00    +0.000 F 
ATOM     11  C   UNL     1       0.945   3.019  20.064  0.00  0.00    +0.000 A 
ATOM     12  C   UNL     1       1.078   4.036  19.118  0.00  0.00    +0.000 A 
ENDBRANCH   5   6
BRANCH   4  13
ATOM     13  S   UNL     1       4.153   4.206  17.338  0.00  0.00    +0.000 S 
ATOM     14  O   UNL     1       4.889   4.070  18.576  0.00  0.00    +0.000 OA
ATOM     15  O   UNL     1       3.122   3.262  16.964  0.00  0.00    +0.000 OA
BRANCH  13  16
ATOM     16  C   UNL     1       5.378   4.104  16.040  0.00  0.00    +0.000 A 
ATOM     17  C   UNL     1       4.966   3.825  14.728  0.00  0.00    +0.000 A 
ATOM     18  C   UNL     1       5.832   4.089  13.665  0.00  0.00    +0.000 A 
ATOM     19  C   UNL     1       7.083   4.644  13.913  0.00  0.00    +0.000 A 
ATOM     20  F   UNL     1       7.879   4.963  12.884  0.00  0.00    +0.000 F 
ATOM     21  C   UNL     1       7.506   4.913  15.210  0.00  0.00    +0.000 A 
ATOM     22  C   UNL     1       6.654   4.638  16.281  0.00  0.00    +0.000 A 
ENDBRANCH  13  16
ENDBRANCH   4  13
BRANCH   1  23
ATOM     23  C   UNL     1       1.563   8.130  19.486  0.00  0.00    +0.000 C 
ATOM     24  O   UNL     1       1.373   7.890  20.668  0.00  0.00    +0.000 OA
BRANCH  23  25
ATOM     25  O   UNL     1       0.881   9.017  18.720  0.00  0.00    +0.000 OA
BRANCH  25  27
ATOM     26  C   UNL     1      -1.087  10.357  18.838  0.00  0.00    +0.000 C 
ATOM     27  C   UNL     1       0.290  10.118  19.428  0.00  0.00    +0.000 C 
ENDBRANCH  25  27
ENDBRANCH  23  25
ENDBRANCH   1  23
TORSDOF 6
ENDMDL
