MODEL 1
REMARK VINA RESULT:      -6.4      0.000      0.000
REMARK  Name = 
REMARK  12 active torsions:
REMARK  status: ('A' for Active; 'I' for Inactive)
REMARK    1  A    between atoms: C_2  and  C_3
REMARK    2  A    between atoms: C_3  and  C_4
REMARK    3  A    between atoms: C_4  and  C_5
REMARK    4  A    between atoms: C_5  and  C_6
REMARK    5  A    between atoms: C_12  and  C_14
REMARK    6  A    between atoms: C_14  and  N_15
REMARK    7  A    between atoms: C_19  and  C_20
REMARK    8  A    between atoms: C_20  and  N_21
REMARK    9  A    between atoms: N_21  and  C_22
REMARK   10  A    between atoms: N_21  and  C_23
REMARK   11  A    between atoms: C_23  and  C_24
REMARK   12  A    between atoms: C_23  and  C_25
REMARK                            x       y       z     vdW  Elec       q    Type
REMARK                         _______ _______ _______ _____ _____    ______ ____
ROOT
ATOM      1  C   UNL     1       0.598  10.178  19.495  0.00  0.00    +0.000 C 
ATOM      2  C   UNL     1       0.558  10.652  20.980  0.00  0.00    +0.000 C 
ATOM      3  C   UNL     1       0.464   9.366  21.784  0.00  0.00    +0.000 C 
ATOM      4  C   UNL     1       1.299   8.383  20.987  0.00  0.00    +0.000 C 
ATOM      5  N   UNL     1       1.377   8.906  19.626  0.00  0.00    +0.000 N 
ATOM      6  C   UNL     1       2.071   8.254  18.598  0.00  0.00    +0.000 C 
ATOM      7  O   UNL     1       2.048   8.641  17.431  0.00  0.00    +0.000 OA
ENDROOT
BRANCH   1   8
ATOM      8  C   UNL     1       1.242  11.290  18.611  0.00  0.00    +0.000 C 
BRANCH   8  10
ATOM      9  C   UNL     1       2.683  13.346  18.760  0.00  0.00    +0.000 C 
ATOM     10  C   UNL     1       1.945  12.398  19.352  0.00  0.00    +0.000 C 
ENDBRANCH   8  10
ENDBRANCH   1   8
BRANCH   1  11
ATOM     11  C   UNL     1      -0.877   9.921  19.031  0.00  0.00    +0.000 C 
BRANCH  11  12
ATOM     12  C   UNL     1      -1.174  10.087  17.566  0.00  0.00    +0.000 C 
ATOM     13  C   UNL     1      -2.405  10.019  17.033  0.00  0.00    +0.000 C 
ENDBRANCH  11  12
ENDBRANCH   1  11
BRANCH   6  14
ATOM     14  C   UNL     1       2.954   7.094  19.039  0.00  0.00    +0.000 C 
BRANCH  14  15
ATOM     15  N   UNL     1       2.945   5.944  18.159  0.00  0.00    +0.000 N 
ATOM     16  N   UNL     1       1.974   5.018  18.322  0.00  0.00    +0.000 NA
ATOM     17  N   UNL     1       2.361   3.968  17.616  0.00  0.00    +0.000 NA
ATOM     18  N   UNL     1       3.567   4.201  17.015  0.00  0.00    +0.000 NA
ATOM     19  C   UNL     1       3.931   5.423  17.360  0.00  0.00    +0.000 A 
BRANCH  19  20
ATOM     20  C   UNL     1       5.182   6.118  16.938  0.00  0.00    +0.000 C 
BRANCH  20  21
ATOM     21  N   UNL     1       6.397   5.266  16.968  0.00  0.00    +0.000 NA
ATOM     22  C   UNL     1       6.894   5.045  15.596  0.00  0.00    +0.000 C 
BRANCH  21  23
ATOM     23  C   UNL     1       7.465   5.897  17.802  0.00  0.00    +0.000 C 
ATOM     24  C   UNL     1       7.570   7.415  17.585  0.00  0.00    +0.000 C 
ATOM     25  C   UNL     1       7.235   5.667  19.306  0.00  0.00    +0.000 C 
ENDBRANCH  21  23
ENDBRANCH  20  21
ENDBRANCH  19  20
ENDBRANCH  14  15
ENDBRANCH   6  14
TORSDOF 9
ENDMDL
MODEL 2
REMARK VINA RESULT:      -6.4      3.800      6.969
REMARK  Name = 
REMARK  12 active torsions:
REMARK  status: ('A' for Active; 'I' for Inactive)
REMARK    1  A    between atoms: C_2  and  C_3
REMARK    2  A    between atoms: C_3  and  C_4
REMARK    3  A    between atoms: C_4  and  C_5
REMARK    4  A    between atoms: C_5  and  C_6
REMARK    5  A    between atoms: C_12  and  C_14
REMARK    6  A    between atoms: C_14  and  N_15
REMARK    7  A    between atoms: C_19  and  C_20
REMARK    8  A    between atoms: C_20  and  N_21
REMARK    9  A    between atoms: N_21  and  C_22
REMARK   10  A    between atoms: N_21  and  C_23
REMARK   11  A    between atoms: C_23  and  C_24
REMARK   12  A    between atoms: C_23  and  C_25
REMARK                            x       y       z     vdW  Elec       q    Type
REMARK                         _______ _______ _______ _____ _____    ______ ____
ROOT
ATOM      1  C   UNL     1       6.795   6.390  17.394  0.00  0.00    +0.000 C 
ATOM      2  C   UNL     1       7.795   5.574  18.270  0.00  0.00    +0.000 C 
ATOM      3  C   UNL     1       7.119   5.484  19.628  0.00  0.00    +0.000 C 
ATOM      4  C   UNL     1       5.646   5.378  19.290  0.00  0.00    +0.000 C 
ATOM      5  N   UNL     1       5.486   5.911  17.940  0.00  0.00    +0.000 N 
ATOM      6  C   UNL     1       4.247   5.978  17.289  0.00  0.00    +0.000 C 
ATOM      7  O   UNL     1       4.099   6.522  16.196  0.00  0.00    +0.000 OA
ENDROOT
BRANCH   1   8
ATOM      8  C   UNL     1       7.062   6.093  15.887  0.00  0.00    +0.000 C 
BRANCH   8  10
ATOM      9  C   UNL     1       6.278   4.120  14.538  0.00  0.00    +0.000 C 
ATOM     10  C   UNL     1       7.065   4.639  15.490  0.00  0.00    +0.000 C 
ENDBRANCH   8  10
ENDBRANCH   1   8
BRANCH   1  11
ATOM     11  C   UNL     1       7.033   7.912  17.684  0.00  0.00    +0.000 C 
BRANCH  11  12
ATOM     12  C   UNL     1       8.407   8.317  18.142  0.00  0.00    +0.000 C 
ATOM     13  C   UNL     1       8.738   9.559  18.530  0.00  0.00    +0.000 C 
ENDBRANCH  11  12
ENDBRANCH   1  11
BRANCH   6  14
ATOM     14  C   UNL     1       3.109   5.232  17.971  0.00  0.00    +0.000 C 
BRANCH  14  15
ATOM     15  N   UNL     1       2.361   6.002  18.943  0.00  0.00    +0.000 N 
ATOM     16  N   UNL     1       2.592   7.331  19.025  0.00  0.00    +0.000 NA
ATOM     17  N   UNL     1       2.019   7.724  20.151  0.00  0.00    +0.000 NA
ATOM     18  N   UNL     1       1.437   6.668  20.798  0.00  0.00    +0.000 NA
ATOM     19  C   UNL     1       1.657   5.601  20.051  0.00  0.00    +0.000 A 
BRANCH  19  20
ATOM     20  C   UNL     1       1.205   4.211  20.351  0.00  0.00    +0.000 C 
BRANCH  20  21
ATOM     21  N   UNL     1       2.299   3.210  20.415  0.00  0.00    +0.000 NA
ATOM     22  C   UNL     1       2.472   2.737  21.803  0.00  0.00    +0.000 C 
BRANCH  21  23
ATOM     23  C   UNL     1       2.009   2.053  19.515  0.00  0.00    +0.000 C 
ATOM     24  C   UNL     1       0.792   2.294  18.609  0.00  0.00    +0.000 C 
ATOM     25  C   UNL     1       3.201   1.723  18.599  0.00  0.00    +0.000 C 
ENDBRANCH  21  23
ENDBRANCH  20  21
ENDBRANCH  19  20
ENDBRANCH  14  15
ENDBRANCH   6  14
TORSDOF 9
ENDMDL
MODEL 3
REMARK VINA RESULT:      -6.4      1.116      1.616
REMARK  Name = 
REMARK  12 active torsions:
REMARK  status: ('A' for Active; 'I' for Inactive)
REMARK    1  A    between atoms: C_2  and  C_3
REMARK    2  A    between atoms: C_3  and  C_4
REMARK    3  A    between atoms: C_4  and  C_5
REMARK    4  A    between atoms: C_5  and  C_6
REMARK    5  A    between atoms: C_12  and  C_14
REMARK    6  A    between atoms: C_14  and  N_15
REMARK    7  A    between atoms: C_19  and  C_20
REMARK    8  A    between atoms: C_20  and  N_21
REMARK    9  A    between atoms: N_21  and  C_22
REMARK   10  A    between atoms: N_21  and  C_23
REMARK   11  A    between atoms: C_23  and  C_24
REMARK   12  A    between atoms: C_23  and  C_25
REMARK                            x       y       z     vdW  Elec       q    Type
REMARK                         _______ _______ _______ _____ _____    ______ ____
ROOT
ATOM      1  C   UNL     1       1.122   9.943  18.975  0.00  0.00    +0.000 C 
ATOM      2  C   UNL     1       0.838  10.465  20.416  0.00  0.00    +0.000 C 
ATOM      3  C   UNL     1       0.383   9.232  21.180  0.00  0.00    +0.000 C 
ATOM      4  C   UNL     1       1.212   8.114  20.582  0.00  0.00    +0.000 C 
ATOM      5  N   UNL     1       1.656   8.576  19.269  0.00  0.00    +0.000 N 
ATOM      6  C   UNL     1       2.448   7.798  18.415  0.00  0.00    +0.000 C 
ATOM      7  O   UNL     1       2.732   8.147  17.271  0.00  0.00    +0.000 OA
ENDROOT
BRANCH   1   8
ATOM      8  C   UNL     1       2.098  10.921  18.251  0.00  0.00    +0.000 C 
BRANCH   8  10
ATOM      9  C   UNL     1       2.923  13.291  18.425  0.00  0.00    +0.000 C 
ATOM     10  C   UNL     1       1.961  12.378  18.611  0.00  0.00    +0.000 C 
ENDBRANCH   8  10
ENDBRANCH   1   8
BRANCH   1  11
ATOM     11  C   UNL     1      -0.242   9.890  18.203  0.00  0.00    +0.000 C 
BRANCH  11  12
ATOM     12  C   UNL     1      -1.270  10.931  18.555  0.00  0.00    +0.000 C 
ATOM     13  C   UNL     1      -1.680  11.898  17.718  0.00  0.00    +0.000 C 
ENDBRANCH  11  12
ENDBRANCH   1  11
BRANCH   6  14
ATOM     14  C   UNL     1       3.033   6.536  19.035  0.00  0.00    +0.000 C 
BRANCH  14  15
ATOM     15  N   UNL     1       2.835   5.324  18.269  0.00  0.00    +0.000 N 
ATOM     16  N   UNL     1       1.574   4.976  17.931  0.00  0.00    +0.000 NA
ATOM     17  N   UNL     1       1.650   3.723  17.511  0.00  0.00    +0.000 NA
ATOM     18  N   UNL     1       2.935   3.259  17.586  0.00  0.00    +0.000 NA
ATOM     19  C   UNL     1       3.666   4.251  18.063  0.00  0.00    +0.000 A 
BRANCH  19  20
ATOM     20  C   UNL     1       5.137   4.214  18.316  0.00  0.00    +0.000 C 
BRANCH  20  21
ATOM     21  N   UNL     1       5.924   5.161  17.487  0.00  0.00    +0.000 NA
ATOM     22  C   UNL     1       7.366   4.870  17.619  0.00  0.00    +0.000 C 
BRANCH  21  23
ATOM     23  C   UNL     1       5.516   5.072  16.052  0.00  0.00    +0.000 C 
ATOM     24  C   UNL     1       5.239   6.447  15.426  0.00  0.00    +0.000 C 
ATOM     25  C   UNL     1       6.589   4.386  15.189  0.00  0.00    +0.000 C 
ENDBRANCH  21  23
ENDBRANCH  20  21
ENDBRANCH  19  20
ENDBRANCH  14  15
ENDBRANCH   6  14
TORSDOF 9
ENDMDL
MODEL 4
REMARK VINA RESULT:      -6.3      1.092      1.623
REMARK  Name = 
REMARK  12 active torsions:
REMARK  status: ('A' for Active; 'I' for Inactive)
REMARK    1  A    between atoms: C_2  and  C_3
REMARK    2  A    between atoms: C_3  and  C_4
REMARK    3  A    between atoms: C_4  and  C_5
REMARK    4  A    between atoms: C_5  and  C_6
REMARK    5  A    between atoms: C_12  and  C_14
REMARK    6  A    between atoms: C_14  and  N_15
REMARK    7  A    between atoms: C_19  and  C_20
REMARK    8  A    between atoms: C_20  and  N_21
REMARK    9  A    between atoms: N_21  and  C_22
REMARK   10  A    between atoms: N_21  and  C_23
REMARK   11  A    between atoms: C_23  and  C_24
REMARK   12  A    between atoms: C_23  and  C_25
REMARK                            x       y       z     vdW  Elec       q    Type
REMARK                         _______ _______ _______ _____ _____    ______ ____
ROOT
ATOM      1  C   UNL     1       0.625  10.215  19.718  0.00  0.00    +0.000 C 
ATOM      2  C   UNL     1       0.643  10.978  21.078  0.00  0.00    +0.000 C 
ATOM      3  C   UNL     1       0.361   9.905  22.116  0.00  0.00    +0.000 C 
ATOM      4  C   UNL     1       1.052   8.677  21.559  0.00  0.00    +0.000 C 
ATOM      5  N   UNL     1       1.213   8.900  20.125  0.00  0.00    +0.000 N 
ATOM      6  C   UNL     1       1.814   7.966  19.271  0.00  0.00    +0.000 C 
ATOM      7  O   UNL     1       1.854   8.111  18.051  0.00  0.00    +0.000 OA
ENDROOT
BRANCH   1   8
ATOM      8  C   UNL     1       1.426  11.028  18.656  0.00  0.00    +0.000 C 
BRANCH   8  10
ATOM      9  C   UNL     1       2.482  13.276  18.255  0.00  0.00    +0.000 C 
ATOM     10  C   UNL     1       1.809  12.432  19.049  0.00  0.00    +0.000 C 
ENDBRANCH   8  10
ENDBRANCH   1   8
BRANCH   1  11
ATOM     11  C   UNL     1      -0.869  10.078  19.263  0.00  0.00    +0.000 C 
BRANCH  11  12
ATOM     12  C   UNL     1      -1.201  10.508  17.860  0.00  0.00    +0.000 C 
ATOM     13  C   UNL     1      -2.089   9.884  17.070  0.00  0.00    +0.000 C 
ENDBRANCH  11  12
ENDBRANCH   1  11
BRANCH   6  14
ATOM     14  C   UNL     1       2.520   6.807  19.963  0.00  0.00    +0.000 C 
BRANCH  14  15
ATOM     15  N   UNL     1       2.155   5.490  19.484  0.00  0.00    +0.000 N 
ATOM     16  N   UNL     1       1.312   4.745  20.233  0.00  0.00    +0.000 NA
ATOM     17  N   UNL     1       1.381   3.521  19.736  0.00  0.00    +0.000 NA
ATOM     18  N   UNL     1       2.263   3.466  18.691  0.00  0.00    +0.000 NA
ATOM     19  C   UNL     1       2.747   4.686  18.543  0.00  0.00    +0.000 A 
BRANCH  19  20
ATOM     20  C   UNL     1       3.746   5.116  17.520  0.00  0.00    +0.000 C 
BRANCH  20  21
ATOM     21  N   UNL     1       4.927   5.821  18.076  0.00  0.00    +0.000 NA
ATOM     22  C   UNL     1       5.820   4.859  18.752  0.00  0.00    +0.000 C 
BRANCH  21  23
ATOM     23  C   UNL     1       5.673   6.536  16.995  0.00  0.00    +0.000 C 
ATOM     24  C   UNL     1       7.189   6.571  17.242  0.00  0.00    +0.000 C 
ATOM     25  C   UNL     1       5.450   5.888  15.617  0.00  0.00    +0.000 C 
ENDBRANCH  21  23
ENDBRANCH  20  21
ENDBRANCH  19  20
ENDBRANCH  14  15
ENDBRANCH   6  14
TORSDOF 9
ENDMDL
MODEL 5
REMARK VINA RESULT:      -6.3      1.033      1.350
REMARK  Name = 
REMARK  12 active torsions:
REMARK  status: ('A' for Active; 'I' for Inactive)
REMARK    1  A    between atoms: C_2  and  C_3
REMARK    2  A    between atoms: C_3  and  C_4
REMARK    3  A    between atoms: C_4  and  C_5
REMARK    4  A    between atoms: C_5  and  C_6
REMARK    5  A    between atoms: C_12  and  C_14
REMARK    6  A    between atoms: C_14  and  N_15
REMARK    7  A    between atoms: C_19  and  C_20
REMARK    8  A    between atoms: C_20  and  N_21
REMARK    9  A    between atoms: N_21  and  C_22
REMARK   10  A    between atoms: N_21  and  C_23
REMARK   11  A    between atoms: C_23  and  C_24
REMARK   12  A    between atoms: C_23  and  C_25
REMARK                            x       y       z     vdW  Elec       q    Type
REMARK                         _______ _______ _______ _____ _____    ______ ____
ROOT
ATOM      1  C   UNL     1       1.044  10.001  19.050  0.00  0.00    +0.000 C 
ATOM      2  C   UNL     1       0.820  10.546  20.494  0.00  0.00    +0.000 C 
ATOM      3  C   UNL     1       0.402   9.325  21.296  0.00  0.00    +0.000 C 
ATOM      4  C   UNL     1       1.207   8.198  20.681  0.00  0.00    +0.000 C 
ATOM      5  N   UNL     1       1.593   8.641  19.343  0.00  0.00    +0.000 N 
ATOM      6  C   UNL     1       2.350   7.850  18.468  0.00  0.00    +0.000 C 
ATOM      7  O   UNL     1       2.584   8.181  17.308  0.00  0.00    +0.000 OA
ENDROOT
BRANCH   1   8
ATOM      8  C   UNL     1       1.985  10.970  18.269  0.00  0.00    +0.000 C 
BRANCH   8  10
ATOM      9  C   UNL     1       1.534  13.444  18.294  0.00  0.00    +0.000 C 
ATOM     10  C   UNL     1       2.113  12.363  18.831  0.00  0.00    +0.000 C 
ENDBRANCH   8  10
ENDBRANCH   1   8
BRANCH   1  11
ATOM     11  C   UNL     1      -0.352   9.933  18.339  0.00  0.00    +0.000 C 
BRANCH  11  12
ATOM     12  C   UNL     1      -1.362  10.986  18.708  0.00  0.00    +0.000 C 
ATOM     13  C   UNL     1      -1.957  11.803  17.824  0.00  0.00    +0.000 C 
ENDBRANCH  11  12
ENDBRANCH   1  11
BRANCH   6  14
ATOM     14  C   UNL     1       2.964   6.599  19.083  0.00  0.00    +0.000 C 
BRANCH  14  15
ATOM     15  N   UNL     1       2.816   5.391  18.300  0.00  0.00    +0.000 N 
ATOM     16  N   UNL     1       1.580   5.052  17.869  0.00  0.00    +0.000 NA
ATOM     17  N   UNL     1       1.679   3.800  17.451  0.00  0.00    +0.000 NA
ATOM     18  N   UNL     1       2.953   3.328  17.618  0.00  0.00    +0.000 NA
ATOM     19  C   UNL     1       3.653   4.313  18.151  0.00  0.00    +0.000 A 
BRANCH  19  20
ATOM     20  C   UNL     1       5.101   4.267  18.510  0.00  0.00    +0.000 C 
BRANCH  20  21
ATOM     21  N   UNL     1       6.014   4.713  17.429  0.00  0.00    +0.000 NA
ATOM     22  C   UNL     1       5.690   4.011  16.171  0.00  0.00    +0.000 C 
BRANCH  21  23
ATOM     23  C   UNL     1       5.914   6.191  17.228  0.00  0.00    +0.000 C 
ATOM     24  C   UNL     1       7.275   6.898  17.327  0.00  0.00    +0.000 C 
ATOM     25  C   UNL     1       5.314   6.547  15.856  0.00  0.00    +0.000 C 
ENDBRANCH  21  23
ENDBRANCH  20  21
ENDBRANCH  19  20
ENDBRANCH  14  15
ENDBRANCH   6  14
TORSDOF 9
ENDMDL
MODEL 6
REMARK VINA RESULT:      -6.3      3.105      5.921
REMARK  Name = 
REMARK  12 active torsions:
REMARK  status: ('A' for Active; 'I' for Inactive)
REMARK    1  A    between atoms: C_2  and  C_3
REMARK    2  A    between atoms: C_3  and  C_4
REMARK    3  A    between atoms: C_4  and  C_5
REMARK    4  A    between atoms: C_5  and  C_6
REMARK    5  A    between atoms: C_12  and  C_14
REMARK    6  A    between atoms: C_14  and  N_15
REMARK    7  A    between atoms: C_19  and  C_20
REMARK    8  A    between atoms: C_20  and  N_21
REMARK    9  A    between atoms: N_21  and  C_22
REMARK   10  A    between atoms: N_21  and  C_23
REMARK   11  A    between atoms: C_23  and  C_24
REMARK   12  A    between atoms: C_23  and  C_25
REMARK                            x       y       z     vdW  Elec       q    Type
REMARK                         _______ _______ _______ _____ _____    ______ ____
ROOT
ATOM      1  C   UNL     1       2.273   4.597  18.950  0.00  0.00    +0.000 C 
ATOM      2  C   UNL     1       1.585   3.296  18.436  0.00  0.00    +0.000 C 
ATOM      3  C   UNL     1       2.343   2.945  17.167  0.00  0.00    +0.000 C 
ATOM      4  C   UNL     1       3.767   3.364  17.472  0.00  0.00    +0.000 C 
ATOM      5  N   UNL     1       3.693   4.340  18.556  0.00  0.00    +0.000 N 
ATOM      6  C   UNL     1       4.827   4.956  19.104  0.00  0.00    +0.000 C 
ATOM      7  O   UNL     1       4.755   5.852  19.943  0.00  0.00    +0.000 OA
ENDROOT
BRANCH   1   8
ATOM      8  C   UNL     1       2.001   4.760  20.478  0.00  0.00    +0.000 C 
BRANCH   8  10
ATOM      9  C   UNL     1       1.355   2.693  21.757  0.00  0.00    +0.000 C 
ATOM     10  C   UNL     1       2.290   3.553  21.333  0.00  0.00    +0.000 C 
ENDBRANCH   8  10
ENDBRANCH   1   8
BRANCH   1  11
ATOM     11  C   UNL     1       1.655   5.809  18.171  0.00  0.00    +0.000 C 
BRANCH  11  12
ATOM     12  C   UNL     1       2.525   7.022  17.988  0.00  0.00    +0.000 C 
ATOM     13  C   UNL     1       2.103   8.286  18.159  0.00  0.00    +0.000 C 
ENDBRANCH  11  12
ENDBRANCH   1  11
BRANCH   6  14
ATOM     14  C   UNL     1       6.163   4.365  18.677  0.00  0.00    +0.000 C 
BRANCH  14  15
ATOM     15  N   UNL     1       6.961   5.206  17.810  0.00  0.00    +0.000 N 
ATOM     16  N   UNL     1       7.294   6.442  18.242  0.00  0.00    +0.000 NA
ATOM     17  N   UNL     1       7.749   7.082  17.177  0.00  0.00    +0.000 NA
ATOM     18  N   UNL     1       7.701   6.282  16.068  0.00  0.00    +0.000 NA
ATOM     19  C   UNL     1       7.205   5.123  16.462  0.00  0.00    +0.000 A 
BRANCH  19  20
ATOM     20  C   UNL     1       6.970   3.929  15.596  0.00  0.00    +0.000 C 
BRANCH  20  21
ATOM     21  N   UNL     1       5.792   4.044  14.701  0.00  0.00    +0.000 NA
ATOM     22  C   UNL     1       5.279   5.429  14.714  0.00  0.00    +0.000 C 
BRANCH  21  23
ATOM     23  C   UNL     1       6.149   3.647  13.305  0.00  0.00    +0.000 C 
ATOM     24  C   UNL     1       4.946   3.686  12.349  0.00  0.00    +0.000 C 
ATOM     25  C   UNL     1       7.236   4.557  12.706  0.00  0.00    +0.000 C 
ENDBRANCH  21  23
ENDBRANCH  20  21
ENDBRANCH  19  20
ENDBRANCH  14  15
ENDBRANCH   6  14
TORSDOF 9
ENDMDL
MODEL 7
REMARK VINA RESULT:      -6.2      1.110      1.358
REMARK  Name = 
REMARK  12 active torsions:
REMARK  status: ('A' for Active; 'I' for Inactive)
REMARK    1  A    between atoms: C_2  and  C_3
REMARK    2  A    between atoms: C_3  and  C_4
REMARK    3  A    between atoms: C_4  and  C_5
REMARK    4  A    between atoms: C_5  and  C_6
REMARK    5  A    between atoms: C_12  and  C_14
REMARK    6  A    between atoms: C_14  and  N_15
REMARK    7  A    between atoms: C_19  and  C_20
REMARK    8  A    between atoms: C_20  and  N_21
REMARK    9  A    between atoms: N_21  and  C_22
REMARK   10  A    between atoms: N_21  and  C_23
REMARK   11  A    between atoms: C_23  and  C_24
REMARK   12  A    between atoms: C_23  and  C_25
REMARK                            x       y       z     vdW  Elec       q    Type
REMARK                         _______ _______ _______ _____ _____    ______ ____
ROOT
ATOM      1  C   UNL     1       0.688  10.087  19.713  0.00  0.00    +0.000 C 
ATOM      2  C   UNL     1       0.715  10.724  21.136  0.00  0.00    +0.000 C 
ATOM      3  C   UNL     1       0.478   9.555  22.077  0.00  0.00    +0.000 C 
ATOM      4  C   UNL     1       1.185   8.399  21.399  0.00  0.00    +0.000 C 
ATOM      5  N   UNL     1       1.313   8.755  19.988  0.00  0.00    +0.000 N 
ATOM      6  C   UNL     1       1.919   7.917  19.043  0.00  0.00    +0.000 C 
ATOM      7  O   UNL     1       1.932   8.172  17.840  0.00  0.00    +0.000 OA
ENDROOT
BRANCH   1   8
ATOM      8  C   UNL     1       1.449  11.012  18.715  0.00  0.00    +0.000 C 
BRANCH   8  10
ATOM      9  C   UNL     1       1.636  13.505  18.436  0.00  0.00    +0.000 C 
ATOM     10  C   UNL     1       1.741  12.409  19.199  0.00  0.00    +0.000 C 
ENDBRANCH   8  10
ENDBRANCH   1   8
BRANCH   1  11
ATOM     11  C   UNL     1      -0.812   9.955  19.273  0.00  0.00    +0.000 C 
BRANCH  11  12
ATOM     12  C   UNL     1      -1.159  10.401  17.879  0.00  0.00    +0.000 C 
ATOM     13  C   UNL     1      -2.006  11.404  17.597  0.00  0.00    +0.000 C 
ENDBRANCH  11  12
ENDBRANCH   1  11
BRANCH   6  14
ATOM     14  C   UNL     1       2.664   6.718  19.614  0.00  0.00    +0.000 C 
BRANCH  14  15
ATOM     15  N   UNL     1       2.252   5.431  19.093  0.00  0.00    +0.000 N 
ATOM     16  N   UNL     1       1.364   4.703  19.806  0.00  0.00    +0.000 NA
ATOM     17  N   UNL     1       1.389   3.491  19.277  0.00  0.00    +0.000 NA
ATOM     18  N   UNL     1       2.286   3.427  18.246  0.00  0.00    +0.000 NA
ATOM     19  C   UNL     1       2.825   4.628  18.139  0.00  0.00    +0.000 A 
BRANCH  19  20
ATOM     20  C   UNL     1       3.859   5.042  17.145  0.00  0.00    +0.000 C 
BRANCH  20  21
ATOM     21  N   UNL     1       5.131   4.283  17.233  0.00  0.00    +0.000 NA
ATOM     22  C   UNL     1       5.492   3.744  15.907  0.00  0.00    +0.000 C 
BRANCH  21  23
ATOM     23  C   UNL     1       6.232   5.155  17.746  0.00  0.00    +0.000 C 
ATOM     24  C   UNL     1       6.221   5.289  19.276  0.00  0.00    +0.000 C 
ATOM     25  C   UNL     1       7.620   4.627  17.344  0.00  0.00    +0.000 C 
ENDBRANCH  21  23
ENDBRANCH  20  21
ENDBRANCH  19  20
ENDBRANCH  14  15
ENDBRANCH   6  14
TORSDOF 9
ENDMDL
MODEL 8
REMARK VINA RESULT:      -6.2      0.919      1.422
REMARK  Name = 
REMARK  12 active torsions:
REMARK  status: ('A' for Active; 'I' for Inactive)
REMARK    1  A    between atoms: C_2  and  C_3
REMARK    2  A    between atoms: C_3  and  C_4
REMARK    3  A    between atoms: C_4  and  C_5
REMARK    4  A    between atoms: C_5  and  C_6
REMARK    5  A    between atoms: C_12  and  C_14
REMARK    6  A    between atoms: C_14  and  N_15
REMARK    7  A    between atoms: C_19  and  C_20
REMARK    8  A    between atoms: C_20  and  N_21
REMARK    9  A    between atoms: N_21  and  C_22
REMARK   10  A    between atoms: N_21  and  C_23
REMARK   11  A    between atoms: C_23  and  C_24
REMARK   12  A    between atoms: C_23  and  C_25
REMARK                            x       y       z     vdW  Elec       q    Type
REMARK                         _______ _______ _______ _____ _____    ______ ____
ROOT
ATOM      1  C   UNL     1       0.749  10.060  19.618  0.00  0.00    +0.000 C 
ATOM      2  C   UNL     1       0.799  10.709  21.034  0.00  0.00    +0.000 C 
ATOM      3  C   UNL     1       0.559   9.551  21.988  0.00  0.00    +0.000 C 
ATOM      4  C   UNL     1       1.246   8.381  21.313  0.00  0.00    +0.000 C 
ATOM      5  N   UNL     1       1.362   8.724  19.898  0.00  0.00    +0.000 N 
ATOM      6  C   UNL     1       1.948   7.870  18.953  0.00  0.00    +0.000 C 
ATOM      7  O   UNL     1       1.951   8.114  17.748  0.00  0.00    +0.000 OA
ENDROOT
BRANCH   1   8
ATOM      8  C   UNL     1       1.510  10.967  18.603  0.00  0.00    +0.000 C 
BRANCH   8  10
ATOM      9  C   UNL     1       1.367  13.478  18.541  0.00  0.00    +0.000 C 
ATOM     10  C   UNL     1       1.853  12.354  19.084  0.00  0.00    +0.000 C 
ENDBRANCH   8  10
ENDBRANCH   1   8
BRANCH   1  11
ATOM     11  C   UNL     1      -0.756   9.941  19.195  0.00  0.00    +0.000 C 
BRANCH  11  12
ATOM     12  C   UNL     1      -1.167  10.626  17.921  0.00  0.00    +0.000 C 
ATOM     13  C   UNL     1      -1.975  10.081  16.997  0.00  0.00    +0.000 C 
ENDBRANCH  11  12
ENDBRANCH   1  11
BRANCH   6  14
ATOM     14  C   UNL     1       2.685   6.667  19.527  0.00  0.00    +0.000 C 
BRANCH  14  15
ATOM     15  N   UNL     1       2.737   5.506  18.663  0.00  0.00    +0.000 N 
ATOM     16  N   UNL     1       1.612   4.776  18.501  0.00  0.00    +0.000 NA
ATOM     17  N   UNL     1       1.998   3.648  17.926  0.00  0.00    +0.000 NA
ATOM     18  N   UNL     1       3.352   3.640  17.728  0.00  0.00    +0.000 NA
ATOM     19  C   UNL     1       3.808   4.789  18.193  0.00  0.00    +0.000 A 
BRANCH  19  20
ATOM     20  C   UNL     1       5.233   5.233  18.191  0.00  0.00    +0.000 C 
BRANCH  20  21
ATOM     21  N   UNL     1       5.670   5.882  16.929  0.00  0.00    +0.000 NA
ATOM     22  C   UNL     1       6.149   7.251  17.204  0.00  0.00    +0.000 C 
BRANCH  21  23
ATOM     23  C   UNL     1       6.751   5.086  16.273  0.00  0.00    +0.000 C 
ATOM     24  C   UNL     1       7.699   4.422  17.285  0.00  0.00    +0.000 C 
ATOM     25  C   UNL     1       6.184   3.969  15.379  0.00  0.00    +0.000 C 
ENDBRANCH  21  23
ENDBRANCH  20  21
ENDBRANCH  19  20
ENDBRANCH  14  15
ENDBRANCH   6  14
TORSDOF 9
ENDMDL
MODEL 9
REMARK VINA RESULT:      -6.2      1.866      3.000
REMARK  Name = 
REMARK  12 active torsions:
REMARK  status: ('A' for Active; 'I' for Inactive)
REMARK    1  A    between atoms: C_2  and  C_3
REMARK    2  A    between atoms: C_3  and  C_4
REMARK    3  A    between atoms: C_4  and  C_5
REMARK    4  A    between atoms: C_5  and  C_6
REMARK    5  A    between atoms: C_12  and  C_14
REMARK    6  A    between atoms: C_14  and  N_15
REMARK    7  A    between atoms: C_19  and  C_20
REMARK    8  A    between atoms: C_20  and  N_21
REMARK    9  A    between atoms: N_21  and  C_22
REMARK   10  A    between atoms: N_21  and  C_23
REMARK   11  A    between atoms: C_23  and  C_24
REMARK   12  A    between atoms: C_23  and  C_25
REMARK                            x       y       z     vdW  Elec       q    Type
REMARK                         _______ _______ _______ _____ _____    ______ ____
ROOT
ATOM      1  C   UNL     1       0.732  10.263  19.596  0.00  0.00    +0.000 C 
ATOM      2  C   UNL     1       0.779  10.831  21.047  0.00  0.00    +0.000 C 
ATOM      3  C   UNL     1       0.558   9.617  21.934  0.00  0.00    +0.000 C 
ATOM      4  C   UNL     1       1.257   8.497  21.191  0.00  0.00    +0.000 C 
ATOM      5  N   UNL     1       1.363   8.921  19.797  0.00  0.00    +0.000 N 
ATOM      6  C   UNL     1       1.955   8.130  18.803  0.00  0.00    +0.000 C 
ATOM      7  O   UNL     1       1.950   8.443  17.614  0.00  0.00    +0.000 OA
ENDROOT
BRANCH   1   8
ATOM      8  C   UNL     1       1.477  11.236  18.632  0.00  0.00    +0.000 C 
BRANCH   8  10
ATOM      9  C   UNL     1       2.262  13.580  19.095  0.00  0.00    +0.000 C 
ATOM     10  C   UNL     1       1.268  12.707  18.886  0.00  0.00    +0.000 C 
ENDBRANCH   8  10
ENDBRANCH   1   8
BRANCH   1  11
ATOM     11  C   UNL     1      -0.774  10.149  19.172  0.00  0.00    +0.000 C 
BRANCH  11  12
ATOM     12  C   UNL     1      -1.068  10.069  17.699  0.00  0.00    +0.000 C 
ATOM     13  C   UNL     1      -2.302   9.958  17.181  0.00  0.00    +0.000 C 
ENDBRANCH  11  12
ENDBRANCH   1  11
BRANCH   6  14
ATOM     14  C   UNL     1       2.710   6.906  19.305  0.00  0.00    +0.000 C 
BRANCH  14  15
ATOM     15  N   UNL     1       3.604   6.296  18.343  0.00  0.00    +0.000 N 
ATOM     16  N   UNL     1       4.531   7.075  17.743  0.00  0.00    +0.000 NA
ATOM     17  N   UNL     1       4.997   6.361  16.731  0.00  0.00    +0.000 NA
ATOM     18  N   UNL     1       4.376   5.144  16.666  0.00  0.00    +0.000 NA
ATOM     19  C   UNL     1       3.508   5.109  17.661  0.00  0.00    +0.000 A 
BRANCH  19  20
ATOM     20  C   UNL     1       2.598   3.974  17.993  0.00  0.00    +0.000 C 
BRANCH  20  21
ATOM     21  N   UNL     1       3.031   3.164  19.159  0.00  0.00    +0.000 NA
ATOM     22  C   UNL     1       4.494   3.263  19.330  0.00  0.00    +0.000 C 
BRANCH  21  23
ATOM     23  C   UNL     1       2.340   3.620  20.404  0.00  0.00    +0.000 C 
ATOM     24  C   UNL     1       0.834   3.847  20.200  0.00  0.00    +0.000 C 
ATOM     25  C   UNL     1       2.497   2.609  21.554  0.00  0.00    +0.000 C 
ENDBRANCH  21  23
ENDBRANCH  20  21
ENDBRANCH  19  20
ENDBRANCH  14  15
ENDBRANCH   6  14
TORSDOF 9
ENDMDL
