MODEL 1
REMARK VINA RESULT:      -6.3      0.000      0.000
REMARK  Name = 
REMARK  4 active torsions:
REMARK  status: ('A' for Active; 'I' for Inactive)
REMARK    1  A    between atoms: C_1  and  C_2
REMARK    2  A    between atoms: C_6  and  N_7
REMARK    3  A    between atoms: C_9  and  N_10
REMARK    4  A    between atoms: C_11  and  O_12
REMARK                            x       y       z     vdW  Elec       q    Type
REMARK                         _______ _______ _______ _____ _____    ______ ____
ROOT
ATOM      1  C   UNL     1       3.838   1.915  19.655  0.00  0.00    +0.000 C 
ATOM      2  C   UNL     1       4.302   3.062  18.812  0.00  0.00    +0.000 A 
ATOM      3  C   UNL     1       3.728   3.318  17.581  0.00  0.00    +0.000 A 
ATOM      4  C   UNL     1       4.201   4.399  16.844  0.00  0.00    +0.000 A 
ATOM      5  C   UNL     1       5.239   5.218  17.336  0.00  0.00    +0.000 A 
ATOM      6  C   UNL     1       5.768   6.327  16.615  0.00  0.00    +0.000 A 
ATOM      7  C   UNL     1       6.897   6.996  17.107  0.00  0.00    +0.000 A 
ATOM      8  C   UNL     1       7.396   6.716  18.373  0.00  0.00    +0.000 A 
ATOM      9  C   UNL     1       6.840   5.638  19.080  0.00  0.00    +0.000 A 
ATOM     10  C   UNL     1       5.768   4.876  18.602  0.00  0.00    +0.000 A 
ATOM     11  N   UNL     1       5.293   3.826  19.318  0.00  0.00    +0.000 NA
ENDROOT
BRANCH   6  12
ATOM     12  N   UNL     1       5.334   6.644  15.307  0.00  0.00    +0.000 N 
ATOM     13  H   UNL     1       5.398   5.866  14.660  0.00  0.00    +0.000 HD
ATOM     14  H   UNL     1       4.407   7.061  15.281  0.00  0.00    +0.000 HD
ENDBRANCH   6  12
BRANCH   8  15
ATOM     15  N   UNL     1       8.558   7.360  18.850  0.00  0.00    +0.000 N 
ATOM     16  H   UNL     1       9.163   7.684  18.098  0.00  0.00    +0.000 HD
ATOM     17  H   UNL     1       8.329   8.132  19.474  0.00  0.00    +0.000 HD
ENDBRANCH   8  15
BRANCH   9  18
ATOM     18  O   UNL     1       7.440   5.297  20.278  0.00  0.00    +0.000 OA
ATOM     19  H   UNL     1       7.035   4.447  20.520  0.00  0.00    +0.000 HD
ENDBRANCH   9  18
TORSDOF 3
ENDMDL
MODEL 2
REMARK VINA RESULT:      -6.2      3.216      5.071
REMARK  Name = 
REMARK  4 active torsions:
REMARK  status: ('A' for Active; 'I' for Inactive)
REMARK    1  A    between atoms: C_1  and  C_2
REMARK    2  A    between atoms: C_6  and  N_7
REMARK    3  A    between atoms: C_9  and  N_10
REMARK    4  A    between atoms: C_11  and  O_12
REMARK                            x       y       z     vdW  Elec       q    Type
REMARK                         _______ _______ _______ _____ _____    ______ ____
ROOT
ATOM      1  C   UNL     1       5.610   3.928  15.452  0.00  0.00    +0.000 C 
ATOM      2  C   UNL     1       4.768   4.512  16.543  0.00  0.00    +0.000 A 
ATOM      3  C   UNL     1       4.845   5.855  16.861  0.00  0.00    +0.000 A 
ATOM      4  C   UNL     1       4.037   6.339  17.884  0.00  0.00    +0.000 A 
ATOM      5  C   UNL     1       3.156   5.486  18.583  0.00  0.00    +0.000 A 
ATOM      6  C   UNL     1       2.318   5.930  19.647  0.00  0.00    +0.000 A 
ATOM      7  C   UNL     1       1.586   4.992  20.386  0.00  0.00    +0.000 A 
ATOM      8  C   UNL     1       1.519   3.663  19.984  0.00  0.00    +0.000 A 
ATOM      9  C   UNL     1       2.329   3.254  18.913  0.00  0.00    +0.000 A 
ATOM     10  C   UNL     1       3.149   4.128  18.192  0.00  0.00    +0.000 A 
ATOM     11  N   UNL     1       3.934   3.667  17.186  0.00  0.00    +0.000 NA
ENDROOT
BRANCH   6  12
ATOM     12  N   UNL     1       2.365   7.258  20.131  0.00  0.00    +0.000 N 
ATOM     13  H   UNL     1       1.557   7.812  19.869  0.00  0.00    +0.000 HD
ATOM     14  H   UNL     1       2.534   7.315  21.132  0.00  0.00    +0.000 HD
ENDBRANCH   6  12
BRANCH   8  15
ATOM     15  N   UNL     1       0.815   2.711  20.754  0.00  0.00    +0.000 N 
ATOM     16  H   UNL     1      -0.172   2.661  20.508  0.00  0.00    +0.000 HD
ATOM     17  H   UNL     1       1.241   1.788  20.689  0.00  0.00    +0.000 HD
ENDBRANCH   8  15
BRANCH   9  18
ATOM     18  O   UNL     1       2.343   1.903  18.619  0.00  0.00    +0.000 OA
ATOM     19  H   UNL     1       1.652   1.522  19.189  0.00  0.00    +0.000 HD
ENDBRANCH   9  18
TORSDOF 3
ENDMDL
MODEL 3
REMARK VINA RESULT:      -6.0      2.866      4.187
REMARK  Name = 
REMARK  4 active torsions:
REMARK  status: ('A' for Active; 'I' for Inactive)
REMARK    1  A    between atoms: C_1  and  C_2
REMARK    2  A    between atoms: C_6  and  N_7
REMARK    3  A    between atoms: C_9  and  N_10
REMARK    4  A    between atoms: C_11  and  O_12
REMARK                            x       y       z     vdW  Elec       q    Type
REMARK                         _______ _______ _______ _____ _____    ______ ____
ROOT
ATOM      1  C   UNL     1       1.688   8.770  18.263  0.00  0.00    +0.000 C 
ATOM      2  C   UNL     1       2.619   7.599  18.333  0.00  0.00    +0.000 A 
ATOM      3  C   UNL     1       2.611   6.747  19.421  0.00  0.00    +0.000 A 
ATOM      4  C   UNL     1       3.498   5.675  19.428  0.00  0.00    +0.000 A 
ATOM      5  C   UNL     1       4.385   5.457  18.353  0.00  0.00    +0.000 A 
ATOM      6  C   UNL     1       5.322   4.383  18.318  0.00  0.00    +0.000 A 
ATOM      7  C   UNL     1       6.267   4.325  17.286  0.00  0.00    +0.000 A 
ATOM      8  C   UNL     1       6.190   5.188  16.199  0.00  0.00    +0.000 A 
ATOM      9  C   UNL     1       5.239   6.220  16.239  0.00  0.00    +0.000 A 
ATOM     10  C   UNL     1       4.325   6.383  17.286  0.00  0.00    +0.000 A 
ATOM     11  N   UNL     1       3.450   7.419  17.283  0.00  0.00    +0.000 NA
ENDROOT
BRANCH   6  12
ATOM     12  N   UNL     1       5.479   3.493  19.405  0.00  0.00    +0.000 N 
ATOM     13  H   UNL     1       5.866   3.932  20.234  0.00  0.00    +0.000 HD
ATOM     14  H   UNL     1       4.632   2.979  19.629  0.00  0.00    +0.000 HD
ENDBRANCH   6  12
BRANCH   8  15
ATOM     15  N   UNL     1       7.168   5.156  15.181  0.00  0.00    +0.000 N 
ATOM     16  H   UNL     1       8.003   4.643  15.456  0.00  0.00    +0.000 HD
ATOM     17  H   UNL     1       6.792   4.778  14.312  0.00  0.00    +0.000 HD
ENDBRANCH   8  15
BRANCH   9  18
ATOM     18  O   UNL     1       5.272   7.142  15.210  0.00  0.00    +0.000 OA
ATOM     19  H   UNL     1       5.767   6.698  14.500  0.00  0.00    +0.000 HD
ENDBRANCH   9  18
TORSDOF 3
ENDMDL
MODEL 4
REMARK VINA RESULT:      -6.0      3.532      5.580
REMARK  Name = 
REMARK  4 active torsions:
REMARK  status: ('A' for Active; 'I' for Inactive)
REMARK    1  A    between atoms: C_1  and  C_2
REMARK    2  A    between atoms: C_6  and  N_7
REMARK    3  A    between atoms: C_9  and  N_10
REMARK    4  A    between atoms: C_11  and  O_12
REMARK                            x       y       z     vdW  Elec       q    Type
REMARK                         _______ _______ _______ _____ _____    ______ ____
ROOT
ATOM      1  C   UNL     1       2.856   8.095  17.833  0.00  0.00    +0.000 C 
ATOM      2  C   UNL     1       2.694   6.841  18.634  0.00  0.00    +0.000 A 
ATOM      3  C   UNL     1       2.162   6.874  19.909  0.00  0.00    +0.000 A 
ATOM      4  C   UNL     1       2.036   5.676  20.604  0.00  0.00    +0.000 A 
ATOM      5  C   UNL     1       2.438   4.453  20.027  0.00  0.00    +0.000 A 
ATOM      6  C   UNL     1       2.342   3.201  20.702  0.00  0.00    +0.000 A 
ATOM      7  C   UNL     1       2.902   2.057  20.117  0.00  0.00    +0.000 A 
ATOM      8  C   UNL     1       3.382   2.085  18.814  0.00  0.00    +0.000 A 
ATOM      9  C   UNL     1       3.438   3.324  18.155  0.00  0.00    +0.000 A 
ATOM     10  C   UNL     1       2.976   4.517  18.721  0.00  0.00    +0.000 A 
ATOM     11  N   UNL     1       3.086   5.689  18.047  0.00  0.00    +0.000 NA
ENDROOT
BRANCH   6  12
ATOM     12  N   UNL     1       1.900   3.106  22.041  0.00  0.00    +0.000 N 
ATOM     13  H   UNL     1       1.544   2.188  22.285  0.00  0.00    +0.000 HD
ATOM     14  H   UNL     1       2.593   3.417  22.716  0.00  0.00    +0.000 HD
ENDBRANCH   6  12
BRANCH   8  15
ATOM     15  N   UNL     1       3.983   0.943  18.241  0.00  0.00    +0.000 N 
ATOM     16  H   UNL     1       3.862   0.109  18.811  0.00  0.00    +0.000 HD
ATOM     17  H   UNL     1       3.643   0.775  17.295  0.00  0.00    +0.000 HD
ENDBRANCH   8  15
BRANCH   9  18
ATOM     18  O   UNL     1       4.042   3.346  16.911  0.00  0.00    +0.000 OA
ATOM     19  H   UNL     1       4.079   4.289  16.675  0.00  0.00    +0.000 HD
ENDBRANCH   9  18
TORSDOF 3
ENDMDL
MODEL 5
REMARK VINA RESULT:      -6.0      2.690      4.526
REMARK  Name = 
REMARK  4 active torsions:
REMARK  status: ('A' for Active; 'I' for Inactive)
REMARK    1  A    between atoms: C_1  and  C_2
REMARK    2  A    between atoms: C_6  and  N_7
REMARK    3  A    between atoms: C_9  and  N_10
REMARK    4  A    between atoms: C_11  and  O_12
REMARK                            x       y       z     vdW  Elec       q    Type
REMARK                         _______ _______ _______ _____ _____    ______ ____
ROOT
ATOM      1  C   UNL     1       6.180   4.783  14.949  0.00  0.00    +0.000 C 
ATOM      2  C   UNL     1       5.306   5.134  16.114  0.00  0.00    +0.000 A 
ATOM      3  C   UNL     1       4.885   6.434  16.322  0.00  0.00    +0.000 A 
ATOM      4  C   UNL     1       4.074   6.697  17.420  0.00  0.00    +0.000 A 
ATOM      5  C   UNL     1       3.686   5.667  18.303  0.00  0.00    +0.000 A 
ATOM      6  C   UNL     1       2.868   5.888  19.450  0.00  0.00    +0.000 A 
ATOM      7  C   UNL     1       2.654   4.841  20.356  0.00  0.00    +0.000 A 
ATOM      8  C   UNL     1       3.069   3.548  20.063  0.00  0.00    +0.000 A 
ATOM      9  C   UNL     1       3.847   3.347  18.911  0.00  0.00    +0.000 A 
ATOM     10  C   UNL     1       4.169   4.371  18.014  0.00  0.00    +0.000 A 
ATOM     11  N   UNL     1       4.951   4.121  16.934  0.00  0.00    +0.000 NA
ENDROOT
BRANCH   6  12
ATOM     12  N   UNL     1       2.444   7.182  19.828  0.00  0.00    +0.000 N 
ATOM     13  H   UNL     1       2.023   7.707  19.069  0.00  0.00    +0.000 HD
ATOM     14  H   UNL     1       1.843   7.185  20.647  0.00  0.00    +0.000 HD
ENDBRANCH   6  12
BRANCH   8  15
ATOM     15  N   UNL     1       2.889   2.503  20.995  0.00  0.00    +0.000 N 
ATOM     16  H   UNL     1       3.569   2.531  21.751  0.00  0.00    +0.000 HD
ATOM     17  H   UNL     1       1.942   2.497  21.373  0.00  0.00    +0.000 HD
ENDBRANCH   8  15
BRANCH   9  18
ATOM     18  O   UNL     1       4.357   2.078  18.713  0.00  0.00    +0.000 OA
ATOM     19  H   UNL     1       4.781   1.851  19.559  0.00  0.00    +0.000 HD
ENDBRANCH   9  18
TORSDOF 3
ENDMDL
MODEL 6
REMARK VINA RESULT:      -6.0      2.825      3.568
REMARK  Name = 
REMARK  4 active torsions:
REMARK  status: ('A' for Active; 'I' for Inactive)
REMARK    1  A    between atoms: C_1  and  C_2
REMARK    2  A    between atoms: C_6  and  N_7
REMARK    3  A    between atoms: C_9  and  N_10
REMARK    4  A    between atoms: C_11  and  O_12
REMARK                            x       y       z     vdW  Elec       q    Type
REMARK                         _______ _______ _______ _____ _____    ______ ____
ROOT
ATOM      1  C   UNL     1       1.458   2.604  21.577  0.00  0.00    +0.000 C 
ATOM      2  C   UNL     1       2.019   3.634  20.646  0.00  0.00    +0.000 A 
ATOM      3  C   UNL     1       1.682   4.968  20.775  0.00  0.00    +0.000 A 
ATOM      4  C   UNL     1       2.237   5.878  19.880  0.00  0.00    +0.000 A 
ATOM      5  C   UNL     1       3.122   5.456  18.866  0.00  0.00    +0.000 A 
ATOM      6  C   UNL     1       3.705   6.346  17.918  0.00  0.00    +0.000 A 
ATOM      7  C   UNL     1       4.453   5.826  16.853  0.00  0.00    +0.000 A 
ATOM      8  C   UNL     1       4.790   4.479  16.809  0.00  0.00    +0.000 A 
ATOM      9  C   UNL     1       4.231   3.624  17.772  0.00  0.00    +0.000 A 
ATOM     10  C   UNL     1       3.404   4.072  18.809  0.00  0.00    +0.000 A 
ATOM     11  N   UNL     1       2.867   3.193  19.692  0.00  0.00    +0.000 NA
ENDROOT
BRANCH   6  12
ATOM     12  N   UNL     1       3.375   7.720  17.881  0.00  0.00    +0.000 N 
ATOM     13  H   UNL     1       3.025   8.028  16.980  0.00  0.00    +0.000 HD
ATOM     14  H   UNL     1       2.749   8.003  18.629  0.00  0.00    +0.000 HD
ENDBRANCH   6  12
BRANCH   8  15
ATOM     15  N   UNL     1       5.508   3.950  15.714  0.00  0.00    +0.000 N 
ATOM     16  H   UNL     1       6.263   3.331  16.003  0.00  0.00    +0.000 HD
ATOM     17  H   UNL     1       4.892   3.472  15.058  0.00  0.00    +0.000 HD
ENDBRANCH   8  15
BRANCH   9  18
ATOM     18  O   UNL     1       4.475   2.272  17.628  0.00  0.00    +0.000 OA
ATOM     19  H   UNL     1       4.203   1.883  18.477  0.00  0.00    +0.000 HD
ENDBRANCH   9  18
TORSDOF 3
ENDMDL
MODEL 7
REMARK VINA RESULT:      -5.9      2.815      5.062
REMARK  Name = 
REMARK  4 active torsions:
REMARK  status: ('A' for Active; 'I' for Inactive)
REMARK    1  A    between atoms: C_1  and  C_2
REMARK    2  A    between atoms: C_6  and  N_7
REMARK    3  A    between atoms: C_9  and  N_10
REMARK    4  A    between atoms: C_11  and  O_12
REMARK                            x       y       z     vdW  Elec       q    Type
REMARK                         _______ _______ _______ _____ _____    ______ ____
ROOT
ATOM      1  C   UNL     1       4.445   7.356  17.038  0.00  0.00    +0.000 C 
ATOM      2  C   UNL     1       4.260   5.943  17.500  0.00  0.00    +0.000 A 
ATOM      3  C   UNL     1       4.657   4.879  16.713  0.00  0.00    +0.000 A 
ATOM      4  C   UNL     1       4.459   3.590  17.197  0.00  0.00    +0.000 A 
ATOM      5  C   UNL     1       3.872   3.368  18.460  0.00  0.00    +0.000 A 
ATOM      6  C   UNL     1       3.635   2.068  18.994  0.00  0.00    +0.000 A 
ATOM      7  C   UNL     1       2.912   1.932  20.187  0.00  0.00    +0.000 A 
ATOM      8  C   UNL     1       2.582   3.045  20.950  0.00  0.00    +0.000 A 
ATOM      9  C   UNL     1       2.852   4.316  20.419  0.00  0.00    +0.000 A 
ATOM     10  C   UNL     1       3.493   4.516  19.192  0.00  0.00    +0.000 A 
ATOM     11  N   UNL     1       3.699   5.770  18.716  0.00  0.00    +0.000 NA
ENDROOT
BRANCH   6  12
ATOM     12  N   UNL     1       3.911   0.894  18.255  0.00  0.00    +0.000 N 
ATOM     13  H   UNL     1       3.563   0.049  18.694  0.00  0.00    +0.000 HD
ATOM     14  H   UNL     1       3.609   0.950  17.286  0.00  0.00    +0.000 HD
ENDBRANCH   6  12
BRANCH   8  15
ATOM     15  N   UNL     1       1.817   2.910  22.129  0.00  0.00    +0.000 N 
ATOM     16  H   UNL     1       2.108   2.117  22.697  0.00  0.00    +0.000 HD
ATOM     17  H   UNL     1       1.830   3.765  22.685  0.00  0.00    +0.000 HD
ENDBRANCH   8  15
BRANCH   9  18
ATOM     18  O   UNL     1       2.395   5.406  21.138  0.00  0.00    +0.000 OA
ATOM     19  H   UNL     1       3.162   5.689  21.665  0.00  0.00    +0.000 HD
ENDBRANCH   9  18
TORSDOF 3
ENDMDL
MODEL 8
REMARK VINA RESULT:      -5.9      2.492      2.819
REMARK  Name = 
REMARK  4 active torsions:
REMARK  status: ('A' for Active; 'I' for Inactive)
REMARK    1  A    between atoms: C_1  and  C_2
REMARK    2  A    between atoms: C_6  and  N_7
REMARK    3  A    between atoms: C_9  and  N_10
REMARK    4  A    between atoms: C_11  and  O_12
REMARK                            x       y       z     vdW  Elec       q    Type
REMARK                         _______ _______ _______ _____ _____    ______ ____
ROOT
ATOM      1  C   UNL     1       1.839   1.685  18.609  0.00  0.00    +0.000 C 
ATOM      2  C   UNL     1       2.390   3.043  18.301  0.00  0.00    +0.000 A 
ATOM      3  C   UNL     1       1.704   4.188  18.661  0.00  0.00    +0.000 A 
ATOM      4  C   UNL     1       2.267   5.421  18.348  0.00  0.00    +0.000 A 
ATOM      5  C   UNL     1       3.507   5.508  17.682  0.00  0.00    +0.000 A 
ATOM      6  C   UNL     1       4.119   6.745  17.328  0.00  0.00    +0.000 A 
ATOM      7  C   UNL     1       5.275   6.742  16.536  0.00  0.00    +0.000 A 
ATOM      8  C   UNL     1       5.938   5.556  16.247  0.00  0.00    +0.000 A 
ATOM      9  C   UNL     1       5.334   4.349  16.633  0.00  0.00    +0.000 A 
ATOM     10  C   UNL     1       4.133   4.285  17.349  0.00  0.00    +0.000 A 
ATOM     11  N   UNL     1       3.582   3.087  17.667  0.00  0.00    +0.000 NA
ENDROOT
BRANCH   6  12
ATOM     12  N   UNL     1       3.482   7.987  17.557  0.00  0.00    +0.000 N 
ATOM     13  H   UNL     1       3.231   8.139  18.528  0.00  0.00    +0.000 HD
ATOM     14  H   UNL     1       4.001   8.779  17.188  0.00  0.00    +0.000 HD
ENDBRANCH   6  12
BRANCH   8  15
ATOM     15  N   UNL     1       7.079   5.550  15.415  0.00  0.00    +0.000 N 
ATOM     16  H   UNL     1       6.894   5.941  14.493  0.00  0.00    +0.000 HD
ATOM     17  H   UNL     1       7.863   6.033  15.851  0.00  0.00    +0.000 HD
ENDBRANCH   8  15
BRANCH   9  18
ATOM     18  O   UNL     1       5.945   3.181  16.218  0.00  0.00    +0.000 OA
ATOM     19  H   UNL     1       5.262   2.496  16.326  0.00  0.00    +0.000 HD
ENDBRANCH   9  18
TORSDOF 3
ENDMDL
MODEL 9
REMARK VINA RESULT:      -5.9      2.603      2.916
REMARK  Name = 
REMARK  4 active torsions:
REMARK  status: ('A' for Active; 'I' for Inactive)
REMARK    1  A    between atoms: C_1  and  C_2
REMARK    2  A    between atoms: C_6  and  N_7
REMARK    3  A    between atoms: C_9  and  N_10
REMARK    4  A    between atoms: C_11  and  O_12
REMARK                            x       y       z     vdW  Elec       q    Type
REMARK                         _______ _______ _______ _____ _____    ______ ____
ROOT
ATOM      1  C   UNL     1       2.193   2.814  21.624  0.00  0.00    +0.000 C 
ATOM      2  C   UNL     1       2.497   3.950  20.697  0.00  0.00    +0.000 A 
ATOM      3  C   UNL     1       1.635   5.023  20.579  0.00  0.00    +0.000 A 
ATOM      4  C   UNL     1       1.972   6.049  19.702  0.00  0.00    +0.000 A 
ATOM      5  C   UNL     1       3.165   6.001  18.950  0.00  0.00    +0.000 A 
ATOM      6  C   UNL     1       3.548   7.019  18.029  0.00  0.00    +0.000 A 
ATOM      7  C   UNL     1       4.670   6.824  17.212  0.00  0.00    +0.000 A 
ATOM      8  C   UNL     1       5.519   5.742  17.414  0.00  0.00    +0.000 A 
ATOM      9  C   UNL     1       5.138   4.767  18.349  0.00  0.00    +0.000 A 
ATOM     10  C   UNL     1       3.982   4.862  19.132  0.00  0.00    +0.000 A 
ATOM     11  N   UNL     1       3.650   3.872  19.997  0.00  0.00    +0.000 NA
ENDROOT
BRANCH   6  12
ATOM     12  N   UNL     1       2.714   8.126  17.747  0.00  0.00    +0.000 N 
ATOM     13  H   UNL     1       3.152   9.020  17.938  0.00  0.00    +0.000 HD
ATOM     14  H   UNL     1       2.324   8.106  16.809  0.00  0.00    +0.000 HD
ENDBRANCH   6  12
BRANCH   8  15
ATOM     15  N   UNL     1       6.625   5.524  16.564  0.00  0.00    +0.000 N 
ATOM     16  H   UNL     1       7.324   4.911  16.979  0.00  0.00    +0.000 HD
ATOM     17  H   UNL     1       6.335   5.164  15.656  0.00  0.00    +0.000 HD
ENDBRANCH   8  15
BRANCH   9  18
ATOM     18  O   UNL     1       5.930   3.637  18.435  0.00  0.00    +0.000 OA
ATOM     19  H   UNL     1       5.907   3.255  17.541  0.00  0.00    +0.000 HD
ENDBRANCH   9  18
TORSDOF 3
ENDMDL
