MODEL 1
REMARK VINA RESULT:      -8.2      0.000      0.000
REMARK  Name = 
REMARK  6 active torsions:
REMARK  status: ('A' for Active; 'I' for Inactive)
REMARK    1  A    between atoms: C_1  and  C_2
REMARK    2  A    between atoms: C_5  and  C_6
REMARK    3  A    between atoms: C_9  and  C_10
REMARK    4  A    between atoms: C_16  and  C_17
REMARK    5  A    between atoms: C_19  and  C_20
REMARK    6  A    between atoms: C_23  and  O_24
REMARK                            x       y       z     vdW  Elec       q    Type
REMARK                         _______ _______ _______ _____ _____    ______ ____
ROOT
ATOM      1  C   UNL     1       1.180   8.812  19.387  0.00  0.00    +0.000 A 
ATOM      2  N   UNL     1       1.996   8.853  18.315  0.00  0.00    +0.000 NA
ATOM      3  C   UNL     1       2.902   7.865  18.209  0.00  0.00    +0.000 A 
ATOM      4  C   UNL     1       2.998   6.803  19.077  0.00  0.00    +0.000 A 
ATOM      5  C   UNL     1       2.154   6.891  20.168  0.00  0.00    +0.000 A 
ATOM      6  N   UNL     1       1.235   7.859  20.335  0.00  0.00    +0.000 NA
ENDROOT
BRANCH   1  11
ATOM      7  C   UNL     1      -2.725  13.046  20.107  0.00  0.00    +0.000 C 
ATOM      8  C   UNL     1      -1.689  11.979  19.929  0.00  0.00    +0.000 A 
ATOM      9  C   UNL     1      -0.839  11.612  20.971  0.00  0.00    +0.000 A 
ATOM     10  C   UNL     1       0.105  10.596  20.788  0.00  0.00    +0.000 A 
ATOM     11  C   UNL     1       0.232   9.920  19.562  0.00  0.00    +0.000 A 
ATOM     12  C   UNL     1      -0.621  10.320  18.514  0.00  0.00    +0.000 A 
ATOM     13  C   UNL     1      -1.567  11.336  18.696  0.00  0.00    +0.000 A 
ENDBRANCH   1  11
BRANCH   4  14
ATOM     14  C   UNL     1       3.949   5.687  18.909  0.00  0.00    +0.000 C 
ATOM     15  O   UNL     1       5.020   5.777  19.513  0.00  0.00    +0.000 OA
ATOM     16  N   UNL     1       3.615   4.577  18.150  0.00  0.00    +0.000 N 
ATOM     17  C   UNL     1       2.352   4.243  17.515  0.00  0.00    +0.000 C 
ATOM     18  C   UNL     1       2.313   2.733  17.523  0.00  0.00    +0.000 C 
ATOM     19  C   UNL     1       3.774   2.306  17.422  0.00  0.00    +0.000 C 
ATOM     20  C   UNL     1       4.599   3.525  17.876  0.00  0.00    +0.000 C 
BRANCH  20  21
ATOM     21  C   UNL     1       5.557   3.987  16.810  0.00  0.00    +0.000 A 
ATOM     22  C   UNL     1       5.322   4.111  15.420  0.00  0.00    +0.000 A 
ATOM     23  C   UNL     1       6.522   4.535  14.906  0.00  0.00    +0.000 A 
ATOM     24  C   UNL     1       7.022   4.821  13.551  0.00  0.00    +0.000 C 
ATOM     25  O   UNL     1       7.413   4.692  15.920  0.00  0.00    +0.000 OA
ATOM     26  N   UNL     1       6.812   4.356  17.117  0.00  0.00    +0.000 NA
ENDBRANCH  20  21
ENDBRANCH   4  14
BRANCH   5  27
ATOM     27  O   UNL     1       2.198   6.001  21.210  0.00  0.00    +0.000 OA
ATOM     28  H   UNL     1       2.002   5.114  20.844  0.00  0.00    +0.000 HD
ENDBRANCH   5  27
TORSDOF 4
ENDMDL
MODEL 2
REMARK VINA RESULT:      -8.2      0.737      1.288
REMARK  Name = 
REMARK  6 active torsions:
REMARK  status: ('A' for Active; 'I' for Inactive)
REMARK    1  A    between atoms: C_1  and  C_2
REMARK    2  A    between atoms: C_5  and  C_6
REMARK    3  A    between atoms: C_9  and  C_10
REMARK    4  A    between atoms: C_16  and  C_17
REMARK    5  A    between atoms: C_19  and  C_20
REMARK    6  A    between atoms: C_23  and  O_24
REMARK                            x       y       z     vdW  Elec       q    Type
REMARK                         _______ _______ _______ _____ _____    ______ ____
ROOT
ATOM      1  C   UNL     1       1.148   8.858  19.715  0.00  0.00    +0.000 A 
ATOM      2  N   UNL     1       1.187   7.922  20.683  0.00  0.00    +0.000 NA
ATOM      3  C   UNL     1       2.008   6.877  20.478  0.00  0.00    +0.000 A 
ATOM      4  C   UNL     1       2.841   6.745  19.391  0.00  0.00    +0.000 A 
ATOM      5  C   UNL     1       2.677   7.730  18.436  0.00  0.00    +0.000 A 
ATOM      6  N   UNL     1       1.865   8.793  18.579  0.00  0.00    +0.000 NA
ENDROOT
BRANCH   1  11
ATOM      7  C   UNL     1      -2.737  13.112  20.428  0.00  0.00    +0.000 C 
ATOM      8  C   UNL     1      -1.706  12.041  20.249  0.00  0.00    +0.000 A 
ATOM      9  C   UNL     1      -0.805  11.723  21.265  0.00  0.00    +0.000 A 
ATOM     10  C   UNL     1       0.133  10.702  21.083  0.00  0.00    +0.000 A 
ATOM     11  C   UNL     1       0.204   9.971  19.884  0.00  0.00    +0.000 A 
ATOM     12  C   UNL     1      -0.701  10.320  18.862  0.00  0.00    +0.000 A 
ATOM     13  C   UNL     1      -1.641  11.341  19.042  0.00  0.00    +0.000 A 
ENDBRANCH   1  11
BRANCH   4  14
ATOM     14  C   UNL     1       3.790   5.629  19.214  0.00  0.00    +0.000 C 
ATOM     15  O   UNL     1       4.852   5.702  19.837  0.00  0.00    +0.000 OA
ATOM     16  N   UNL     1       3.465   4.538  18.425  0.00  0.00    +0.000 N 
ATOM     17  C   UNL     1       2.210   4.223  17.763  0.00  0.00    +0.000 C 
ATOM     18  C   UNL     1       2.166   2.713  17.737  0.00  0.00    +0.000 C 
ATOM     19  C   UNL     1       3.627   2.283  17.650  0.00  0.00    +0.000 C 
ATOM     20  C   UNL     1       4.449   3.488  18.144  0.00  0.00    +0.000 C 
BRANCH  20  21
ATOM     21  C   UNL     1       5.426   3.969  17.104  0.00  0.00    +0.000 A 
ATOM     22  C   UNL     1       5.222   4.100  15.710  0.00  0.00    +0.000 A 
ATOM     23  C   UNL     1       6.428   4.543  15.227  0.00  0.00    +0.000 A 
ATOM     24  C   UNL     1       6.957   4.845  13.886  0.00  0.00    +0.000 C 
ATOM     25  O   UNL     1       7.293   4.704  16.263  0.00  0.00    +0.000 OA
ATOM     26  N   UNL     1       6.669   4.352  17.443  0.00  0.00    +0.000 NA
ENDBRANCH  20  21
ENDBRANCH   4  14
BRANCH   5  27
ATOM     27  O   UNL     1       3.318   7.698  17.224  0.00  0.00    +0.000 OA
ATOM     28  H   UNL     1       3.984   6.981  17.266  0.00  0.00    +0.000 HD
ENDBRANCH   5  27
TORSDOF 4
ENDMDL
MODEL 3
REMARK VINA RESULT:      -8.0      1.315      1.930
REMARK  Name = 
REMARK  6 active torsions:
REMARK  status: ('A' for Active; 'I' for Inactive)
REMARK    1  A    between atoms: C_1  and  C_2
REMARK    2  A    between atoms: C_5  and  C_6
REMARK    3  A    between atoms: C_9  and  C_10
REMARK    4  A    between atoms: C_16  and  C_17
REMARK    5  A    between atoms: C_19  and  C_20
REMARK    6  A    between atoms: C_23  and  O_24
REMARK                            x       y       z     vdW  Elec       q    Type
REMARK                         _______ _______ _______ _____ _____    ______ ____
ROOT
ATOM      1  C   UNL     1       0.896   8.929  20.366  0.00  0.00    +0.000 A 
ATOM      2  N   UNL     1       1.054   7.878  21.193  0.00  0.00    +0.000 NA
ATOM      3  C   UNL     1       1.858   6.889  20.765  0.00  0.00    +0.000 A 
ATOM      4  C   UNL     1       2.566   6.920  19.585  0.00  0.00    +0.000 A 
ATOM      5  C   UNL     1       2.285   8.015  18.791  0.00  0.00    +0.000 A 
ATOM      6  N   UNL     1       1.482   9.030  19.160  0.00  0.00    +0.000 NA
ENDROOT
BRANCH   1  11
ATOM      7  C   UNL     1      -2.616  13.233  22.051  0.00  0.00    +0.000 C 
ATOM      8  C   UNL     1      -1.740  12.106  21.598  0.00  0.00    +0.000 A 
ATOM      9  C   UNL     1      -1.510  11.866  20.244  0.00  0.00    +0.000 A 
ATOM     10  C   UNL     1      -0.669  10.822  19.845  0.00  0.00    +0.000 A 
ATOM     11  C   UNL     1      -0.036   9.986  20.782  0.00  0.00    +0.000 A 
ATOM     12  C   UNL     1      -0.297  10.232  22.144  0.00  0.00    +0.000 A 
ATOM     13  C   UNL     1      -1.138  11.276  22.545  0.00  0.00    +0.000 A 
ENDBRANCH   1  11
BRANCH   4  14
ATOM     14  C   UNL     1       3.502   5.861  19.161  0.00  0.00    +0.000 C 
ATOM     15  O   UNL     1       4.654   5.934  19.595  0.00  0.00    +0.000 OA
ATOM     16  N   UNL     1       3.076   4.816  18.357  0.00  0.00    +0.000 N 
ATOM     17  C   UNL     1       1.735   4.497  17.898  0.00  0.00    +0.000 C 
ATOM     18  C   UNL     1       1.731   2.992  17.763  0.00  0.00    +0.000 C 
ATOM     19  C   UNL     1       3.166   2.632  17.392  0.00  0.00    +0.000 C 
ATOM     20  C   UNL     1       4.026   3.832  17.829  0.00  0.00    +0.000 C 
BRANCH  20  21
ATOM     21  C   UNL     1       4.792   4.428  16.677  0.00  0.00    +0.000 A 
ATOM     22  C   UNL     1       5.673   3.773  15.785  0.00  0.00    +0.000 A 
ATOM     23  C   UNL     1       6.123   4.771  14.955  0.00  0.00    +0.000 A 
ATOM     24  C   UNL     1       7.083   4.833  13.840  0.00  0.00    +0.000 C 
ATOM     25  O   UNL     1       5.526   5.942  15.298  0.00  0.00    +0.000 OA
ATOM     26  N   UNL     1       4.685   5.733  16.374  0.00  0.00    +0.000 NA
ENDBRANCH  20  21
ENDBRANCH   4  14
BRANCH   5  27
ATOM     27  O   UNL     1       2.786   8.155  17.522  0.00  0.00    +0.000 OA
ATOM     28  H   UNL     1       3.215   9.034  17.474  0.00  0.00    +0.000 HD
ENDBRANCH   5  27
TORSDOF 4
ENDMDL
MODEL 4
REMARK VINA RESULT:      -7.7      2.906      9.140
REMARK  Name = 
REMARK  6 active torsions:
REMARK  status: ('A' for Active; 'I' for Inactive)
REMARK    1  A    between atoms: C_1  and  C_2
REMARK    2  A    between atoms: C_5  and  C_6
REMARK    3  A    between atoms: C_9  and  C_10
REMARK    4  A    between atoms: C_16  and  C_17
REMARK    5  A    between atoms: C_19  and  C_20
REMARK    6  A    between atoms: C_23  and  O_24
REMARK                            x       y       z     vdW  Elec       q    Type
REMARK                         _______ _______ _______ _____ _____    ______ ____
ROOT
ATOM      1  C   UNL     1       2.857   7.419  18.174  0.00  0.00    +0.000 A 
ATOM      2  N   UNL     1       2.285   8.394  17.441  0.00  0.00    +0.000 NA
ATOM      3  C   UNL     1       1.433   9.210  18.085  0.00  0.00    +0.000 A 
ATOM      4  C   UNL     1       1.168   9.150  19.434  0.00  0.00    +0.000 A 
ATOM      5  C   UNL     1       1.762   8.079  20.074  0.00  0.00    +0.000 A 
ATOM      6  N   UNL     1       2.615   7.223  19.482  0.00  0.00    +0.000 NA
ENDROOT
BRANCH   1  11
ATOM      7  C   UNL     1       6.173   3.645  15.264  0.00  0.00    +0.000 C 
ATOM      8  C   UNL     1       5.349   4.632  16.033  0.00  0.00    +0.000 A 
ATOM      9  C   UNL     1       5.552   6.005  15.901  0.00  0.00    +0.000 A 
ATOM     10  C   UNL     1       4.755   6.908  16.611  0.00  0.00    +0.000 A 
ATOM     11  C   UNL     1       3.735   6.471  17.475  0.00  0.00    +0.000 A 
ATOM     12  C   UNL     1       3.559   5.079  17.611  0.00  0.00    +0.000 A 
ATOM     13  C   UNL     1       4.356   4.174  16.901  0.00  0.00    +0.000 A 
ENDBRANCH   1  11
BRANCH   4  14
ATOM     14  C   UNL     1       0.286  10.097  20.142  0.00  0.00    +0.000 C 
ATOM     15  O   UNL     1      -0.413   9.633  21.045  0.00  0.00    +0.000 OA
ATOM     16  N   UNL     1       0.296  11.447  19.829  0.00  0.00    +0.000 N 
ATOM     17  C   UNL     1       1.164  12.174  18.917  0.00  0.00    +0.000 C 
ATOM     18  C   UNL     1       1.264  13.558  19.514  0.00  0.00    +0.000 C 
ATOM     19  C   UNL     1      -0.074  13.776  20.214  0.00  0.00    +0.000 C 
ATOM     20  C   UNL     1      -0.664  12.372  20.439  0.00  0.00    +0.000 C 
BRANCH  20  21
ATOM     21  C   UNL     1      -2.012  12.213  19.786  0.00  0.00    +0.000 A 
ATOM     22  C   UNL     1      -2.307  11.651  18.521  0.00  0.00    +0.000 A 
ATOM     23  C   UNL     1      -3.668  11.782  18.398  0.00  0.00    +0.000 A 
ATOM     24  C   UNL     1      -4.645  11.466  17.342  0.00  0.00    +0.000 C 
ATOM     25  O   UNL     1      -4.167  12.351  19.527  0.00  0.00    +0.000 OA
ATOM     26  N   UNL     1      -3.135  12.618  20.403  0.00  0.00    +0.000 NA
ENDBRANCH  20  21
ENDBRANCH   4  14
BRANCH   5  27
ATOM     27  O   UNL     1       1.510   7.771  21.386  0.00  0.00    +0.000 OA
ATOM     28  H   UNL     1       2.069   8.357  21.936  0.00  0.00    +0.000 HD
ENDBRANCH   5  27
TORSDOF 4
ENDMDL
MODEL 5
REMARK VINA RESULT:      -7.4      3.147      9.110
REMARK  Name = 
REMARK  6 active torsions:
REMARK  status: ('A' for Active; 'I' for Inactive)
REMARK    1  A    between atoms: C_1  and  C_2
REMARK    2  A    between atoms: C_5  and  C_6
REMARK    3  A    between atoms: C_9  and  C_10
REMARK    4  A    between atoms: C_16  and  C_17
REMARK    5  A    between atoms: C_19  and  C_20
REMARK    6  A    between atoms: C_23  and  O_24
REMARK                            x       y       z     vdW  Elec       q    Type
REMARK                         _______ _______ _______ _____ _____    ______ ____
ROOT
ATOM      1  C   UNL     1       2.905   7.466  18.037  0.00  0.00    +0.000 A 
ATOM      2  N   UNL     1       2.328   7.145  19.211  0.00  0.00    +0.000 NA
ATOM      3  C   UNL     1       1.545   8.082  19.774  0.00  0.00    +0.000 A 
ATOM      4  C   UNL     1       1.252   9.297  19.199  0.00  0.00    +0.000 A 
ATOM      5  C   UNL     1       1.942   9.544  18.027  0.00  0.00    +0.000 A 
ATOM      6  N   UNL     1       2.746   8.651  17.422  0.00  0.00    +0.000 NA
ENDROOT
BRANCH   1  11
ATOM      7  C   UNL     1       6.399   3.578  15.512  0.00  0.00    +0.000 C 
ATOM      8  C   UNL     1       5.527   4.592  16.186  0.00  0.00    +0.000 A 
ATOM      9  C   UNL     1       5.823   5.954  16.133  0.00  0.00    +0.000 A 
ATOM     10  C   UNL     1       4.981   6.884  16.750  0.00  0.00    +0.000 A 
ATOM     11  C   UNL     1       3.823   6.486  17.441  0.00  0.00    +0.000 A 
ATOM     12  C   UNL     1       3.552   5.104  17.502  0.00  0.00    +0.000 A 
ATOM     13  C   UNL     1       4.393   4.172  16.884  0.00  0.00    +0.000 A 
ENDBRANCH   1  11
BRANCH   4  14
ATOM     14  C   UNL     1       0.333  10.287  19.793  0.00  0.00    +0.000 C 
ATOM     15  O   UNL     1      -0.284  11.010  19.007  0.00  0.00    +0.000 OA
ATOM     16  N   UNL     1       0.146  10.351  21.164  0.00  0.00    +0.000 N 
ATOM     17  C   UNL     1       0.664   9.479  22.205  0.00  0.00    +0.000 C 
ATOM     18  C   UNL     1      -0.389   9.515  23.286  0.00  0.00    +0.000 C 
ATOM     19  C   UNL     1      -1.003  10.908  23.183  0.00  0.00    +0.000 C 
ATOM     20  C   UNL     1      -0.666  11.412  21.768  0.00  0.00    +0.000 C 
BRANCH  20  21
ATOM     21  C   UNL     1       0.114  12.700  21.797  0.00  0.00    +0.000 A 
ATOM     22  C   UNL     1      -0.340  13.985  22.175  0.00  0.00    +0.000 A 
ATOM     23  C   UNL     1       0.749  14.801  21.989  0.00  0.00    +0.000 A 
ATOM     24  C   UNL     1       0.994  16.246  22.131  0.00  0.00    +0.000 C 
ATOM     25  O   UNL     1       1.801  14.053  21.563  0.00  0.00    +0.000 OA
ATOM     26  N   UNL     1       1.411  12.733  21.447  0.00  0.00    +0.000 NA
ENDBRANCH  20  21
ENDBRANCH   4  14
BRANCH   5  27
ATOM     27  O   UNL     1       1.888  10.751  17.379  0.00  0.00    +0.000 OA
ATOM     28  H   UNL     1       2.811  11.045  17.233  0.00  0.00    +0.000 HD
ENDBRANCH   5  27
TORSDOF 4
ENDMDL
MODEL 6
REMARK VINA RESULT:      -7.4      0.896      1.304
REMARK  Name = 
REMARK  6 active torsions:
REMARK  status: ('A' for Active; 'I' for Inactive)
REMARK    1  A    between atoms: C_1  and  C_2
REMARK    2  A    between atoms: C_5  and  C_6
REMARK    3  A    between atoms: C_9  and  C_10
REMARK    4  A    between atoms: C_16  and  C_17
REMARK    5  A    between atoms: C_19  and  C_20
REMARK    6  A    between atoms: C_23  and  O_24
REMARK                            x       y       z     vdW  Elec       q    Type
REMARK                         _______ _______ _______ _____ _____    ______ ____
ROOT
ATOM      1  C   UNL     1       0.966   8.897  19.947  0.00  0.00    +0.000 A 
ATOM      2  N   UNL     1       1.678   9.071  18.818  0.00  0.00    +0.000 NA
ATOM      3  C   UNL     1       2.573   8.114  18.516  0.00  0.00    +0.000 A 
ATOM      4  C   UNL     1       2.752   6.961  19.245  0.00  0.00    +0.000 A 
ATOM      5  C   UNL     1       2.013   6.914  20.411  0.00  0.00    +0.000 A 
ATOM      6  N   UNL     1       1.110   7.844  20.771  0.00  0.00    +0.000 NA
ENDROOT
BRANCH   1  11
ATOM      7  C   UNL     1      -2.552  13.260  21.461  0.00  0.00    +0.000 C 
ATOM      8  C   UNL     1      -1.676  12.113  21.061  0.00  0.00    +0.000 A 
ATOM      9  C   UNL     1      -1.667  11.629  19.754  0.00  0.00    +0.000 A 
ATOM     10  C   UNL     1      -0.822  10.572  19.398  0.00  0.00    +0.000 A 
ATOM     11  C   UNL     1       0.035   9.966  20.334  0.00  0.00    +0.000 A 
ATOM     12  C   UNL     1      -0.004  10.455  21.655  0.00  0.00    +0.000 A 
ATOM     13  C   UNL     1      -0.848  11.513  22.012  0.00  0.00    +0.000 A 
ENDBRANCH   1  11
BRANCH   4  14
ATOM     14  C   UNL     1       3.687   5.884  18.864  0.00  0.00    +0.000 C 
ATOM     15  O   UNL     1       4.843   5.982  19.280  0.00  0.00    +0.000 OA
ATOM     16  N   UNL     1       3.254   4.798  18.120  0.00  0.00    +0.000 N 
ATOM     17  C   UNL     1       1.909   4.452  17.693  0.00  0.00    +0.000 C 
ATOM     18  C   UNL     1       1.908   2.943  17.635  0.00  0.00    +0.000 C 
ATOM     19  C   UNL     1       3.340   2.568  17.266  0.00  0.00    +0.000 C 
ATOM     20  C   UNL     1       4.202   3.791  17.631  0.00  0.00    +0.000 C 
BRANCH  20  21
ATOM     21  C   UNL     1       4.952   4.329  16.442  0.00  0.00    +0.000 A 
ATOM     22  C   UNL     1       5.747   3.613  15.516  0.00  0.00    +0.000 A 
ATOM     23  C   UNL     1       6.223   4.574  14.659  0.00  0.00    +0.000 A 
ATOM     24  C   UNL     1       7.134   4.567  13.501  0.00  0.00    +0.000 C 
ATOM     25  O   UNL     1       5.721   5.784  15.019  0.00  0.00    +0.000 OA
ATOM     26  N   UNL     1       4.918   5.636  16.133  0.00  0.00    +0.000 NA
ENDBRANCH  20  21
ENDBRANCH   4  14
BRANCH   5  27
ATOM     27  O   UNL     1       2.155   5.911  21.336  0.00  0.00    +0.000 OA
ATOM     28  H   UNL     1       1.672   6.187  22.141  0.00  0.00    +0.000 HD
ENDBRANCH   5  27
TORSDOF 4
ENDMDL
MODEL 7
REMARK VINA RESULT:      -7.4      2.672      9.245
REMARK  Name = 
REMARK  6 active torsions:
REMARK  status: ('A' for Active; 'I' for Inactive)
REMARK    1  A    between atoms: C_1  and  C_2
REMARK    2  A    between atoms: C_5  and  C_6
REMARK    3  A    between atoms: C_9  and  C_10
REMARK    4  A    between atoms: C_16  and  C_17
REMARK    5  A    between atoms: C_19  and  C_20
REMARK    6  A    between atoms: C_23  and  O_24
REMARK                            x       y       z     vdW  Elec       q    Type
REMARK                         _______ _______ _______ _____ _____    ______ ____
ROOT
ATOM      1  C   UNL     1       2.789   7.402  18.209  0.00  0.00    +0.000 A 
ATOM      2  N   UNL     1       2.199   8.404  17.529  0.00  0.00    +0.000 NA
ATOM      3  C   UNL     1       1.398   9.221  18.235  0.00  0.00    +0.000 A 
ATOM      4  C   UNL     1       1.203   9.135  19.594  0.00  0.00    +0.000 A 
ATOM      5  C   UNL     1       1.809   8.039  20.179  0.00  0.00    +0.000 A 
ATOM      6  N   UNL     1       2.613   7.181  19.524  0.00  0.00    +0.000 NA
ENDROOT
BRANCH   1  11
ATOM      7  C   UNL     1       6.192   3.681  15.332  0.00  0.00    +0.000 C 
ATOM      8  C   UNL     1       5.283   4.627  16.056  0.00  0.00    +0.000 A 
ATOM      9  C   UNL     1       4.269   4.161  16.892  0.00  0.00    +0.000 A 
ATOM     10  C   UNL     1       3.448   5.064  17.576  0.00  0.00    +0.000 A 
ATOM     11  C   UNL     1       3.611   6.454  17.444  0.00  0.00    +0.000 A 
ATOM     12  C   UNL     1       4.627   6.905  16.579  0.00  0.00    +0.000 A 
ATOM     13  C   UNL     1       5.450   6.003  15.894  0.00  0.00    +0.000 A 
ENDBRANCH   1  11
BRANCH   4  14
ATOM     14  C   UNL     1       0.379  10.082  20.368  0.00  0.00    +0.000 C 
ATOM     15  O   UNL     1      -0.338   9.601  21.249  0.00  0.00    +0.000 OA
ATOM     16  N   UNL     1       0.459  11.446  20.140  0.00  0.00    +0.000 N 
ATOM     17  C   UNL     1       1.358  12.181  19.265  0.00  0.00    +0.000 C 
ATOM     18  C   UNL     1       1.536  13.518  19.945  0.00  0.00    +0.000 C 
ATOM     19  C   UNL     1       0.217  13.763  20.671  0.00  0.00    +0.000 C 
ATOM     20  C   UNL     1      -0.446  12.381  20.815  0.00  0.00    +0.000 C 
BRANCH  20  21
ATOM     21  C   UNL     1      -1.805  12.335  20.167  0.00  0.00    +0.000 A 
ATOM     22  C   UNL     1      -3.048  12.725  20.720  0.00  0.00    +0.000 A 
ATOM     23  C   UNL     1      -3.962  12.450  19.733  0.00  0.00    +0.000 A 
ATOM     24  C   UNL     1      -5.427  12.552  19.624  0.00  0.00    +0.000 C 
ATOM     25  O   UNL     1      -3.312  11.962  18.644  0.00  0.00    +0.000 OA
ATOM     26  N   UNL     1      -1.958  11.894  18.908  0.00  0.00    +0.000 NA
ENDBRANCH  20  21
ENDBRANCH   4  14
BRANCH   5  27
ATOM     27  O   UNL     1       1.620   7.706  21.495  0.00  0.00    +0.000 OA
ATOM     28  H   UNL     1       2.498   7.721  21.928  0.00  0.00    +0.000 HD
ENDBRANCH   5  27
TORSDOF 4
ENDMDL
MODEL 8
REMARK VINA RESULT:      -7.4      3.784     10.286
REMARK  Name = 
REMARK  6 active torsions:
REMARK  status: ('A' for Active; 'I' for Inactive)
REMARK    1  A    between atoms: C_1  and  C_2
REMARK    2  A    between atoms: C_5  and  C_6
REMARK    3  A    between atoms: C_9  and  C_10
REMARK    4  A    between atoms: C_16  and  C_17
REMARK    5  A    between atoms: C_19  and  C_20
REMARK    6  A    between atoms: C_23  and  O_24
REMARK                            x       y       z     vdW  Elec       q    Type
REMARK                         _______ _______ _______ _____ _____    ______ ____
ROOT
ATOM      1  C   UNL     1       1.241   8.827  20.093  0.00  0.00    +0.000 A 
ATOM      2  N   UNL     1       0.312   9.507  19.394  0.00  0.00    +0.000 NA
ATOM      3  C   UNL     1      -0.517  10.294  20.101  0.00  0.00    +0.000 A 
ATOM      4  C   UNL     1      -0.431  10.493  21.459  0.00  0.00    +0.000 A 
ATOM      5  C   UNL     1       0.519   9.704  22.081  0.00  0.00    +0.000 A 
ATOM      6  N   UNL     1       1.369   8.891  21.430  0.00  0.00    +0.000 NA
ENDROOT
BRANCH   1  11
ATOM      7  C   UNL     1       4.499   5.081  17.085  0.00  0.00    +0.000 C 
ATOM      8  C   UNL     1       3.689   6.072  17.862  0.00  0.00    +0.000 A 
ATOM      9  C   UNL     1       3.425   7.346  17.361  0.00  0.00    +0.000 A 
ATOM     10  C   UNL     1       2.646   8.246  18.095  0.00  0.00    +0.000 A 
ATOM     11  C   UNL     1       2.110   7.905  19.349  0.00  0.00    +0.000 A 
ATOM     12  C   UNL     1       2.405   6.621  19.849  0.00  0.00    +0.000 A 
ATOM     13  C   UNL     1       3.184   5.718  19.115  0.00  0.00    +0.000 A 
ENDBRANCH   1  11
BRANCH   4  14
ATOM     14  C   UNL     1      -1.300  11.416  22.212  0.00  0.00    +0.000 C 
ATOM     15  O   UNL     1      -1.666  11.044  23.330  0.00  0.00    +0.000 OA
ATOM     16  N   UNL     1      -1.635  12.658  21.697  0.00  0.00    +0.000 N 
ATOM     17  C   UNL     1      -1.164  13.308  20.485  0.00  0.00    +0.000 C 
ATOM     18  C   UNL     1      -1.213  14.783  20.805  0.00  0.00    +0.000 C 
ATOM     19  C   UNL     1      -2.372  14.929  21.787  0.00  0.00    +0.000 C 
ATOM     20  C   UNL     1      -2.598  13.526  22.381  0.00  0.00    +0.000 C 
BRANCH  20  21
ATOM     21  C   UNL     1      -3.999  13.028  22.137  0.00  0.00    +0.000 A 
ATOM     22  C   UNL     1      -4.702  12.969  20.911  0.00  0.00    +0.000 A 
ATOM     23  C   UNL     1      -5.936  12.472  21.248  0.00  0.00    +0.000 A 
ATOM     24  C   UNL     1      -7.176  12.194  20.504  0.00  0.00    +0.000 C 
ATOM     25  O   UNL     1      -5.966  12.214  22.582  0.00  0.00    +0.000 OA
ATOM     26  N   UNL     1      -4.752  12.555  23.144  0.00  0.00    +0.000 NA
ENDBRANCH  20  21
ENDBRANCH   4  14
BRANCH   5  27
ATOM     27  O   UNL     1       0.663   9.659  23.444  0.00  0.00    +0.000 OA
ATOM     28  H   UNL     1       1.252   8.905  23.650  0.00  0.00    +0.000 HD
ENDBRANCH   5  27
TORSDOF 4
ENDMDL
MODEL 9
REMARK VINA RESULT:      -7.3      3.191      9.399
REMARK  Name = 
REMARK  6 active torsions:
REMARK  status: ('A' for Active; 'I' for Inactive)
REMARK    1  A    between atoms: C_1  and  C_2
REMARK    2  A    between atoms: C_5  and  C_6
REMARK    3  A    between atoms: C_9  and  C_10
REMARK    4  A    between atoms: C_16  and  C_17
REMARK    5  A    between atoms: C_19  and  C_20
REMARK    6  A    between atoms: C_23  and  O_24
REMARK                            x       y       z     vdW  Elec       q    Type
REMARK                         _______ _______ _______ _____ _____    ______ ____
ROOT
ATOM      1  C   UNL     1       2.107   6.826  19.140  0.00  0.00    +0.000 A 
ATOM      2  N   UNL     1       1.723   7.116  20.398  0.00  0.00    +0.000 NA
ATOM      3  C   UNL     1       1.369   8.390  20.642  0.00  0.00    +0.000 A 
ATOM      4  C   UNL     1       1.314   9.378  19.687  0.00  0.00    +0.000 A 
ATOM      5  C   UNL     1       1.783   8.986  18.447  0.00  0.00    +0.000 A 
ATOM      6  N   UNL     1       2.160   7.730  18.145  0.00  0.00    +0.000 NA
ENDROOT
BRANCH   1  11
ATOM      7  C   UNL     1       3.803   1.350  18.230  0.00  0.00    +0.000 C 
ATOM      8  C   UNL     1       3.377   2.772  18.429  0.00  0.00    +0.000 A 
ATOM      9  C   UNL     1       2.385   3.349  17.637  0.00  0.00    +0.000 A 
ATOM     10  C   UNL     1       1.987   4.672  17.857  0.00  0.00    +0.000 A 
ATOM     11  C   UNL     1       2.567   5.458  18.868  0.00  0.00    +0.000 A 
ATOM     12  C   UNL     1       3.582   4.864  19.644  0.00  0.00    +0.000 A 
ATOM     13  C   UNL     1       3.981   3.540  19.426  0.00  0.00    +0.000 A 
ENDBRANCH   1  11
BRANCH   4  14
ATOM     14  C   UNL     1       0.855  10.754  19.953  0.00  0.00    +0.000 C 
ATOM     15  O   UNL     1       1.646  11.499  20.536  0.00  0.00    +0.000 OA
ATOM     16  N   UNL     1      -0.385  11.187  19.513  0.00  0.00    +0.000 N 
ATOM     17  C   UNL     1      -1.359  10.498  18.682  0.00  0.00    +0.000 C 
ATOM     18  C   UNL     1      -2.063  11.603  17.931  0.00  0.00    +0.000 C 
ATOM     19  C   UNL     1      -2.034  12.797  18.881  0.00  0.00    +0.000 C 
ATOM     20  C   UNL     1      -0.899  12.510  19.881  0.00  0.00    +0.000 C 
BRANCH  20  21
ATOM     21  C   UNL     1      -1.392  12.489  21.304  0.00  0.00    +0.000 A 
ATOM     22  C   UNL     1      -2.726  12.369  21.763  0.00  0.00    +0.000 A 
ATOM     23  C   UNL     1      -2.624  12.438  23.131  0.00  0.00    +0.000 A 
ATOM     24  C   UNL     1      -3.592  12.432  24.240  0.00  0.00    +0.000 C 
ATOM     25  O   UNL     1      -1.315  12.554  23.477  0.00  0.00    +0.000 OA
ATOM     26  N   UNL     1      -0.537  12.581  22.337  0.00  0.00    +0.000 NA
ENDBRANCH  20  21
ENDBRANCH   4  14
BRANCH   5  27
ATOM     27  O   UNL     1       1.935   9.862  17.404  0.00  0.00    +0.000 OA
ATOM     28  H   UNL     1       2.751  10.377  17.572  0.00  0.00    +0.000 HD
ENDBRANCH   5  27
TORSDOF 4
ENDMDL
