MODEL 1
REMARK VINA RESULT:      -7.8      0.000      0.000
REMARK  Name = 
REMARK  7 active torsions:
REMARK  status: ('A' for Active; 'I' for Inactive)
REMARK    1  A    between atoms: C_1  and  O_2
REMARK    2  A    between atoms: O_2  and  C_3
REMARK    3  A    between atoms: C_8  and  O_9
REMARK    4  A    between atoms: O_9  and  C_10
REMARK    5  A    between atoms: C_10  and  C_11
REMARK    6  A    between atoms: N_13  and  C_14
REMARK    7  A    between atoms: N_18  and  C_19
REMARK                            x       y       z     vdW  Elec       q    Type
REMARK                         _______ _______ _______ _____ _____    ______ ____
ROOT
ATOM      1  C   UNL     1       3.964   5.902  18.559  0.00  0.00    +0.000 A 
ATOM      2  C   UNL     1       3.934   4.534  18.628  0.00  0.00    +0.000 A 
ATOM      3  C   UNL     1       2.717   4.232  19.251  0.00  0.00    +0.000 A 
ATOM      4  N   UNL     1       1.973   5.306  19.501  0.00  0.00    +0.000 NA
ATOM      5  N   UNL     1       2.714   6.354  19.015  0.00  0.00    +0.000 N 
ATOM      6  C   UNL     1       2.478   2.830  19.669  0.00  0.00    +0.000 C 
ATOM      7  S   UNL     1       4.116   2.073  19.402  0.00  0.00    +0.000 S 
ATOM      8  O   UNL     1       4.812   1.999  20.675  0.00  0.00    +0.000 OA
ATOM      9  O   UNL     1       3.979   0.913  18.547  0.00  0.00    +0.000 OA
ATOM     10  C   UNL     1       4.879   3.420  18.435  0.00  0.00    +0.000 C 
ENDROOT
BRANCH   5  11
ATOM     11  C   UNL     1       2.209   7.685  19.027  0.00  0.00    +0.000 A 
ATOM     12  C   UNL     1       1.602   8.184  20.190  0.00  0.00    +0.000 A 
ATOM     13  C   UNL     1       1.006   9.450  20.184  0.00  0.00    +0.000 A 
ATOM     14  C   UNL     1       1.017  10.223  19.027  0.00  0.00    +0.000 A 
ATOM     15  C   UNL     1       1.647   9.749  17.879  0.00  0.00    +0.000 A 
ATOM     16  C   UNL     1       2.247   8.487  17.878  0.00  0.00    +0.000 A 
ENDBRANCH   5  11
BRANCH   1  19
ATOM     17  C   UNL     1       5.757   6.646  17.037  0.00  0.00    +0.000 C 
ATOM     18  O   UNL     1       6.738   7.372  16.969  0.00  0.00    +0.000 OA
ATOM     19  N   UNL     1       5.126   6.611  18.331  0.00  0.00    +0.000 N 
ATOM     20  H   UNL     1       5.482   7.261  19.025  0.00  0.00    +0.000 HD
BRANCH  17  21
ATOM     21  C   UNL     1       5.181   5.834  15.882  0.00  0.00    +0.000 C 
BRANCH  21  22
ATOM     22  O   UNL     1       5.931   4.672  15.581  0.00  0.00    +0.000 OA
BRANCH  22  28
ATOM     23  C   UNL     1       7.171   4.758  13.402  0.00  0.00    +0.000 A 
ATOM     24  C   UNL     1       7.202   4.300  12.078  0.00  0.00    +0.000 A 
ATOM     25  C   UNL     1       6.143   3.563  11.555  0.00  0.00    +0.000 A 
ATOM     26  C   UNL     1       5.065   3.233  12.367  0.00  0.00    +0.000 A 
ATOM     27  C   UNL     1       5.059   3.620  13.710  0.00  0.00    +0.000 A 
ATOM     28  C   UNL     1       6.108   4.380  14.246  0.00  0.00    +0.000 A 
BRANCH  23  30
ATOM     29  C   UNL     1       9.064   6.097  12.910  0.00  0.00    +0.000 C 
ATOM     30  O   UNL     1       8.203   5.516  13.890  0.00  0.00    +0.000 OA
ENDBRANCH  23  30
ENDBRANCH  22  28
ENDBRANCH  21  22
ENDBRANCH  17  21
ENDBRANCH   1  19
TORSDOF 6
ENDMDL
MODEL 2
REMARK VINA RESULT:      -7.4      6.951     10.171
REMARK  Name = 
REMARK  7 active torsions:
REMARK  status: ('A' for Active; 'I' for Inactive)
REMARK    1  A    between atoms: C_1  and  O_2
REMARK    2  A    between atoms: O_2  and  C_3
REMARK    3  A    between atoms: C_8  and  O_9
REMARK    4  A    between atoms: O_9  and  C_10
REMARK    5  A    between atoms: C_10  and  C_11
REMARK    6  A    between atoms: N_13  and  C_14
REMARK    7  A    between atoms: N_18  and  C_19
REMARK                            x       y       z     vdW  Elec       q    Type
REMARK                         _______ _______ _______ _____ _____    ______ ____
ROOT
ATOM      1  C   UNL     1       0.869  11.878  20.736  0.00  0.00    +0.000 A 
ATOM      2  C   UNL     1       0.089  12.485  21.684  0.00  0.00    +0.000 A 
ATOM      3  C   UNL     1      -0.839  11.509  22.065  0.00  0.00    +0.000 A 
ATOM      4  N   UNL     1      -0.639  10.334  21.475  0.00  0.00    +0.000 NA
ATOM      5  N   UNL     1       0.467  10.533  20.687  0.00  0.00    +0.000 N 
ATOM      6  C   UNL     1      -1.969  11.923  22.932  0.00  0.00    +0.000 C 
ATOM      7  S   UNL     1      -1.801  13.739  22.927  0.00  0.00    +0.000 S 
ATOM      8  O   UNL     1      -2.744  14.295  21.973  0.00  0.00    +0.000 OA
ATOM      9  O   UNL     1      -1.732  14.221  24.291  0.00  0.00    +0.000 OA
ATOM     10  C   UNL     1      -0.137  13.852  22.186  0.00  0.00    +0.000 C 
ENDROOT
BRANCH   5  11
ATOM     11  C   UNL     1       1.048   9.465  19.945  0.00  0.00    +0.000 A 
ATOM     12  C   UNL     1       1.467   8.306  20.616  0.00  0.00    +0.000 A 
ATOM     13  C   UNL     1       2.136   7.294  19.918  0.00  0.00    +0.000 A 
ATOM     14  C   UNL     1       2.384   7.430  18.556  0.00  0.00    +0.000 A 
ATOM     15  C   UNL     1       1.941   8.561  17.877  0.00  0.00    +0.000 A 
ATOM     16  C   UNL     1       1.270   9.575  18.566  0.00  0.00    +0.000 A 
ENDBRANCH   5  11
BRANCH   1  19
ATOM     17  C   UNL     1       1.129  13.319  18.750  0.00  0.00    +0.000 C 
ATOM     18  O   UNL     1       1.952  13.958  18.111  0.00  0.00    +0.000 OA
ATOM     19  N   UNL     1       1.672  12.588  19.866  0.00  0.00    +0.000 N 
ATOM     20  H   UNL     1       2.651  12.753  20.080  0.00  0.00    +0.000 HD
BRANCH  17  21
ATOM     21  C   UNL     1      -0.367  13.272  18.460  0.00  0.00    +0.000 C 
BRANCH  21  22
ATOM     22  O   UNL     1      -0.798  12.037  17.918  0.00  0.00    +0.000 OA
BRANCH  22  28
ATOM     23  C   UNL     1      -2.946  11.047  17.084  0.00  0.00    +0.000 A 
ATOM     24  C   UNL     1      -4.299  10.821  17.376  0.00  0.00    +0.000 A 
ATOM     25  C   UNL     1      -4.888  11.390  18.502  0.00  0.00    +0.000 A 
ATOM     26  C   UNL     1      -4.116  12.148  19.376  0.00  0.00    +0.000 A 
ATOM     27  C   UNL     1      -2.751  12.316  19.134  0.00  0.00    +0.000 A 
ATOM     28  C   UNL     1      -2.147  11.767  17.993  0.00  0.00    +0.000 A 
BRANCH  23  30
ATOM     29  C   UNL     1      -3.259  10.418  14.820  0.00  0.00    +0.000 C 
ATOM     30  O   UNL     1      -2.391  10.514  15.950  0.00  0.00    +0.000 OA
ENDBRANCH  23  30
ENDBRANCH  22  28
ENDBRANCH  21  22
ENDBRANCH  17  21
ENDBRANCH   1  19
TORSDOF 6
ENDMDL
MODEL 3
REMARK VINA RESULT:      -7.4      8.044     11.082
REMARK  Name = 
REMARK  7 active torsions:
REMARK  status: ('A' for Active; 'I' for Inactive)
REMARK    1  A    between atoms: C_1  and  O_2
REMARK    2  A    between atoms: O_2  and  C_3
REMARK    3  A    between atoms: C_8  and  O_9
REMARK    4  A    between atoms: O_9  and  C_10
REMARK    5  A    between atoms: C_10  and  C_11
REMARK    6  A    between atoms: N_13  and  C_14
REMARK    7  A    between atoms: N_18  and  C_19
REMARK                            x       y       z     vdW  Elec       q    Type
REMARK                         _______ _______ _______ _____ _____    ______ ____
ROOT
ATOM      1  C   UNL     1      -4.237  12.683  20.119  0.00  0.00    +0.000 A 
ATOM      2  C   UNL     1      -5.164  12.721  21.127  0.00  0.00    +0.000 A 
ATOM      3  C   UNL     1      -6.192  11.871  20.702  0.00  0.00    +0.000 A 
ATOM      4  N   UNL     1      -5.930  11.264  19.548  0.00  0.00    +0.000 NA
ATOM      5  N   UNL     1      -4.681  11.715  19.202  0.00  0.00    +0.000 N 
ATOM      6  C   UNL     1      -7.453  11.861  21.482  0.00  0.00    +0.000 C 
ATOM      7  S   UNL     1      -7.206  13.268  22.616  0.00  0.00    +0.000 S 
ATOM      8  O   UNL     1      -7.913  14.423  22.090  0.00  0.00    +0.000 OA
ATOM      9  O   UNL     1      -7.391  12.827  23.982  0.00  0.00    +0.000 OA
ATOM     10  C   UNL     1      -5.424  13.536  22.327  0.00  0.00    +0.000 C 
ENDROOT
BRANCH   5  11
ATOM     11  C   UNL     1      -4.011  11.222  18.046  0.00  0.00    +0.000 A 
ATOM     12  C   UNL     1      -2.819  10.498  18.194  0.00  0.00    +0.000 A 
ATOM     13  C   UNL     1      -2.093  10.100  17.066  0.00  0.00    +0.000 A 
ATOM     14  C   UNL     1      -2.554  10.415  15.791  0.00  0.00    +0.000 A 
ATOM     15  C   UNL     1      -3.754  11.103  15.635  0.00  0.00    +0.000 A 
ATOM     16  C   UNL     1      -4.486  11.502  16.757  0.00  0.00    +0.000 A 
ENDBRANCH   5  11
BRANCH   1  19
ATOM     17  C   UNL     1      -1.881  13.371  20.365  0.00  0.00    +0.000 C 
ATOM     18  O   UNL     1      -1.101  14.279  20.120  0.00  0.00    +0.000 OA
ATOM     19  N   UNL     1      -3.245  13.633  19.983  0.00  0.00    +0.000 N 
ATOM     20  H   UNL     1      -3.411  14.486  19.459  0.00  0.00    +0.000 HD
BRANCH  17  21
ATOM     21  C   UNL     1      -1.507  12.036  21.000  0.00  0.00    +0.000 C 
BRANCH  21  22
ATOM     22  O   UNL     1      -0.109  11.843  21.123  0.00  0.00    +0.000 OA
BRANCH  22  28
ATOM     23  C   UNL     1       1.040  11.304  18.959  0.00  0.00    +0.000 A 
ATOM     24  C   UNL     1       1.656  10.296  18.203  0.00  0.00    +0.000 A 
ATOM     25  C   UNL     1       1.625   8.970  18.627  0.00  0.00    +0.000 A 
ATOM     26  C   UNL     1       1.024   8.646  19.838  0.00  0.00    +0.000 A 
ATOM     27  C   UNL     1       0.474   9.653  20.635  0.00  0.00    +0.000 A 
ATOM     28  C   UNL     1       0.478  10.991  20.212  0.00  0.00    +0.000 A 
BRANCH  23  30
ATOM     29  C   UNL     1       2.327  13.146  18.205  0.00  0.00    +0.000 C 
ATOM     30  O   UNL     1       1.043  12.598  18.509  0.00  0.00    +0.000 OA
ENDBRANCH  23  30
ENDBRANCH  22  28
ENDBRANCH  21  22
ENDBRANCH  17  21
ENDBRANCH   1  19
TORSDOF 6
ENDMDL
MODEL 4
REMARK VINA RESULT:      -7.2      7.346     11.527
REMARK  Name = 
REMARK  7 active torsions:
REMARK  status: ('A' for Active; 'I' for Inactive)
REMARK    1  A    between atoms: C_1  and  O_2
REMARK    2  A    between atoms: O_2  and  C_3
REMARK    3  A    between atoms: C_8  and  O_9
REMARK    4  A    between atoms: O_9  and  C_10
REMARK    5  A    between atoms: C_10  and  C_11
REMARK    6  A    between atoms: N_13  and  C_14
REMARK    7  A    between atoms: N_18  and  C_19
REMARK                            x       y       z     vdW  Elec       q    Type
REMARK                         _______ _______ _______ _____ _____    ______ ____
ROOT
ATOM      1  C   UNL     1      -0.673  11.353  19.387  0.00  0.00    +0.000 A 
ATOM      2  C   UNL     1      -1.331  12.093  20.334  0.00  0.00    +0.000 A 
ATOM      3  C   UNL     1      -1.096  11.423  21.540  0.00  0.00    +0.000 A 
ATOM      4  N   UNL     1      -0.288  10.375  21.411  0.00  0.00    +0.000 NA
ATOM      5  N   UNL     1       0.036  10.356  20.078  0.00  0.00    +0.000 N 
ATOM      6  C   UNL     1      -1.857  11.856  22.737  0.00  0.00    +0.000 C 
ATOM      7  S   UNL     1      -3.069  13.012  22.014  0.00  0.00    +0.000 S 
ATOM      8  O   UNL     1      -4.336  12.321  21.852  0.00  0.00    +0.000 OA
ATOM      9  O   UNL     1      -2.985  14.288  22.694  0.00  0.00    +0.000 OA
ATOM     10  C   UNL     1      -2.320  13.185  20.359  0.00  0.00    +0.000 C 
ENDROOT
BRANCH   5  11
ATOM     11  C   UNL     1       0.962   9.410  19.555  0.00  0.00    +0.000 A 
ATOM     12  C   UNL     1       1.428   9.553  18.239  0.00  0.00    +0.000 A 
ATOM     13  C   UNL     1       2.254   8.574  17.675  0.00  0.00    +0.000 A 
ATOM     14  C   UNL     1       2.622   7.457  18.419  0.00  0.00    +0.000 A 
ATOM     15  C   UNL     1       2.193   7.325  19.737  0.00  0.00    +0.000 A 
ATOM     16  C   UNL     1       1.370   8.300  20.307  0.00  0.00    +0.000 A 
ENDBRANCH   5  11
BRANCH   1  19
ATOM     17  C   UNL     1      -2.167  11.012  17.454  0.00  0.00    +0.000 C 
ATOM     18  O   UNL     1      -2.285  11.249  16.261  0.00  0.00    +0.000 OA
ATOM     19  N   UNL     1      -0.933  11.472  18.036  0.00  0.00    +0.000 N 
ATOM     20  H   UNL     1      -0.334  12.034  17.440  0.00  0.00    +0.000 HD
BRANCH  17  21
ATOM     21  C   UNL     1      -3.208  10.311  18.320  0.00  0.00    +0.000 C 
BRANCH  21  22
ATOM     22  O   UNL     1      -4.503  10.300  17.747  0.00  0.00    +0.000 OA
BRANCH  22  28
ATOM     23  C   UNL     1      -6.593  10.447  19.126  0.00  0.00    +0.000 A 
ATOM     24  C   UNL     1      -7.451  11.306  19.826  0.00  0.00    +0.000 A 
ATOM     25  C   UNL     1      -7.286  12.687  19.759  0.00  0.00    +0.000 A 
ATOM     26  C   UNL     1      -6.227  13.220  19.033  0.00  0.00    +0.000 A 
ATOM     27  C   UNL     1      -5.321  12.369  18.394  0.00  0.00    +0.000 A 
ATOM     28  C   UNL     1      -5.487  10.978  18.435  0.00  0.00    +0.000 A 
BRANCH  23  30
ATOM     29  C   UNL     1      -7.406   8.593  20.360  0.00  0.00    +0.000 C 
ATOM     30  O   UNL     1      -6.793   9.092  19.170  0.00  0.00    +0.000 OA
ENDBRANCH  23  30
ENDBRANCH  22  28
ENDBRANCH  21  22
ENDBRANCH  17  21
ENDBRANCH   1  19
TORSDOF 6
ENDMDL
MODEL 5
REMARK VINA RESULT:      -7.2      3.702      7.656
REMARK  Name = 
REMARK  7 active torsions:
REMARK  status: ('A' for Active; 'I' for Inactive)
REMARK    1  A    between atoms: C_1  and  O_2
REMARK    2  A    between atoms: O_2  and  C_3
REMARK    3  A    between atoms: C_8  and  O_9
REMARK    4  A    between atoms: O_9  and  C_10
REMARK    5  A    between atoms: C_10  and  C_11
REMARK    6  A    between atoms: N_13  and  C_14
REMARK    7  A    between atoms: N_18  and  C_19
REMARK                            x       y       z     vdW  Elec       q    Type
REMARK                         _______ _______ _______ _____ _____    ______ ____
ROOT
ATOM      1  C   UNL     1       3.497   5.628  18.859  0.00  0.00    +0.000 A 
ATOM      2  C   UNL     1       2.830   4.679  19.588  0.00  0.00    +0.000 A 
ATOM      3  C   UNL     1       3.815   3.763  19.973  0.00  0.00    +0.000 A 
ATOM      4  N   UNL     1       5.040   4.118  19.596  0.00  0.00    +0.000 NA
ATOM      5  N   UNL     1       4.864   5.316  18.952  0.00  0.00    +0.000 N 
ATOM      6  C   UNL     1       3.377   2.492  20.601  0.00  0.00    +0.000 C 
ATOM      7  S   UNL     1       1.571   2.554  20.354  0.00  0.00    +0.000 S 
ATOM      8  O   UNL     1       1.227   1.735  19.204  0.00  0.00    +0.000 OA
ATOM      9  O   UNL     1       0.903   2.387  21.627  0.00  0.00    +0.000 OA
ATOM     10  C   UNL     1       1.429   4.301  19.847  0.00  0.00    +0.000 C 
ENDROOT
BRANCH   5  11
ATOM     11  C   UNL     1       5.974   6.064  18.465  0.00  0.00    +0.000 A 
ATOM     12  C   UNL     1       7.210   5.975  19.124  0.00  0.00    +0.000 A 
ATOM     13  C   UNL     1       8.280   6.783  18.723  0.00  0.00    +0.000 A 
ATOM     14  C   UNL     1       8.125   7.676  17.666  0.00  0.00    +0.000 A 
ATOM     15  C   UNL     1       6.912   7.745  16.986  0.00  0.00    +0.000 A 
ATOM     16  C   UNL     1       5.840   6.939  17.379  0.00  0.00    +0.000 A 
ENDBRANCH   5  11
BRANCH   1  19
ATOM     17  C   UNL     1       2.207   7.701  18.509  0.00  0.00    +0.000 C 
ATOM     18  O   UNL     1       1.740   8.423  17.641  0.00  0.00    +0.000 OA
ATOM     19  N   UNL     1       2.852   6.511  18.017  0.00  0.00    +0.000 N 
ATOM     20  H   UNL     1       2.952   6.435  17.010  0.00  0.00    +0.000 HD
BRANCH  17  21
ATOM     21  C   UNL     1       2.165   7.986  20.007  0.00  0.00    +0.000 C 
BRANCH  21  22
ATOM     22  O   UNL     1       0.882   7.813  20.578  0.00  0.00    +0.000 OA
BRANCH  22  28
ATOM     23  C   UNL     1      -0.231  10.058  20.475  0.00  0.00    +0.000 A 
ATOM     24  C   UNL     1      -0.850  11.071  21.221  0.00  0.00    +0.000 A 
ATOM     25  C   UNL     1      -0.855  11.027  22.612  0.00  0.00    +0.000 A 
ATOM     26  C   UNL     1      -0.286   9.943  23.270  0.00  0.00    +0.000 A 
ATOM     27  C   UNL     1       0.266   8.892  22.534  0.00  0.00    +0.000 A 
ATOM     28  C   UNL     1       0.298   8.931  21.133  0.00  0.00    +0.000 A 
BRANCH  23  30
ATOM     29  C   UNL     1      -1.125  11.049  18.515  0.00  0.00    +0.000 C 
ATOM     30  O   UNL     1      -0.200  10.136  19.107  0.00  0.00    +0.000 OA
ENDBRANCH  23  30
ENDBRANCH  22  28
ENDBRANCH  21  22
ENDBRANCH  17  21
ENDBRANCH   1  19
TORSDOF 6
ENDMDL
MODEL 6
REMARK VINA RESULT:      -7.2      0.773      1.717
REMARK  Name = 
REMARK  7 active torsions:
REMARK  status: ('A' for Active; 'I' for Inactive)
REMARK    1  A    between atoms: C_1  and  O_2
REMARK    2  A    between atoms: O_2  and  C_3
REMARK    3  A    between atoms: C_8  and  O_9
REMARK    4  A    between atoms: O_9  and  C_10
REMARK    5  A    between atoms: C_10  and  C_11
REMARK    6  A    between atoms: N_13  and  C_14
REMARK    7  A    between atoms: N_18  and  C_19
REMARK                            x       y       z     vdW  Elec       q    Type
REMARK                         _______ _______ _______ _____ _____    ______ ____
ROOT
ATOM      1  C   UNL     1       3.973   5.808  18.498  0.00  0.00    +0.000 A 
ATOM      2  C   UNL     1       3.923   4.442  18.597  0.00  0.00    +0.000 A 
ATOM      3  C   UNL     1       2.723   4.174  19.266  0.00  0.00    +0.000 A 
ATOM      4  N   UNL     1       2.006   5.265  19.518  0.00  0.00    +0.000 NA
ATOM      5  N   UNL     1       2.747   6.290  18.986  0.00  0.00    +0.000 N 
ATOM      6  C   UNL     1       2.475   2.784  19.721  0.00  0.00    +0.000 C 
ATOM      7  S   UNL     1       4.091   1.995  19.415  0.00  0.00    +0.000 S 
ATOM      8  O   UNL     1       4.828   1.934  20.665  0.00  0.00    +0.000 OA
ATOM      9  O   UNL     1       3.905   0.820  18.590  0.00  0.00    +0.000 OA
ATOM     10  C   UNL     1       4.843   3.308  18.395  0.00  0.00    +0.000 C 
ENDROOT
BRANCH   5  11
ATOM     11  C   UNL     1       2.264   7.630  18.987  0.00  0.00    +0.000 A 
ATOM     12  C   UNL     1       1.636   8.137  20.135  0.00  0.00    +0.000 A 
ATOM     13  C   UNL     1       1.062   9.413  20.116  0.00  0.00    +0.000 A 
ATOM     14  C   UNL     1       1.117  10.188  18.961  0.00  0.00    +0.000 A 
ATOM     15  C   UNL     1       1.770   9.705  17.830  0.00  0.00    +0.000 A 
ATOM     16  C   UNL     1       2.347   8.433  17.842  0.00  0.00    +0.000 A 
ENDBRANCH   5  11
BRANCH   1  19
ATOM     17  C   UNL     1       5.672   6.573  16.881  0.00  0.00    +0.000 C 
ATOM     18  O   UNL     1       6.669   7.271  16.774  0.00  0.00    +0.000 OA
ATOM     19  N   UNL     1       5.139   6.492  18.217  0.00  0.00    +0.000 N 
ATOM     20  H   UNL     1       5.567   7.095  18.912  0.00  0.00    +0.000 HD
BRANCH  17  21
ATOM     21  C   UNL     1       4.985   5.838  15.736  0.00  0.00    +0.000 C 
BRANCH  21  22
ATOM     22  O   UNL     1       5.637   4.637  15.365  0.00  0.00    +0.000 OA
BRANCH  22  28
ATOM     23  C   UNL     1       5.917   4.027  12.948  0.00  0.00    +0.000 A 
ATOM     24  C   UNL     1       6.699   4.208  11.798  0.00  0.00    +0.000 A 
ATOM     25  C   UNL     1       7.904   4.903  11.860  0.00  0.00    +0.000 A 
ATOM     26  C   UNL     1       8.313   5.468  13.062  0.00  0.00    +0.000 A 
ATOM     27  C   UNL     1       7.505   5.357  14.196  0.00  0.00    +0.000 A 
ATOM     28  C   UNL     1       6.299   4.643  14.156  0.00  0.00    +0.000 A 
BRANCH  23  30
ATOM     29  C   UNL     1       4.204   3.136  11.572  0.00  0.00    +0.000 C 
ATOM     30  O   UNL     1       4.754   3.306  12.879  0.00  0.00    +0.000 OA
ENDBRANCH  23  30
ENDBRANCH  22  28
ENDBRANCH  21  22
ENDBRANCH  17  21
ENDBRANCH   1  19
TORSDOF 6
ENDMDL
MODEL 7
REMARK VINA RESULT:      -7.1      4.767      7.871
REMARK  Name = 
REMARK  7 active torsions:
REMARK  status: ('A' for Active; 'I' for Inactive)
REMARK    1  A    between atoms: C_1  and  O_2
REMARK    2  A    between atoms: O_2  and  C_3
REMARK    3  A    between atoms: C_8  and  O_9
REMARK    4  A    between atoms: O_9  and  C_10
REMARK    5  A    between atoms: C_10  and  C_11
REMARK    6  A    between atoms: N_13  and  C_14
REMARK    7  A    between atoms: N_18  and  C_19
REMARK                            x       y       z     vdW  Elec       q    Type
REMARK                         _______ _______ _______ _____ _____    ______ ____
ROOT
ATOM      1  C   UNL     1       1.357  11.996  19.238  0.00  0.00    +0.000 A 
ATOM      2  C   UNL     1       2.339  12.868  18.846  0.00  0.00    +0.000 A 
ATOM      3  C   UNL     1       2.710  13.540  20.017  0.00  0.00    +0.000 A 
ATOM      4  N   UNL     1       2.082  13.094  21.101  0.00  0.00    +0.000 NA
ATOM      5  N   UNL     1       1.278  12.084  20.638  0.00  0.00    +0.000 N 
ATOM      6  C   UNL     1       3.611  14.711  19.891  0.00  0.00    +0.000 C 
ATOM      7  S   UNL     1       3.656  14.959  18.085  0.00  0.00    +0.000 S 
ATOM      8  O   UNL     1       2.738  16.029  17.735  0.00  0.00    +0.000 OA
ATOM      9  O   UNL     1       5.031  14.965  17.632  0.00  0.00    +0.000 OA
ATOM     10  C   UNL     1       2.884  13.384  17.579  0.00  0.00    +0.000 C 
ENDROOT
BRANCH   5  11
ATOM     11  C   UNL     1       0.494  11.296  21.528  0.00  0.00    +0.000 A 
ATOM     12  C   UNL     1      -0.641  11.858  22.133  0.00  0.00    +0.000 A 
ATOM     13  C   UNL     1      -1.359  11.133  23.090  0.00  0.00    +0.000 A 
ATOM     14  C   UNL     1      -0.956   9.848  23.442  0.00  0.00    +0.000 A 
ATOM     15  C   UNL     1       0.148   9.271  22.821  0.00  0.00    +0.000 A 
ATOM     16  C   UNL     1       0.869   9.988  21.862  0.00  0.00    +0.000 A 
ENDBRANCH   5  11
BRANCH   1  19
ATOM     17  C   UNL     1       0.549   9.989  18.053  0.00  0.00    +0.000 C 
ATOM     18  O   UNL     1      -0.324   9.589  17.298  0.00  0.00    +0.000 OA
ATOM     19  N   UNL     1       0.492  11.398  18.344  0.00  0.00    +0.000 N 
ATOM     20  H   UNL     1      -0.315  11.900  17.988  0.00  0.00    +0.000 HD
BRANCH  17  21
ATOM     21  C   UNL     1       1.628   9.119  18.689  0.00  0.00    +0.000 C 
BRANCH  21  22
ATOM     22  O   UNL     1       2.423   8.426  17.745  0.00  0.00    +0.000 OA
BRANCH  22  28
ATOM     23  C   UNL     1       4.028   6.508  17.555  0.00  0.00    +0.000 A 
ATOM     24  C   UNL     1       4.533   5.362  18.187  0.00  0.00    +0.000 A 
ATOM     25  C   UNL     1       3.960   4.890  19.365  0.00  0.00    +0.000 A 
ATOM     26  C   UNL     1       2.910   5.588  19.950  0.00  0.00    +0.000 A 
ATOM     27  C   UNL     1       2.450   6.772  19.368  0.00  0.00    +0.000 A 
ATOM     28  C   UNL     1       3.002   7.250  18.171  0.00  0.00    +0.000 A 
BRANCH  23  30
ATOM     29  C   UNL     1       5.357   5.974  15.665  0.00  0.00    +0.000 C 
ATOM     30  O   UNL     1       4.576   6.937  16.374  0.00  0.00    +0.000 OA
ENDBRANCH  23  30
ENDBRANCH  22  28
ENDBRANCH  21  22
ENDBRANCH  17  21
ENDBRANCH   1  19
TORSDOF 6
ENDMDL
MODEL 8
REMARK VINA RESULT:      -7.1      6.072      9.307
REMARK  Name = 
REMARK  7 active torsions:
REMARK  status: ('A' for Active; 'I' for Inactive)
REMARK    1  A    between atoms: C_1  and  O_2
REMARK    2  A    between atoms: O_2  and  C_3
REMARK    3  A    between atoms: C_8  and  O_9
REMARK    4  A    between atoms: O_9  and  C_10
REMARK    5  A    between atoms: C_10  and  C_11
REMARK    6  A    between atoms: N_13  and  C_14
REMARK    7  A    between atoms: N_18  and  C_19
REMARK                            x       y       z     vdW  Elec       q    Type
REMARK                         _______ _______ _______ _____ _____    ______ ____
ROOT
ATOM      1  C   UNL     1      -0.954  12.734  20.468  0.00  0.00    +0.000 A 
ATOM      2  C   UNL     1       0.041  13.670  20.579  0.00  0.00    +0.000 A 
ATOM      3  C   UNL     1       0.523  13.837  19.276  0.00  0.00    +0.000 A 
ATOM      4  N   UNL     1      -0.148  13.131  18.371  0.00  0.00    +0.000 NA
ATOM      5  N   UNL     1      -1.118  12.484  19.095  0.00  0.00    +0.000 N 
ATOM      6  C   UNL     1       1.760  14.634  19.089  0.00  0.00    +0.000 C 
ATOM      7  S   UNL     1       2.321  14.867  20.809  0.00  0.00    +0.000 S 
ATOM      8  O   UNL     1       3.368  13.900  21.096  0.00  0.00    +0.000 OA
ATOM      9  O   UNL     1       2.505  16.279  21.070  0.00  0.00    +0.000 OA
ATOM     10  C   UNL     1       0.808  14.310  21.663  0.00  0.00    +0.000 C 
ENDROOT
BRANCH   5  11
ATOM     11  C   UNL     1      -2.103  11.678  18.457  0.00  0.00    +0.000 A 
ATOM     12  C   UNL     1      -3.463  11.942  18.681  0.00  0.00    +0.000 A 
ATOM     13  C   UNL     1      -4.440  11.095  18.148  0.00  0.00    +0.000 A 
ATOM     14  C   UNL     1      -4.069   9.990  17.387  0.00  0.00    +0.000 A 
ATOM     15  C   UNL     1      -2.724   9.741  17.132  0.00  0.00    +0.000 A 
ATOM     16  C   UNL     1      -1.741  10.584  17.659  0.00  0.00    +0.000 A 
ENDBRANCH   5  11
BRANCH   1  19
ATOM     17  C   UNL     1      -0.723  10.951  22.156  0.00  0.00    +0.000 C 
ATOM     18  O   UNL     1      -1.250  10.479  23.152  0.00  0.00    +0.000 OA
ATOM     19  N   UNL     1      -1.448  12.040  21.554  0.00  0.00    +0.000 N 
ATOM     20  H   UNL     1      -2.258  12.379  22.063  0.00  0.00    +0.000 HD
BRANCH  17  21
ATOM     21  C   UNL     1       0.601  10.489  21.558  0.00  0.00    +0.000 C 
BRANCH  21  22
ATOM     22  O   UNL     1       0.649   9.098  21.300  0.00  0.00    +0.000 OA
BRANCH  22  28
ATOM     23  C   UNL     1       1.933   7.475  19.882  0.00  0.00    +0.000 A 
ATOM     24  C   UNL     1       2.487   7.242  18.615  0.00  0.00    +0.000 A 
ATOM     25  C   UNL     1       2.515   8.250  17.655  0.00  0.00    +0.000 A 
ATOM     26  C   UNL     1       1.942   9.485  17.934  0.00  0.00    +0.000 A 
ATOM     27  C   UNL     1       1.320   9.702  19.166  0.00  0.00    +0.000 A 
ATOM     28  C   UNL     1       1.302   8.705  20.151  0.00  0.00    +0.000 A 
BRANCH  23  30
ATOM     29  C   UNL     1       1.811   5.152  20.339  0.00  0.00    +0.000 C 
ATOM     30  O   UNL     1       1.949   6.486  20.830  0.00  0.00    +0.000 OA
ENDBRANCH  23  30
ENDBRANCH  22  28
ENDBRANCH  21  22
ENDBRANCH  17  21
ENDBRANCH   1  19
TORSDOF 6
ENDMDL
MODEL 9
REMARK VINA RESULT:      -7.1      4.990      8.195
REMARK  Name = 
REMARK  7 active torsions:
REMARK  status: ('A' for Active; 'I' for Inactive)
REMARK    1  A    between atoms: C_1  and  O_2
REMARK    2  A    between atoms: O_2  and  C_3
REMARK    3  A    between atoms: C_8  and  O_9
REMARK    4  A    between atoms: O_9  and  C_10
REMARK    5  A    between atoms: C_10  and  C_11
REMARK    6  A    between atoms: N_13  and  C_14
REMARK    7  A    between atoms: N_18  and  C_19
REMARK                            x       y       z     vdW  Elec       q    Type
REMARK                         _______ _______ _______ _____ _____    ______ ____
ROOT
ATOM      1  C   UNL     1       1.392  11.965  19.278  0.00  0.00    +0.000 A 
ATOM      2  C   UNL     1       2.330  12.884  18.887  0.00  0.00    +0.000 A 
ATOM      3  C   UNL     1       2.650  13.588  20.054  0.00  0.00    +0.000 A 
ATOM      4  N   UNL     1       2.033  13.122  21.136  0.00  0.00    +0.000 NA
ATOM      5  N   UNL     1       1.290  12.064  20.676  0.00  0.00    +0.000 N 
ATOM      6  C   UNL     1       3.488  14.805  19.925  0.00  0.00    +0.000 C 
ATOM      7  S   UNL     1       3.542  15.034  18.116  0.00  0.00    +0.000 S 
ATOM      8  O   UNL     1       2.571  16.049  17.743  0.00  0.00    +0.000 OA
ATOM      9  O   UNL     1       4.920  15.110  17.680  0.00  0.00    +0.000 OA
ATOM     10  C   UNL     1       2.862  13.415  17.620  0.00  0.00    +0.000 C 
ENDROOT
BRANCH   5  11
ATOM     11  C   UNL     1       0.539  11.245  21.566  0.00  0.00    +0.000 A 
ATOM     12  C   UNL     1      -0.611  11.764  22.179  0.00  0.00    +0.000 A 
ATOM     13  C   UNL     1      -1.299  11.010  23.136  0.00  0.00    +0.000 A 
ATOM     14  C   UNL     1      -0.849   9.738  23.480  0.00  0.00    +0.000 A 
ATOM     15  C   UNL     1       0.271   9.203  22.851  0.00  0.00    +0.000 A 
ATOM     16  C   UNL     1       0.962   9.949  21.892  0.00  0.00    +0.000 A 
ENDBRANCH   5  11
BRANCH   1  19
ATOM     17  C   UNL     1       0.849   9.971  17.930  0.00  0.00    +0.000 C 
ATOM     18  O   UNL     1      -0.003   9.496  17.194  0.00  0.00    +0.000 OA
ATOM     19  N   UNL     1       0.571  11.311  18.381  0.00  0.00    +0.000 N 
ATOM     20  H   UNL     1      -0.338  11.690  18.137  0.00  0.00    +0.000 HD
BRANCH  17  21
ATOM     21  C   UNL     1       2.112   9.254  18.393  0.00  0.00    +0.000 C 
BRANCH  21  22
ATOM     22  O   UNL     1       1.853   8.091  19.157  0.00  0.00    +0.000 OA
BRANCH  22  28
ATOM     23  C   UNL     1       2.490   5.676  19.393  0.00  0.00    +0.000 A 
ATOM     24  C   UNL     1       3.250   4.628  18.854  0.00  0.00    +0.000 A 
ATOM     25  C   UNL     1       4.153   4.863  17.821  0.00  0.00    +0.000 A 
ATOM     26  C   UNL     1       4.268   6.139  17.283  0.00  0.00    +0.000 A 
ATOM     27  C   UNL     1       3.461   7.174  17.762  0.00  0.00    +0.000 A 
ATOM     28  C   UNL     1       2.561   6.958  18.815  0.00  0.00    +0.000 A 
BRANCH  23  30
ATOM     29  C   UNL     1       1.270   4.070  20.640  0.00  0.00    +0.000 C 
ATOM     30  O   UNL     1       1.634   5.436  20.436  0.00  0.00    +0.000 OA
ENDBRANCH  23  30
ENDBRANCH  22  28
ENDBRANCH  21  22
ENDBRANCH  17  21
ENDBRANCH   1  19
TORSDOF 6
ENDMDL
