MODEL 1
REMARK VINA RESULT:      -7.6      0.000      0.000
REMARK  Name = 
REMARK  3 active torsions:
REMARK  status: ('A' for Active; 'I' for Inactive)
REMARK    1  A    between atoms: C_1  and  N_2
REMARK    2  A    between atoms: N_2  and  C_3
REMARK    3  A    between atoms: N_15  and  C_16
REMARK                            x       y       z     vdW  Elec       q    Type
REMARK                         _______ _______ _______ _____ _____    ______ ____
ROOT
ATOM      1  C   UNL     1       2.410   6.136  20.174  0.00  0.00    +0.000 A 
ATOM      2  N   UNL     1       3.125   5.642  19.144  0.00  0.00    +0.000 NA
ATOM      3  C   UNL     1       3.328   6.403  18.043  0.00  0.00    +0.000 A 
ATOM      4  N   UNL     1       4.035   5.873  16.977  0.00  0.00    +0.000 N 
ATOM      5  C   UNL     1       4.773   6.784  16.109  0.00  0.00    +0.000 C 
ATOM      6  C   UNL     1       6.288   6.440  16.005  0.00  0.00    +0.000 C 
ATOM      7  C   UNL     1       6.545   5.289  15.021  0.00  0.00    +0.000 C 
ATOM      8  C   UNL     1       6.405   3.917  15.683  0.00  0.00    +0.000 C 
ATOM      9  C   UNL     1       5.698   3.996  17.043  0.00  0.00    +0.000 C 
ATOM     10  C   UNL     1       4.241   4.437  16.907  0.00  0.00    +0.000 C 
ATOM     11  C   UNL     1       6.536   4.909  17.924  0.00  0.00    +0.000 C 
ATOM     12  O   UNL     1       6.934   4.558  19.032  0.00  0.00    +0.000 OA
ATOM     13  N   UNL     1       6.876   6.111  17.310  0.00  0.00    +0.000 N 
ATOM     14  C   UNL     1       7.797   7.039  17.930  0.00  0.00    +0.000 C 
ATOM     15  N   UNL     1       2.847   7.655  17.914  0.00  0.00    +0.000 NA
ATOM     16  C   UNL     1       2.117   8.100  18.938  0.00  0.00    +0.000 A 
ATOM     17  C   UNL     1       1.862   7.384  20.078  0.00  0.00    +0.000 A 
ATOM     18  C   UNL     1       1.071   8.176  21.062  0.00  0.00    +0.000 C 
ATOM     19  C   UNL     1       0.521   9.296  20.168  0.00  0.00    +0.000 C 
ATOM     20  C   UNL     1       1.527   9.478  19.023  0.00  0.00    +0.000 C 
ENDROOT
BRANCH   1  22
ATOM     21  C   UNL     1       1.956   4.006  21.223  0.00  0.00    +0.000 C 
ATOM     22  N   UNL     1       2.242   5.420  21.370  0.00  0.00    +0.000 N 
ATOM     23  H   UNL     1       1.567   5.896  21.958  0.00  0.00    +0.000 HD
ENDBRANCH   1  22
TORSDOF 1
ENDMDL
MODEL 2
REMARK VINA RESULT:      -7.2      2.595      6.221
REMARK  Name = 
REMARK  3 active torsions:
REMARK  status: ('A' for Active; 'I' for Inactive)
REMARK    1  A    between atoms: C_1  and  N_2
REMARK    2  A    between atoms: N_2  and  C_3
REMARK    3  A    between atoms: N_15  and  C_16
REMARK                            x       y       z     vdW  Elec       q    Type
REMARK                         _______ _______ _______ _____ _____    ______ ____
ROOT
ATOM      1  C   UNL     1       6.573   5.400  16.701  0.00  0.00    +0.000 A 
ATOM      2  N   UNL     1       5.435   5.182  17.388  0.00  0.00    +0.000 NA
ATOM      3  C   UNL     1       4.397   4.558  16.783  0.00  0.00    +0.000 A 
ATOM      4  N   UNL     1       3.219   4.371  17.489  0.00  0.00    +0.000 N 
ATOM      5  C   UNL     1       2.373   3.235  17.139  0.00  0.00    +0.000 C 
ATOM      6  C   UNL     1       2.085   2.291  18.344  0.00  0.00    +0.000 C 
ATOM      7  C   UNL     1       0.975   2.844  19.251  0.00  0.00    +0.000 C 
ATOM      8  C   UNL     1       1.515   3.817  20.300  0.00  0.00    +0.000 C 
ATOM      9  C   UNL     1       2.939   4.288  19.980  0.00  0.00    +0.000 C 
ATOM     10  C   UNL     1       2.993   5.130  18.706  0.00  0.00    +0.000 C 
ATOM     11  C   UNL     1       3.815   3.047  19.933  0.00  0.00    +0.000 C 
ATOM     12  O   UNL     1       4.840   2.946  20.603  0.00  0.00    +0.000 OA
ATOM     13  N   UNL     1       3.287   2.027  19.146  0.00  0.00    +0.000 N 
ATOM     14  C   UNL     1       3.898   0.716  19.103  0.00  0.00    +0.000 C 
ATOM     15  N   UNL     1       4.436   4.131  15.507  0.00  0.00    +0.000 NA
ATOM     16  C   UNL     1       5.566   4.392  14.847  0.00  0.00    +0.000 A 
ATOM     17  C   UNL     1       6.652   5.026  15.388  0.00  0.00    +0.000 A 
ATOM     18  C   UNL     1       7.781   5.113  14.420  0.00  0.00    +0.000 C 
ATOM     19  C   UNL     1       7.057   4.835  13.096  0.00  0.00    +0.000 C 
ATOM     20  C   UNL     1       5.839   3.964  13.434  0.00  0.00    +0.000 C 
ENDROOT
BRANCH   1  22
ATOM     21  C   UNL     1       7.615   7.380  17.617  0.00  0.00    +0.000 C 
ATOM     22  N   UNL     1       7.706   5.967  17.306  0.00  0.00    +0.000 N 
ATOM     23  H   UNL     1       8.531   5.739  16.761  0.00  0.00    +0.000 HD
ENDBRANCH   1  22
TORSDOF 1
ENDMDL
MODEL 3
REMARK VINA RESULT:      -6.7      2.479      3.475
REMARK  Name = 
REMARK  3 active torsions:
REMARK  status: ('A' for Active; 'I' for Inactive)
REMARK    1  A    between atoms: C_1  and  N_2
REMARK    2  A    between atoms: N_2  and  C_3
REMARK    3  A    between atoms: N_15  and  C_16
REMARK                            x       y       z     vdW  Elec       q    Type
REMARK                         _______ _______ _______ _____ _____    ______ ____
ROOT
ATOM      1  C   UNL     1       4.273   2.118  19.720  0.00  0.00    +0.000 A 
ATOM      2  N   UNL     1       4.729   2.667  18.577  0.00  0.00    +0.000 NA
ATOM      3  C   UNL     1       4.189   3.824  18.127  0.00  0.00    +0.000 A 
ATOM      4  N   UNL     1       4.642   4.360  16.932  0.00  0.00    +0.000 N 
ATOM      5  C   UNL     1       4.564   5.804  16.745  0.00  0.00    +0.000 C 
ATOM      6  C   UNL     1       5.939   6.456  16.416  0.00  0.00    +0.000 C 
ATOM      7  C   UNL     1       6.315   6.280  14.937  0.00  0.00    +0.000 C 
ATOM      8  C   UNL     1       7.021   4.949  14.672  0.00  0.00    +0.000 C 
ATOM      9  C   UNL     1       6.865   3.965  15.838  0.00  0.00    +0.000 C 
ATOM     10  C   UNL     1       5.413   3.525  16.028  0.00  0.00    +0.000 C 
ATOM     11  C   UNL     1       7.469   4.632  17.063  0.00  0.00    +0.000 C 
ATOM     12  O   UNL     1       8.333   4.084  17.744  0.00  0.00    +0.000 OA
ATOM     13  N   UNL     1       7.020   5.935  17.262  0.00  0.00    +0.000 N 
ATOM     14  C   UNL     1       7.597   6.782  18.283  0.00  0.00    +0.000 C 
ATOM     15  N   UNL     1       3.202   4.476  18.770  0.00  0.00    +0.000 NA
ATOM     16  C   UNL     1       2.752   3.888  19.881  0.00  0.00    +0.000 A 
ATOM     17  C   UNL     1       3.241   2.715  20.391  0.00  0.00    +0.000 A 
ATOM     18  C   UNL     1       2.577   2.350  21.674  0.00  0.00    +0.000 C 
ATOM     19  C   UNL     1       1.326   3.238  21.622  0.00  0.00    +0.000 C 
ATOM     20  C   UNL     1       1.692   4.464  20.774  0.00  0.00    +0.000 C 
ENDROOT
BRANCH   1  22
ATOM     21  C   UNL     1       5.574   1.157  21.516  0.00  0.00    +0.000 C 
ATOM     22  N   UNL     1       4.854   0.967  20.272  0.00  0.00    +0.000 N 
ATOM     23  H   UNL     1       5.412   0.497  19.567  0.00  0.00    +0.000 HD
ENDBRANCH   1  22
TORSDOF 1
ENDMDL
MODEL 4
REMARK VINA RESULT:      -6.6      2.821      4.681
REMARK  Name = 
REMARK  3 active torsions:
REMARK  status: ('A' for Active; 'I' for Inactive)
REMARK    1  A    between atoms: C_1  and  N_2
REMARK    2  A    between atoms: N_2  and  C_3
REMARK    3  A    between atoms: N_15  and  C_16
REMARK                            x       y       z     vdW  Elec       q    Type
REMARK                         _______ _______ _______ _____ _____    ______ ____
ROOT
ATOM      1  C   UNL     1       1.507   8.722  18.959  0.00  0.00    +0.000 A 
ATOM      2  N   UNL     1       2.219   7.584  19.067  0.00  0.00    +0.000 NA
ATOM      3  C   UNL     1       2.149   6.855  20.207  0.00  0.00    +0.000 A 
ATOM      4  N   UNL     1       2.913   5.705  20.320  0.00  0.00    +0.000 N 
ATOM      5  C   UNL     1       2.431   4.633  21.184  0.00  0.00    +0.000 C 
ATOM      6  C   UNL     1       2.278   3.272  20.444  0.00  0.00    +0.000 C 
ATOM      7  C   UNL     1       3.625   2.550  20.292  0.00  0.00    +0.000 C 
ATOM      8  C   UNL     1       4.389   3.001  19.046  0.00  0.00    +0.000 C 
ATOM      9  C   UNL     1       3.821   4.297  18.453  0.00  0.00    +0.000 C 
ATOM     10  C   UNL     1       4.009   5.488  19.392  0.00  0.00    +0.000 C 
ATOM     11  C   UNL     1       2.370   4.021  18.095  0.00  0.00    +0.000 C 
ATOM     12  O   UNL     1       1.924   4.236  16.970  0.00  0.00    +0.000 OA
ATOM     13  N   UNL     1       1.650   3.421  19.125  0.00  0.00    +0.000 N 
ATOM     14  C   UNL     1       0.300   2.942  18.920  0.00  0.00    +0.000 C 
ATOM     15  N   UNL     1       1.391   7.209  21.262  0.00  0.00    +0.000 NA
ATOM     16  C   UNL     1       0.724   8.358  21.133  0.00  0.00    +0.000 A 
ATOM     17  C   UNL     1       0.754   9.151  20.017  0.00  0.00    +0.000 A 
ATOM     18  C   UNL     1      -0.143  10.333  20.154  0.00  0.00    +0.000 C 
ATOM     19  C   UNL     1      -0.367  10.359  21.672  0.00  0.00    +0.000 C 
ATOM     20  C   UNL     1      -0.213   8.913  22.165  0.00  0.00    +0.000 C 
ENDROOT
BRANCH   1  22
ATOM     21  C   UNL     1       2.261  10.689  17.773  0.00  0.00    +0.000 C 
ATOM     22  N   UNL     1       1.479   9.468  17.770  0.00  0.00    +0.000 N 
ATOM     23  H   UNL     1       0.516   9.622  17.489  0.00  0.00    +0.000 HD
ENDBRANCH   1  22
TORSDOF 1
ENDMDL
MODEL 5
REMARK VINA RESULT:      -6.4      2.673      4.550
REMARK  Name = 
REMARK  3 active torsions:
REMARK  status: ('A' for Active; 'I' for Inactive)
REMARK    1  A    between atoms: C_1  and  N_2
REMARK    2  A    between atoms: N_2  and  C_3
REMARK    3  A    between atoms: N_15  and  C_16
REMARK                            x       y       z     vdW  Elec       q    Type
REMARK                         _______ _______ _______ _____ _____    ______ ____
ROOT
ATOM      1  C   UNL     1       1.002   9.051  18.853  0.00  0.00    +0.000 A 
ATOM      2  N   UNL     1       1.792   7.970  18.701  0.00  0.00    +0.000 NA
ATOM      3  C   UNL     1       2.205   7.283  19.793  0.00  0.00    +0.000 A 
ATOM      4  N   UNL     1       3.046   6.195  19.626  0.00  0.00    +0.000 N 
ATOM      5  C   UNL     1       3.002   5.125  20.617  0.00  0.00    +0.000 C 
ATOM      6  C   UNL     1       2.697   3.729  20.000  0.00  0.00    +0.000 C 
ATOM      7  C   UNL     1       3.947   3.098  19.367  0.00  0.00    +0.000 C 
ATOM      8  C   UNL     1       4.159   3.554  17.923  0.00  0.00    +0.000 C 
ATOM      9  C   UNL     1       3.312   4.784  17.570  0.00  0.00    +0.000 C 
ATOM     10  C   UNL     1       3.738   6.020  18.361  0.00  0.00    +0.000 C 
ATOM     11  C   UNL     1       1.858   4.393  17.776  0.00  0.00    +0.000 C 
ATOM     12  O   UNL     1       1.014   4.532  16.894  0.00  0.00    +0.000 OA
ATOM     13  N   UNL     1       1.618   3.783  19.005  0.00  0.00    +0.000 N 
ATOM     14  C   UNL     1       0.330   3.203  19.318  0.00  0.00    +0.000 C 
ATOM     15  N   UNL     1       1.862   7.622  21.050  0.00  0.00    +0.000 NA
ATOM     16  C   UNL     1       1.105   8.716  21.166  0.00  0.00    +0.000 A 
ATOM     17  C   UNL     1       0.659   9.466  20.110  0.00  0.00    +0.000 A 
ATOM     18  C   UNL     1      -0.215  10.586  20.558  0.00  0.00    +0.000 C 
ATOM     19  C   UNL     1       0.134  10.654  22.051  0.00  0.00    +0.000 C 
ATOM     20  C   UNL     1       0.573   9.243  22.466  0.00  0.00    +0.000 C 
ENDROOT
BRANCH   1  22
ATOM     21  C   UNL     1      -0.961   9.693  17.597  0.00  0.00    +0.000 C 
ATOM     22  N   UNL     1       0.479   9.747  17.752  0.00  0.00    +0.000 N 
ATOM     23  H   UNL     1       0.973   9.469  16.910  0.00  0.00    +0.000 HD
ENDBRANCH   1  22
TORSDOF 1
ENDMDL
MODEL 6
REMARK VINA RESULT:      -6.3      7.386      9.124
REMARK  Name = 
REMARK  3 active torsions:
REMARK  status: ('A' for Active; 'I' for Inactive)
REMARK    1  A    between atoms: C_1  and  N_2
REMARK    2  A    between atoms: N_2  and  C_3
REMARK    3  A    between atoms: N_15  and  C_16
REMARK                            x       y       z     vdW  Elec       q    Type
REMARK                         _______ _______ _______ _____ _____    ______ ____
ROOT
ATOM      1  C   UNL     1       6.894  14.177  21.863  0.00  0.00    +0.000 A 
ATOM      2  N   UNL     1       7.880  14.047  20.954  0.00  0.00    +0.000 NA
ATOM      3  C   UNL     1       8.945  13.259  21.229  0.00  0.00    +0.000 A 
ATOM      4  N   UNL     1       9.970  13.161  20.302  0.00  0.00    +0.000 N 
ATOM      5  C   UNL     1      10.760  11.936  20.265  0.00  0.00    +0.000 C 
ATOM      6  C   UNL     1      10.762  11.248  18.868  0.00  0.00    +0.000 C 
ATOM      7  C   UNL     1      11.751  11.919  17.903  0.00  0.00    +0.000 C 
ATOM      8  C   UNL     1      11.132  13.115  17.177  0.00  0.00    +0.000 C 
ATOM      9  C   UNL     1       9.826  13.582  17.833  0.00  0.00    +0.000 C 
ATOM     10  C   UNL     1      10.057  14.144  19.236  0.00  0.00    +0.000 C 
ATOM     11  C   UNL     1       8.866  12.405  17.793  0.00  0.00    +0.000 C 
ATOM     12  O   UNL     1       7.739  12.498  17.311  0.00  0.00    +0.000 OA
ATOM     13  N   UNL     1       9.426  11.218  18.259  0.00  0.00    +0.000 N 
ATOM     14  C   UNL     1       8.719   9.960  18.154  0.00  0.00    +0.000 C 
ATOM     15  N   UNL     1       9.081  12.579  22.384  0.00  0.00    +0.000 NA
ATOM     16  C   UNL     1       8.102  12.756  23.274  0.00  0.00    +0.000 A 
ATOM     17  C   UNL     1       7.000  13.544  23.070  0.00  0.00    +0.000 A 
ATOM     18  C   UNL     1       6.058  13.487  24.223  0.00  0.00    +0.000 C 
ATOM     19  C   UNL     1       6.964  12.903  25.316  0.00  0.00    +0.000 C 
ATOM     20  C   UNL     1       8.029  12.060  24.602  0.00  0.00    +0.000 C 
ENDROOT
BRANCH   1  22
ATOM     21  C   UNL     1       5.937  16.269  21.120  0.00  0.00    +0.000 C 
ATOM     22  N   UNL     1       5.730  14.914  21.593  0.00  0.00    +0.000 N 
ATOM     23  H   UNL     1       5.108  14.871  22.393  0.00  0.00    +0.000 HD
ENDBRANCH   1  22
TORSDOF 1
ENDMDL
MODEL 7
REMARK VINA RESULT:      -6.2      6.553      9.157
REMARK  Name = 
REMARK  3 active torsions:
REMARK  status: ('A' for Active; 'I' for Inactive)
REMARK    1  A    between atoms: C_1  and  N_2
REMARK    2  A    between atoms: N_2  and  C_3
REMARK    3  A    between atoms: N_15  and  C_16
REMARK                            x       y       z     vdW  Elec       q    Type
REMARK                         _______ _______ _______ _____ _____    ______ ____
ROOT
ATOM      1  C   UNL     1      -4.212  11.414  17.470  0.00  0.00    +0.000 A 
ATOM      2  N   UNL     1      -2.987  11.823  17.854  0.00  0.00    +0.000 NA
ATOM      3  C   UNL     1      -2.803  12.305  19.106  0.00  0.00    +0.000 A 
ATOM      4  N   UNL     1      -1.547  12.755  19.478  0.00  0.00    +0.000 N 
ATOM      5  C   UNL     1      -1.173  12.686  20.887  0.00  0.00    +0.000 C 
ATOM      6  C   UNL     1       0.131  11.873  21.135  0.00  0.00    +0.000 C 
ATOM      7  C   UNL     1       1.388  12.706  20.838  0.00  0.00    +0.000 C 
ATOM      8  C   UNL     1       1.783  12.654  19.361  0.00  0.00    +0.000 C 
ATOM      9  C   UNL     1       0.658  12.101  18.477  0.00  0.00    +0.000 C 
ATOM     10  C   UNL     1      -0.558  13.027  18.450  0.00  0.00    +0.000 C 
ATOM     11  C   UNL     1       0.350  10.699  18.976  0.00  0.00    +0.000 C 
ATOM     12  O   UNL     1       0.352   9.725  18.227  0.00  0.00    +0.000 OA
ATOM     13  N   UNL     1       0.172  10.630  20.355  0.00  0.00    +0.000 N 
ATOM     14  C   UNL     1       0.026   9.359  21.032  0.00  0.00    +0.000 C 
ATOM     15  N   UNL     1      -3.795  12.399  20.012  0.00  0.00    +0.000 NA
ATOM     16  C   UNL     1      -5.001  12.015  19.588  0.00  0.00    +0.000 A 
ATOM     17  C   UNL     1      -5.264  11.528  18.335  0.00  0.00    +0.000 A 
ATOM     18  C   UNL     1      -6.691  11.126  18.186  0.00  0.00    +0.000 C 
ATOM     19  C   UNL     1      -7.328  11.852  19.379  0.00  0.00    +0.000 C 
ATOM     20  C   UNL     1      -6.233  11.993  20.445  0.00  0.00    +0.000 C 
ENDROOT
BRANCH   1  22
ATOM     21  C   UNL     1      -3.281  10.743  15.342  0.00  0.00    +0.000 C 
ATOM     22  N   UNL     1      -4.437  10.830  16.213  0.00  0.00    +0.000 N 
ATOM     23  H   UNL     1      -5.229  11.281  15.768  0.00  0.00    +0.000 HD
ENDBRANCH   1  22
TORSDOF 1
ENDMDL
MODEL 8
REMARK VINA RESULT:      -6.2      2.725      5.966
REMARK  Name = 
REMARK  3 active torsions:
REMARK  status: ('A' for Active; 'I' for Inactive)
REMARK    1  A    between atoms: C_1  and  N_2
REMARK    2  A    between atoms: N_2  and  C_3
REMARK    3  A    between atoms: N_15  and  C_16
REMARK                            x       y       z     vdW  Elec       q    Type
REMARK                         _______ _______ _______ _____ _____    ______ ____
ROOT
ATOM      1  C   UNL     1       5.713   5.571  16.692  0.00  0.00    +0.000 A 
ATOM      2  N   UNL     1       4.910   4.583  17.131  0.00  0.00    +0.000 NA
ATOM      3  C   UNL     1       5.001   4.165  18.416  0.00  0.00    +0.000 A 
ATOM      4  N   UNL     1       4.194   3.124  18.846  0.00  0.00    +0.000 N 
ATOM      5  C   UNL     1       3.821   3.071  20.255  0.00  0.00    +0.000 C 
ATOM      6  C   UNL     1       2.281   3.047  20.481  0.00  0.00    +0.000 C 
ATOM      7  C   UNL     1       1.694   1.643  20.268  0.00  0.00    +0.000 C 
ATOM      8  C   UNL     1       1.360   1.370  18.801  0.00  0.00    +0.000 C 
ATOM      9  C   UNL     1       2.010   2.389  17.856  0.00  0.00    +0.000 C 
ATOM     10  C   UNL     1       3.535   2.285  17.861  0.00  0.00    +0.000 C 
ATOM     11  C   UNL     1       1.487   3.759  18.256  0.00  0.00    +0.000 C 
ATOM     12  O   UNL     1       0.961   4.518  17.445  0.00  0.00    +0.000 OA
ATOM     13  N   UNL     1       1.575   4.008  19.623  0.00  0.00    +0.000 N 
ATOM     14  C   UNL     1       0.988   5.191  20.212  0.00  0.00    +0.000 C 
ATOM     15  N   UNL     1       5.866   4.693  19.302  0.00  0.00    +0.000 NA
ATOM     16  C   UNL     1       6.669   5.647  18.826  0.00  0.00    +0.000 A 
ATOM     17  C   UNL     1       6.641   6.113  17.538  0.00  0.00    +0.000 A 
ATOM     18  C   UNL     1       7.614   7.222  17.330  0.00  0.00    +0.000 C 
ATOM     19  C   UNL     1       8.526   7.048  18.552  0.00  0.00    +0.000 C 
ATOM     20  C   UNL     1       7.672   6.400  19.651  0.00  0.00    +0.000 C 
ENDROOT
BRANCH   1  22
ATOM     21  C   UNL     1       5.827   5.159  14.313  0.00  0.00    +0.000 C 
ATOM     22  N   UNL     1       5.600   6.096  15.396  0.00  0.00    +0.000 N 
ATOM     23  H   UNL     1       6.173   6.930  15.317  0.00  0.00    +0.000 HD
ENDBRANCH   1  22
TORSDOF 1
ENDMDL
MODEL 9
REMARK VINA RESULT:      -6.0      9.489     11.799
REMARK  Name = 
REMARK  3 active torsions:
REMARK  status: ('A' for Active; 'I' for Inactive)
REMARK    1  A    between atoms: C_1  and  N_2
REMARK    2  A    between atoms: N_2  and  C_3
REMARK    3  A    between atoms: N_15  and  C_16
REMARK                            x       y       z     vdW  Elec       q    Type
REMARK                         _______ _______ _______ _____ _____    ______ ____
ROOT
ATOM      1  C   UNL     1      10.236  14.384  17.733  0.00  0.00    +0.000 A 
ATOM      2  N   UNL     1       9.015  14.820  18.099  0.00  0.00    +0.000 NA
ATOM      3  C   UNL     1       8.432  14.322  19.215  0.00  0.00    +0.000 A 
ATOM      4  N   UNL     1       7.162  14.751  19.562  0.00  0.00    +0.000 N 
ATOM      5  C   UNL     1       6.785  14.740  20.971  0.00  0.00    +0.000 C 
ATOM      6  C   UNL     1       6.324  16.132  21.495  0.00  0.00    +0.000 C 
ATOM      7  C   UNL     1       4.870  16.436  21.103  0.00  0.00    +0.000 C 
ATOM      8  C   UNL     1       4.762  17.061  19.712  0.00  0.00    +0.000 C 
ATOM      9  C   UNL     1       6.054  16.903  18.901  0.00  0.00    +0.000 C 
ATOM     10  C   UNL     1       6.351  15.440  18.573  0.00  0.00    +0.000 C 
ATOM     11  C   UNL     1       7.157  17.592  19.688  0.00  0.00    +0.000 C 
ATOM     12  O   UNL     1       7.875  18.454  19.187  0.00  0.00    +0.000 OA
ATOM     13  N   UNL     1       7.194  17.219  21.029  0.00  0.00    +0.000 N 
ATOM     14  C   UNL     1       8.072  17.881  21.970  0.00  0.00    +0.000 C 
ATOM     15  N   UNL     1       9.016  13.397  20.001  0.00  0.00    +0.000 NA
ATOM     16  C   UNL     1      10.210  12.964  19.592  0.00  0.00    +0.000 A 
ATOM     17  C   UNL     1      10.856  13.413  18.470  0.00  0.00    +0.000 A 
ATOM     18  C   UNL     1      12.198  12.786  18.316  0.00  0.00    +0.000 C 
ATOM     19  C   UNL     1      12.071  11.581  19.259  0.00  0.00    +0.000 C 
ATOM     20  C   UNL     1      11.054  11.973  20.339  0.00  0.00    +0.000 C 
ENDROOT
BRANCH   1  22
ATOM     21  C   UNL     1      11.362  16.300  16.782  0.00  0.00    +0.000 C 
ATOM     22  N   UNL     1      10.917  14.928  16.633  0.00  0.00    +0.000 N 
ATOM     23  H   UNL     1      10.371  14.784  15.791  0.00  0.00    +0.000 HD
ENDBRANCH   1  22
TORSDOF 1
ENDMDL
