MODEL 1
REMARK VINA RESULT:      -8.3      0.000      0.000
REMARK  Name = 
REMARK  8 active torsions:
REMARK  status: ('A' for Active; 'I' for Inactive)
REMARK    1  A    between atoms: C_1  and  C_2
REMARK    2  A    between atoms: C_2  and  O_3
REMARK    3  A    between atoms: O_3  and  C_4
REMARK    4  A    between atoms: C_9  and  C_10
REMARK    5  A    between atoms: C_10  and  N_11
REMARK    6  A    between atoms: C_14  and  C_15
REMARK    7  A    between atoms: C_15  and  C_16
REMARK    8  A    between atoms: C_19  and  C_20
REMARK                            x       y       z     vdW  Elec       q    Type
REMARK                         _______ _______ _______ _____ _____    ______ ____
ROOT
ATOM      1  N   UNL     1       3.070   2.788  17.972  0.00  0.00    +0.000 NA
ATOM      2  C   UNL     1       3.140   2.555  19.411  0.00  0.00    +0.000 C 
ATOM      3  C   UNL     1       2.179   3.275  20.383  0.00  0.00    +0.000 C 
ATOM      4  C   UNL     1       1.644   4.664  20.026  0.00  0.00    +0.000 C 
ATOM      5  C   UNL     1       1.470   4.820  18.506  0.00  0.00    +0.000 C 
ATOM      6  C   UNL     1       2.348   3.992  17.550  0.00  0.00    +0.000 C 
ENDROOT
BRANCH   1   7
ATOM      7  C   UNL     1       4.419   2.719  17.288  0.00  0.00    +0.000 C 
BRANCH   7  13
ATOM      8  C   UNL     1       6.067   4.414  16.202  0.00  0.00    +0.000 A 
ATOM      9  C   UNL     1       6.737   5.643  16.255  0.00  0.00    +0.000 A 
ATOM     10  C   UNL     1       6.987   6.254  17.479  0.00  0.00    +0.000 A 
ATOM     11  C   UNL     1       6.481   5.672  18.632  0.00  0.00    +0.000 A 
ATOM     12  C   UNL     1       5.613   4.572  18.552  0.00  0.00    +0.000 A 
ATOM     13  C   UNL     1       5.335   3.948  17.320  0.00  0.00    +0.000 A 
BRANCH   8  14
ATOM     14  O   UNL     1       6.220   3.573  15.124  0.00  0.00    +0.000 OA
BRANCH  14  16
ATOM     15  C   UNL     1       5.808   3.426  12.587  0.00  0.00    +0.000 C 
ATOM     16  C   UNL     1       6.455   4.114  13.802  0.00  0.00    +0.000 C 
ENDBRANCH  14  16
ENDBRANCH   8  14
ENDBRANCH   7  13
ENDBRANCH   1   7
BRANCH   4  17
ATOM     17  C   UNL     1       2.369   5.901  20.625  0.00  0.00    +0.000 C 
BRANCH  17  18
ATOM     18  C   UNL     1       1.956   7.317  20.240  0.00  0.00    +0.000 A 
ATOM     19  C   UNL     1       2.204   7.806  18.954  0.00  0.00    +0.000 A 
ATOM     20  C   UNL     1       1.625   9.009  18.514  0.00  0.00    +0.000 A 
ATOM     21  C   UNL     1       0.770   9.755  19.341  0.00  0.00    +0.000 A 
ATOM     22  C   UNL     1       0.504   9.257  20.618  0.00  0.00    +0.000 A 
ATOM     23  C   UNL     1       1.129   8.077  21.077  0.00  0.00    +0.000 A 
BRANCH  21  24
ATOM     24  C   UNL     1       0.066  10.926  18.731  0.00  0.00    +0.000 C 
ATOM     25  O   UNL     1      -0.973  10.706  18.104  0.00  0.00    +0.000 OA
ATOM     26  N   UNL     1       0.527  12.242  18.879  0.00  0.00    +0.000 N 
ATOM     27  C   UNL     1       1.825  12.716  19.355  0.00  0.00    +0.000 C 
ATOM     28  C   UNL     1       1.610  13.799  20.421  0.00  0.00    +0.000 C 
ATOM     29  O   UNL     1       0.848  14.894  19.884  0.00  0.00    +0.000 OA
ATOM     30  C   UNL     1      -0.437  14.448  19.414  0.00  0.00    +0.000 C 
ATOM     31  C   UNL     1      -0.300  13.345  18.356  0.00  0.00    +0.000 C 
ENDBRANCH  21  24
ENDBRANCH  17  18
ENDBRANCH   4  17
TORSDOF 7
ENDMDL
MODEL 2
REMARK VINA RESULT:      -8.1      1.998      2.119
REMARK  Name = 
REMARK  8 active torsions:
REMARK  status: ('A' for Active; 'I' for Inactive)
REMARK    1  A    between atoms: C_1  and  C_2
REMARK    2  A    between atoms: C_2  and  O_3
REMARK    3  A    between atoms: O_3  and  C_4
REMARK    4  A    between atoms: C_9  and  C_10
REMARK    5  A    between atoms: C_10  and  N_11
REMARK    6  A    between atoms: C_14  and  C_15
REMARK    7  A    between atoms: C_15  and  C_16
REMARK    8  A    between atoms: C_19  and  C_20
REMARK                            x       y       z     vdW  Elec       q    Type
REMARK                         _______ _______ _______ _____ _____    ______ ____
ROOT
ATOM      1  N   UNL     1       3.311   3.177  18.383  0.00  0.00    +0.000 NA
ATOM      2  C   UNL     1       3.215   3.235  19.838  0.00  0.00    +0.000 C 
ATOM      3  C   UNL     1       2.168   4.134  20.534  0.00  0.00    +0.000 C 
ATOM      4  C   UNL     1       1.709   5.424  19.851  0.00  0.00    +0.000 C 
ATOM      5  C   UNL     1       1.709   5.275  18.321  0.00  0.00    +0.000 C 
ATOM      6  C   UNL     1       2.668   4.273  17.653  0.00  0.00    +0.000 C 
ENDROOT
BRANCH   1   7
ATOM      7  C   UNL     1       4.725   2.973  17.884  0.00  0.00    +0.000 C 
BRANCH   7  13
ATOM      8  C   UNL     1       6.021   4.611  16.332  0.00  0.00    +0.000 A 
ATOM      9  C   UNL     1       6.672   5.838  16.154  0.00  0.00    +0.000 A 
ATOM     10  C   UNL     1       7.224   6.505  17.244  0.00  0.00    +0.000 A 
ATOM     11  C   UNL     1       7.038   5.979  18.514  0.00  0.00    +0.000 A 
ATOM     12  C   UNL     1       6.189   4.879  18.710  0.00  0.00    +0.000 A 
ATOM     13  C   UNL     1       5.608   4.199  17.622  0.00  0.00    +0.000 A 
BRANCH   8  14
ATOM     14  O   UNL     1       5.899   3.720  15.291  0.00  0.00    +0.000 OA
BRANCH  14  16
ATOM     15  C   UNL     1       5.822   3.512  12.727  0.00  0.00    +0.000 C 
ATOM     16  C   UNL     1       6.513   4.003  14.011  0.00  0.00    +0.000 C 
ENDBRANCH  14  16
ENDBRANCH   8  14
ENDBRANCH   7  13
ENDBRANCH   1   7
BRANCH   4  17
ATOM     17  C   UNL     1       2.391   6.755  20.274  0.00  0.00    +0.000 C 
BRANCH  17  18
ATOM     18  C   UNL     1       1.613   8.066  20.289  0.00  0.00    +0.000 A 
ATOM     19  C   UNL     1       1.598   8.898  19.165  0.00  0.00    +0.000 A 
ATOM     20  C   UNL     1       0.705   9.980  19.079  0.00  0.00    +0.000 A 
ATOM     21  C   UNL     1      -0.210  10.258  20.107  0.00  0.00    +0.000 A 
ATOM     22  C   UNL     1      -0.211   9.415  21.221  0.00  0.00    +0.000 A 
ATOM     23  C   UNL     1       0.724   8.362  21.329  0.00  0.00    +0.000 A 
BRANCH  21  24
ATOM     24  C   UNL     1      -1.234  11.318  19.854  0.00  0.00    +0.000 C 
ATOM     25  O   UNL     1      -1.603  11.492  18.690  0.00  0.00    +0.000 OA
ATOM     26  N   UNL     1      -1.800  12.081  20.886  0.00  0.00    +0.000 N 
ATOM     27  C   UNL     1      -1.361  12.223  22.274  0.00  0.00    +0.000 C 
ATOM     28  C   UNL     1      -2.561  12.014  23.208  0.00  0.00    +0.000 C 
ATOM     29  O   UNL     1      -3.602  12.963  22.916  0.00  0.00    +0.000 OA
ATOM     30  C   UNL     1      -4.051  12.834  21.555  0.00  0.00    +0.000 C 
ATOM     31  C   UNL     1      -2.896  13.011  20.561  0.00  0.00    +0.000 C 
ENDBRANCH  21  24
ENDBRANCH  17  18
ENDBRANCH   4  17
TORSDOF 7
ENDMDL
MODEL 3
REMARK VINA RESULT:      -8.1      1.243      1.399
REMARK  Name = 
REMARK  8 active torsions:
REMARK  status: ('A' for Active; 'I' for Inactive)
REMARK    1  A    between atoms: C_1  and  C_2
REMARK    2  A    between atoms: C_2  and  O_3
REMARK    3  A    between atoms: O_3  and  C_4
REMARK    4  A    between atoms: C_9  and  C_10
REMARK    5  A    between atoms: C_10  and  N_11
REMARK    6  A    between atoms: C_14  and  C_15
REMARK    7  A    between atoms: C_15  and  C_16
REMARK    8  A    between atoms: C_19  and  C_20
REMARK                            x       y       z     vdW  Elec       q    Type
REMARK                         _______ _______ _______ _____ _____    ______ ____
ROOT
ATOM      1  N   UNL     1       3.092   2.520  17.571  0.00  0.00    +0.000 NA
ATOM      2  C   UNL     1       3.060   1.911  18.897  0.00  0.00    +0.000 C 
ATOM      3  C   UNL     1       1.941   2.253  19.906  0.00  0.00    +0.000 C 
ATOM      4  C   UNL     1       1.286   3.635  19.866  0.00  0.00    +0.000 C 
ATOM      5  C   UNL     1       1.230   4.184  18.431  0.00  0.00    +0.000 C 
ATOM      6  C   UNL     1       2.277   3.726  17.399  0.00  0.00    +0.000 C 
ENDROOT
BRANCH   1   7
ATOM      7  C   UNL     1       4.494   2.756  17.054  0.00  0.00    +0.000 C 
BRANCH   7  13
ATOM      8  C   UNL     1       5.178   4.980  15.888  0.00  0.00    +0.000 A 
ATOM      9  C   UNL     1       5.530   6.332  15.988  0.00  0.00    +0.000 A 
ATOM     10  C   UNL     1       6.093   6.826  17.160  0.00  0.00    +0.000 A 
ATOM     11  C   UNL     1       6.213   5.980  18.252  0.00  0.00    +0.000 A 
ATOM     12  C   UNL     1       5.647   4.696  18.223  0.00  0.00    +0.000 A 
ATOM     13  C   UNL     1       5.058   4.182  17.051  0.00  0.00    +0.000 A 
BRANCH   8  14
ATOM     14  O   UNL     1       5.083   4.365  14.661  0.00  0.00    +0.000 OA
BRANCH  14  16
ATOM     15  C   UNL     1       6.144   3.537  12.467  0.00  0.00    +0.000 C 
ATOM     16  C   UNL     1       6.278   4.020  13.921  0.00  0.00    +0.000 C 
ENDBRANCH  14  16
ENDBRANCH   8  14
ENDBRANCH   7  13
ENDBRANCH   1   7
BRANCH   4  17
ATOM     17  C   UNL     1       1.809   4.719  20.848  0.00  0.00    +0.000 C 
BRANCH  17  18
ATOM     18  C   UNL     1       1.905   6.182  20.428  0.00  0.00    +0.000 A 
ATOM     19  C   UNL     1       2.597   6.546  19.269  0.00  0.00    +0.000 A 
ATOM     20  C   UNL     1       2.495   7.846  18.744  0.00  0.00    +0.000 A 
ATOM     21  C   UNL     1       1.687   8.820  19.353  0.00  0.00    +0.000 A 
ATOM     22  C   UNL     1       0.978   8.452  20.499  0.00  0.00    +0.000 A 
ATOM     23  C   UNL     1       1.125   7.161  21.055  0.00  0.00    +0.000 A 
BRANCH  21  24
ATOM     24  C   UNL     1       1.505  10.117  18.631  0.00  0.00    +0.000 C 
ATOM     25  O   UNL     1       1.876  10.176  17.457  0.00  0.00    +0.000 OA
ATOM     26  N   UNL     1       0.904  11.234  19.230  0.00  0.00    +0.000 N 
ATOM     27  C   UNL     1       0.613  11.479  20.642  0.00  0.00    +0.000 C 
ATOM     28  C   UNL     1      -0.841  11.947  20.786  0.00  0.00    +0.000 C 
ATOM     29  O   UNL     1      -1.067  13.143  20.018  0.00  0.00    +0.000 OA
ATOM     30  C   UNL     1      -0.790  12.920  18.623  0.00  0.00    +0.000 C 
ATOM     31  C   UNL     1       0.646  12.427  18.404  0.00  0.00    +0.000 C 
ENDBRANCH  21  24
ENDBRANCH  17  18
ENDBRANCH   4  17
TORSDOF 7
ENDMDL
MODEL 4
REMARK VINA RESULT:      -7.9      3.428     10.741
REMARK  Name = 
REMARK  8 active torsions:
REMARK  status: ('A' for Active; 'I' for Inactive)
REMARK    1  A    between atoms: C_1  and  C_2
REMARK    2  A    between atoms: C_2  and  O_3
REMARK    3  A    between atoms: O_3  and  C_4
REMARK    4  A    between atoms: C_9  and  C_10
REMARK    5  A    between atoms: C_10  and  N_11
REMARK    6  A    between atoms: C_14  and  C_15
REMARK    7  A    between atoms: C_15  and  C_16
REMARK    8  A    between atoms: C_19  and  C_20
REMARK                            x       y       z     vdW  Elec       q    Type
REMARK                         _______ _______ _______ _____ _____    ______ ____
ROOT
ATOM      1  N   UNL     1      -0.949  11.747  22.317  0.00  0.00    +0.000 NA
ATOM      2  C   UNL     1      -1.083  10.587  23.192  0.00  0.00    +0.000 C 
ATOM      3  C   UNL     1       0.027   9.516  23.273  0.00  0.00    +0.000 C 
ATOM      4  C   UNL     1       0.906   9.245  22.050  0.00  0.00    +0.000 C 
ATOM      5  C   UNL     1       1.122  10.524  21.225  0.00  0.00    +0.000 C 
ATOM      6  C   UNL     1       0.064  11.642  21.262  0.00  0.00    +0.000 C 
ENDROOT
BRANCH   1   7
ATOM      7  C   UNL     1      -2.265  12.215  21.735  0.00  0.00    +0.000 C 
BRANCH   7  13
ATOM      8  C   UNL     1      -4.464  13.167  22.750  0.00  0.00    +0.000 A 
ATOM      9  C   UNL     1      -5.099  14.085  23.595  0.00  0.00    +0.000 A 
ATOM     10  C   UNL     1      -4.484  15.293  23.910  0.00  0.00    +0.000 A 
ATOM     11  C   UNL     1      -3.198  15.529  23.447  0.00  0.00    +0.000 A 
ATOM     12  C   UNL     1      -2.478  14.513  22.800  0.00  0.00    +0.000 A 
ATOM     13  C   UNL     1      -3.077  13.277  22.485  0.00  0.00    +0.000 A 
BRANCH   8  14
ATOM     14  O   UNL     1      -5.191  12.233  22.050  0.00  0.00    +0.000 OA
BRANCH  14  16
ATOM     15  C   UNL     1      -5.508  13.471  19.815  0.00  0.00    +0.000 C 
ATOM     16  C   UNL     1      -6.078  12.647  20.983  0.00  0.00    +0.000 C 
ENDBRANCH  14  16
ENDBRANCH   8  14
ENDBRANCH   7  13
ENDBRANCH   1   7
BRANCH   4  17
ATOM     17  C   UNL     1       0.525   8.054  21.128  0.00  0.00    +0.000 C 
BRANCH  17  18
ATOM     18  C   UNL     1       1.586   7.315  20.320  0.00  0.00    +0.000 A 
ATOM     19  C   UNL     1       1.922   5.993  20.626  0.00  0.00    +0.000 A 
ATOM     20  C   UNL     1       2.716   5.228  19.753  0.00  0.00    +0.000 A 
ATOM     21  C   UNL     1       3.187   5.756  18.540  0.00  0.00    +0.000 A 
ATOM     22  C   UNL     1       2.834   7.069  18.222  0.00  0.00    +0.000 A 
ATOM     23  C   UNL     1       2.082   7.853  19.126  0.00  0.00    +0.000 A 
BRANCH  21  24
ATOM     24  C   UNL     1       3.875   4.819  17.599  0.00  0.00    +0.000 C 
ATOM     25  O   UNL     1       3.200   3.921  17.090  0.00  0.00    +0.000 OA
ATOM     26  N   UNL     1       5.229   4.950  17.261  0.00  0.00    +0.000 N 
ATOM     27  C   UNL     1       6.265   5.760  17.902  0.00  0.00    +0.000 C 
ATOM     28  C   UNL     1       7.015   6.564  16.832  0.00  0.00    +0.000 C 
ATOM     29  O   UNL     1       7.603   5.685  15.857  0.00  0.00    +0.000 OA
ATOM     30  C   UNL     1       6.599   4.883  15.211  0.00  0.00    +0.000 C 
ATOM     31  C   UNL     1       5.791   4.064  16.227  0.00  0.00    +0.000 C 
ENDBRANCH  21  24
ENDBRANCH  17  18
ENDBRANCH   4  17
TORSDOF 7
ENDMDL
MODEL 5
REMARK VINA RESULT:      -7.8      1.181      1.571
REMARK  Name = 
REMARK  8 active torsions:
REMARK  status: ('A' for Active; 'I' for Inactive)
REMARK    1  A    between atoms: C_1  and  C_2
REMARK    2  A    between atoms: C_2  and  O_3
REMARK    3  A    between atoms: O_3  and  C_4
REMARK    4  A    between atoms: C_9  and  C_10
REMARK    5  A    between atoms: C_10  and  N_11
REMARK    6  A    between atoms: C_14  and  C_15
REMARK    7  A    between atoms: C_15  and  C_16
REMARK    8  A    between atoms: C_19  and  C_20
REMARK                            x       y       z     vdW  Elec       q    Type
REMARK                         _______ _______ _______ _____ _____    ______ ____
ROOT
ATOM      1  N   UNL     1       4.028   3.532  17.845  0.00  0.00    +0.000 NA
ATOM      2  C   UNL     1       4.130   3.524  19.301  0.00  0.00    +0.000 C 
ATOM      3  C   UNL     1       3.017   4.135  20.182  0.00  0.00    +0.000 C 
ATOM      4  C   UNL     1       2.186   5.302  19.646  0.00  0.00    +0.000 C 
ATOM      5  C   UNL     1       2.001   5.202  18.124  0.00  0.00    +0.000 C 
ATOM      6  C   UNL     1       3.057   4.470  17.275  0.00  0.00    +0.000 C 
ENDROOT
BRANCH   1   7
ATOM      7  C   UNL     1       5.366   3.676  17.152  0.00  0.00    +0.000 C 
BRANCH   7  13
ATOM      8  C   UNL     1       6.528   5.924  16.543  0.00  0.00    +0.000 A 
ATOM      9  C   UNL     1       7.184   7.090  16.958  0.00  0.00    +0.000 A 
ATOM     10  C   UNL     1       7.862   7.120  18.172  0.00  0.00    +0.000 A 
ATOM     11  C   UNL     1       7.800   6.009  19.000  0.00  0.00    +0.000 A 
ATOM     12  C   UNL     1       6.952   4.936  18.688  0.00  0.00    +0.000 A 
ATOM     13  C   UNL     1       6.244   4.893  17.471  0.00  0.00    +0.000 A 
BRANCH   8  14
ATOM     14  O   UNL     1       6.275   5.692  15.211  0.00  0.00    +0.000 OA
BRANCH  14  16
ATOM     15  C   UNL     1       7.683   5.266  13.098  0.00  0.00    +0.000 C 
ATOM     16  C   UNL     1       7.121   4.796  14.452  0.00  0.00    +0.000 C 
ENDBRANCH  14  16
ENDBRANCH   8  14
ENDBRANCH   7  13
ENDBRANCH   1   7
BRANCH   4  17
ATOM     17  C   UNL     1       2.602   6.742  20.056  0.00  0.00    +0.000 C 
BRANCH  17  18
ATOM     18  C   UNL     1       1.782   7.951  19.621  0.00  0.00    +0.000 A 
ATOM     19  C   UNL     1       0.957   8.617  20.533  0.00  0.00    +0.000 A 
ATOM     20  C   UNL     1       0.384   9.861  20.215  0.00  0.00    +0.000 A 
ATOM     21  C   UNL     1       0.628  10.485  18.981  0.00  0.00    +0.000 A 
ATOM     22  C   UNL     1       1.468   9.832  18.078  0.00  0.00    +0.000 A 
ATOM     23  C   UNL     1       1.999   8.557  18.378  0.00  0.00    +0.000 A 
BRANCH  21  24
ATOM     24  C   UNL     1       0.119  11.880  18.799  0.00  0.00    +0.000 C 
ATOM     25  O   UNL     1      -1.091  12.028  18.613  0.00  0.00    +0.000 OA
ATOM     26  N   UNL     1       0.957  13.002  18.868  0.00  0.00    +0.000 N 
ATOM     27  C   UNL     1       2.417  13.065  18.836  0.00  0.00    +0.000 C 
ATOM     28  C   UNL     1       2.912  13.948  19.990  0.00  0.00    +0.000 C 
ATOM     29  O   UNL     1       2.354  15.270  19.892  0.00  0.00    +0.000 OA
ATOM     30  C   UNL     1       0.917  15.229  19.926  0.00  0.00    +0.000 C 
ATOM     31  C   UNL     1       0.350  14.344  18.809  0.00  0.00    +0.000 C 
ENDBRANCH  21  24
ENDBRANCH  17  18
ENDBRANCH   4  17
TORSDOF 7
ENDMDL
MODEL 6
REMARK VINA RESULT:      -7.8      5.076      7.478
REMARK  Name = 
REMARK  8 active torsions:
REMARK  status: ('A' for Active; 'I' for Inactive)
REMARK    1  A    between atoms: C_1  and  C_2
REMARK    2  A    between atoms: C_2  and  O_3
REMARK    3  A    between atoms: O_3  and  C_4
REMARK    4  A    between atoms: C_9  and  C_10
REMARK    5  A    between atoms: C_10  and  N_11
REMARK    6  A    between atoms: C_14  and  C_15
REMARK    7  A    between atoms: C_15  and  C_16
REMARK    8  A    between atoms: C_19  and  C_20
REMARK                            x       y       z     vdW  Elec       q    Type
REMARK                         _______ _______ _______ _____ _____    ______ ____
ROOT
ATOM      1  N   UNL     1       5.711   4.722  17.370  0.00  0.00    +0.000 NA
ATOM      2  C   UNL     1       6.076   5.481  16.178  0.00  0.00    +0.000 C 
ATOM      3  C   UNL     1       7.318   6.400  16.168  0.00  0.00    +0.000 C 
ATOM      4  C   UNL     1       7.773   7.068  17.467  0.00  0.00    +0.000 C 
ATOM      5  C   UNL     1       7.479   6.178  18.685  0.00  0.00    +0.000 C 
ATOM      6  C   UNL     1       6.317   5.169  18.627  0.00  0.00    +0.000 C 
ENDROOT
BRANCH   1   7
ATOM      7  C   UNL     1       4.216   4.556  17.539  0.00  0.00    +0.000 C 
BRANCH   7  13
ATOM      8  C   UNL     1       2.754   5.345  19.542  0.00  0.00    +0.000 A 
ATOM      9  C   UNL     1       2.215   6.394  20.298  0.00  0.00    +0.000 A 
ATOM     10  C   UNL     1       2.030   7.649  19.727  0.00  0.00    +0.000 A 
ATOM     11  C   UNL     1       2.472   7.865  18.430  0.00  0.00    +0.000 A 
ATOM     12  C   UNL     1       3.220   6.884  17.761  0.00  0.00    +0.000 A 
ATOM     13  C   UNL     1       3.432   5.612  18.328  0.00  0.00    +0.000 A 
BRANCH   8  14
ATOM     14  O   UNL     1       2.515   4.034  19.883  0.00  0.00    +0.000 OA
BRANCH  14  16
ATOM     15  C   UNL     1       1.290   2.710  21.719  0.00  0.00    +0.000 C 
ATOM     16  C   UNL     1       1.264   3.658  20.507  0.00  0.00    +0.000 C 
ENDBRANCH  14  16
ENDBRANCH   8  14
ENDBRANCH   7  13
ENDBRANCH   1   7
BRANCH   4  17
ATOM     17  C   UNL     1       7.319   8.531  17.733  0.00  0.00    +0.000 C 
BRANCH  17  18
ATOM     18  C   UNL     1       8.319   9.600  18.156  0.00  0.00    +0.000 A 
ATOM     19  C   UNL     1       8.359  10.836  17.503  0.00  0.00    +0.000 A 
ATOM     20  C   UNL     1       9.103  11.907  18.028  0.00  0.00    +0.000 A 
ATOM     21  C   UNL     1       9.821  11.781  19.228  0.00  0.00    +0.000 A 
ATOM     22  C   UNL     1       9.765  10.554  19.892  0.00  0.00    +0.000 A 
ATOM     23  C   UNL     1       9.061   9.463  19.336  0.00  0.00    +0.000 A 
BRANCH  21  24
ATOM     24  C   UNL     1      10.439  13.019  19.797  0.00  0.00    +0.000 C 
ATOM     25  O   UNL     1      11.607  13.270  19.488  0.00  0.00    +0.000 OA
ATOM     26  N   UNL     1       9.733  13.901  20.627  0.00  0.00    +0.000 N 
ATOM     27  C   UNL     1       8.456  13.700  21.311  0.00  0.00    +0.000 C 
ATOM     28  C   UNL     1       7.542  14.903  21.041  0.00  0.00    +0.000 C 
ATOM     29  O   UNL     1       8.160  16.121  21.491  0.00  0.00    +0.000 OA
ATOM     30  C   UNL     1       9.417  16.339  20.825  0.00  0.00    +0.000 C 
ATOM     31  C   UNL     1      10.378  15.162  21.034  0.00  0.00    +0.000 C 
ENDBRANCH  21  24
ENDBRANCH  17  18
ENDBRANCH   4  17
TORSDOF 7
ENDMDL
MODEL 7
REMARK VINA RESULT:      -7.8      1.346      1.977
REMARK  Name = 
REMARK  8 active torsions:
REMARK  status: ('A' for Active; 'I' for Inactive)
REMARK    1  A    between atoms: C_1  and  C_2
REMARK    2  A    between atoms: C_2  and  O_3
REMARK    3  A    between atoms: O_3  and  C_4
REMARK    4  A    between atoms: C_9  and  C_10
REMARK    5  A    between atoms: C_10  and  N_11
REMARK    6  A    between atoms: C_14  and  C_15
REMARK    7  A    between atoms: C_15  and  C_16
REMARK    8  A    between atoms: C_19  and  C_20
REMARK                            x       y       z     vdW  Elec       q    Type
REMARK                         _______ _______ _______ _____ _____    ______ ____
ROOT
ATOM      1  N   UNL     1       3.886   2.611  17.696  0.00  0.00    +0.000 NA
ATOM      2  C   UNL     1       4.390   2.980  19.015  0.00  0.00    +0.000 C 
ATOM      3  C   UNL     1       3.595   2.642  20.296  0.00  0.00    +0.000 C 
ATOM      4  C   UNL     1       2.068   2.563  20.238  0.00  0.00    +0.000 C 
ATOM      5  C   UNL     1       1.588   2.051  18.871  0.00  0.00    +0.000 C 
ATOM      6  C   UNL     1       2.460   2.281  17.623  0.00  0.00    +0.000 C 
ENDROOT
BRANCH   1   7
ATOM      7  C   UNL     1       4.250   3.606  16.615  0.00  0.00    +0.000 C 
BRANCH   7  13
ATOM      8  C   UNL     1       6.457   4.857  16.037  0.00  0.00    +0.000 A 
ATOM      9  C   UNL     1       7.322   5.937  16.258  0.00  0.00    +0.000 A 
ATOM     10  C   UNL     1       7.322   6.597  17.483  0.00  0.00    +0.000 A 
ATOM     11  C   UNL     1       6.391   6.226  18.442  0.00  0.00    +0.000 A 
ATOM     12  C   UNL     1       5.377   5.307  18.131  0.00  0.00    +0.000 A 
ATOM     13  C   UNL     1       5.350   4.638  16.892  0.00  0.00    +0.000 A 
BRANCH   8  14
ATOM     14  O   UNL     1       6.743   3.909  15.081  0.00  0.00    +0.000 OA
BRANCH  14  16
ATOM     15  C   UNL     1       5.640   3.505  12.791  0.00  0.00    +0.000 C 
ATOM     16  C   UNL     1       6.661   4.242  13.675  0.00  0.00    +0.000 C 
ENDBRANCH  14  16
ENDBRANCH   8  14
ENDBRANCH   7  13
ENDBRANCH   1   7
BRANCH   4  17
ATOM     17  C   UNL     1       1.256   3.815  20.672  0.00  0.00    +0.000 C 
BRANCH  17  18
ATOM     18  C   UNL     1       1.646   5.209  20.196  0.00  0.00    +0.000 A 
ATOM     19  C   UNL     1       1.868   5.462  18.838  0.00  0.00    +0.000 A 
ATOM     20  C   UNL     1       1.994   6.777  18.359  0.00  0.00    +0.000 A 
ATOM     21  C   UNL     1       1.889   7.883  19.219  0.00  0.00    +0.000 A 
ATOM     22  C   UNL     1       1.646   7.634  20.571  0.00  0.00    +0.000 A 
ATOM     23  C   UNL     1       1.574   6.309  21.059  0.00  0.00    +0.000 A 
BRANCH  21  24
ATOM     24  C   UNL     1       1.863   9.243  18.596  0.00  0.00    +0.000 C 
ATOM     25  O   UNL     1       2.354   9.367  17.472  0.00  0.00    +0.000 OA
ATOM     26  N   UNL     1       1.276  10.349  19.228  0.00  0.00    +0.000 N 
ATOM     27  C   UNL     1       0.861  10.502  20.621  0.00  0.00    +0.000 C 
ATOM     28  C   UNL     1      -0.568  11.060  20.666  0.00  0.00    +0.000 C 
ATOM     29  O   UNL     1      -0.639  12.326  19.984  0.00  0.00    +0.000 OA
ATOM     30  C   UNL     1      -0.238  12.195  18.609  0.00  0.00    +0.000 C 
ATOM     31  C   UNL     1       1.179  11.619  18.486  0.00  0.00    +0.000 C 
ENDBRANCH  21  24
ENDBRANCH  17  18
ENDBRANCH   4  17
TORSDOF 7
ENDMDL
MODEL 8
REMARK VINA RESULT:      -7.8      2.522      9.616
REMARK  Name = 
REMARK  8 active torsions:
REMARK  status: ('A' for Active; 'I' for Inactive)
REMARK    1  A    between atoms: C_1  and  C_2
REMARK    2  A    between atoms: C_2  and  O_3
REMARK    3  A    between atoms: O_3  and  C_4
REMARK    4  A    between atoms: C_9  and  C_10
REMARK    5  A    between atoms: C_10  and  N_11
REMARK    6  A    between atoms: C_14  and  C_15
REMARK    7  A    between atoms: C_15  and  C_16
REMARK    8  A    between atoms: C_19  and  C_20
REMARK                            x       y       z     vdW  Elec       q    Type
REMARK                         _______ _______ _______ _____ _____    ______ ____
ROOT
ATOM      1  N   UNL     1       0.007  11.937  21.650  0.00  0.00    +0.000 NA
ATOM      2  C   UNL     1      -0.852  11.024  22.397  0.00  0.00    +0.000 C 
ATOM      3  C   UNL     1      -0.306   9.687  22.948  0.00  0.00    +0.000 C 
ATOM      4  C   UNL     1       0.829   8.974  22.211  0.00  0.00    +0.000 C 
ATOM      5  C   UNL     1       1.778   9.981  21.542  0.00  0.00    +0.000 C 
ATOM      6  C   UNL     1       1.247  11.363  21.120  0.00  0.00    +0.000 C 
ENDROOT
BRANCH   1   7
ATOM      7  C   UNL     1      -0.726  12.695  20.564  0.00  0.00    +0.000 C 
BRANCH   7  13
ATOM      8  C   UNL     1      -3.016  12.280  19.400  0.00  0.00    +0.000 A 
ATOM      9  C   UNL     1      -3.757  11.648  18.393  0.00  0.00    +0.000 A 
ATOM     10  C   UNL     1      -3.308  10.456  17.833  0.00  0.00    +0.000 A 
ATOM     11  C   UNL     1      -2.075   9.956  18.225  0.00  0.00    +0.000 A 
ATOM     12  C   UNL     1      -1.234  10.711  19.057  0.00  0.00    +0.000 A 
ATOM     13  C   UNL     1      -1.663  11.928  19.622  0.00  0.00    +0.000 A 
BRANCH   8  14
ATOM     14  O   UNL     1      -3.621  13.144  20.283  0.00  0.00    +0.000 OA
BRANCH  14  16
ATOM     15  C   UNL     1      -4.029  12.741  22.792  0.00  0.00    +0.000 C 
ATOM     16  C   UNL     1      -4.485  12.636  21.327  0.00  0.00    +0.000 C 
ENDBRANCH  14  16
ENDBRANCH   8  14
ENDBRANCH   7  13
ENDBRANCH   1   7
BRANCH   4  17
ATOM     17  C   UNL     1       0.455   7.833  21.225  0.00  0.00    +0.000 C 
BRANCH  17  18
ATOM     18  C   UNL     1       1.524   7.120  20.406  0.00  0.00    +0.000 A 
ATOM     19  C   UNL     1       1.807   5.768  20.626  0.00  0.00    +0.000 A 
ATOM     20  C   UNL     1       2.612   5.043  19.731  0.00  0.00    +0.000 A 
ATOM     21  C   UNL     1       3.148   5.641  18.579  0.00  0.00    +0.000 A 
ATOM     22  C   UNL     1       2.849   6.985  18.346  0.00  0.00    +0.000 A 
ATOM     23  C   UNL     1       2.085   7.726  19.275  0.00  0.00    +0.000 A 
BRANCH  21  24
ATOM     24  C   UNL     1       3.845   4.752  17.598  0.00  0.00    +0.000 C 
ATOM     25  O   UNL     1       3.174   3.884  17.035  0.00  0.00    +0.000 OA
ATOM     26  N   UNL     1       5.204   4.897  17.284  0.00  0.00    +0.000 N 
ATOM     27  C   UNL     1       6.234   5.669  17.978  0.00  0.00    +0.000 C 
ATOM     28  C   UNL     1       6.998   6.526  16.960  0.00  0.00    +0.000 C 
ATOM     29  O   UNL     1       7.596   5.697  15.947  0.00  0.00    +0.000 OA
ATOM     30  C   UNL     1       6.597   4.932  15.249  0.00  0.00    +0.000 C 
ATOM     31  C   UNL     1       5.776   4.064  16.211  0.00  0.00    +0.000 C 
ENDBRANCH  21  24
ENDBRANCH  17  18
ENDBRANCH   4  17
TORSDOF 7
ENDMDL
MODEL 9
REMARK VINA RESULT:      -7.7      4.161     11.287
REMARK  Name = 
REMARK  8 active torsions:
REMARK  status: ('A' for Active; 'I' for Inactive)
REMARK    1  A    between atoms: C_1  and  C_2
REMARK    2  A    between atoms: C_2  and  O_3
REMARK    3  A    between atoms: O_3  and  C_4
REMARK    4  A    between atoms: C_9  and  C_10
REMARK    5  A    between atoms: C_10  and  N_11
REMARK    6  A    between atoms: C_14  and  C_15
REMARK    7  A    between atoms: C_15  and  C_16
REMARK    8  A    between atoms: C_19  and  C_20
REMARK                            x       y       z     vdW  Elec       q    Type
REMARK                         _______ _______ _______ _____ _____    ______ ____
ROOT
ATOM      1  N   UNL     1      -3.104  12.711  19.677  0.00  0.00    +0.000 NA
ATOM      2  C   UNL     1      -1.960  13.428  20.231  0.00  0.00    +0.000 C 
ATOM      3  C   UNL     1      -0.535  13.210  19.675  0.00  0.00    +0.000 C 
ATOM      4  C   UNL     1      -0.158  11.853  19.076  0.00  0.00    +0.000 C 
ATOM      5  C   UNL     1      -1.366  11.189  18.396  0.00  0.00    +0.000 C 
ATOM      6  C   UNL     1      -2.790  11.523  18.877  0.00  0.00    +0.000 C 
ENDROOT
BRANCH   1   7
ATOM      7  C   UNL     1      -4.162  12.383  20.708  0.00  0.00    +0.000 C 
BRANCH   7  13
ATOM      8  C   UNL     1      -6.734  12.576  21.053  0.00  0.00    +0.000 A 
ATOM      9  C   UNL     1      -7.875  13.380  21.175  0.00  0.00    +0.000 A 
ATOM     10  C   UNL     1      -7.900  14.653  20.613  0.00  0.00    +0.000 A 
ATOM     11  C   UNL     1      -6.749  15.142  20.014  0.00  0.00    +0.000 A 
ATOM     12  C   UNL     1      -5.544  14.429  20.101  0.00  0.00    +0.000 A 
ATOM     13  C   UNL     1      -5.493  13.145  20.679  0.00  0.00    +0.000 A 
BRANCH   8  14
ATOM     14  O   UNL     1      -6.823  11.207  21.151  0.00  0.00    +0.000 OA
BRANCH  14  16
ATOM     15  C   UNL     1      -7.317   8.905  20.110  0.00  0.00    +0.000 C 
ATOM     16  C   UNL     1      -7.454  10.438  20.100  0.00  0.00    +0.000 C 
ENDBRANCH  14  16
ENDBRANCH   8  14
ENDBRANCH   7  13
ENDBRANCH   1   7
BRANCH   4  17
ATOM     17  C   UNL     1       0.587  10.837  19.986  0.00  0.00    +0.000 C 
BRANCH  17  18
ATOM     18  C   UNL     1       1.134   9.531  19.421  0.00  0.00    +0.000 A 
ATOM     19  C   UNL     1       1.654   9.478  18.124  0.00  0.00    +0.000 A 
ATOM     20  C   UNL     1       2.371   8.354  17.678  0.00  0.00    +0.000 A 
ATOM     21  C   UNL     1       2.604   7.253  18.518  0.00  0.00    +0.000 A 
ATOM     22  C   UNL     1       2.105   7.314  19.821  0.00  0.00    +0.000 A 
ATOM     23  C   UNL     1       1.338   8.420  20.249  0.00  0.00    +0.000 A 
BRANCH  21  24
ATOM     24  C   UNL     1       3.521   6.183  18.017  0.00  0.00    +0.000 C 
ATOM     25  O   UNL     1       4.707   6.477  17.849  0.00  0.00    +0.000 OA
ATOM     26  N   UNL     1       3.085   4.873  17.771  0.00  0.00    +0.000 N 
ATOM     27  C   UNL     1       1.720   4.360  17.666  0.00  0.00    +0.000 C 
ATOM     28  C   UNL     1       1.579   3.109  18.544  0.00  0.00    +0.000 C 
ATOM     29  O   UNL     1       2.522   2.099  18.143  0.00  0.00    +0.000 OA
ATOM     30  C   UNL     1       3.872   2.584  18.245  0.00  0.00    +0.000 C 
ATOM     31  C   UNL     1       4.083   3.851  17.406  0.00  0.00    +0.000 C 
ENDBRANCH  21  24
ENDBRANCH  17  18
ENDBRANCH   4  17
TORSDOF 7
ENDMDL
