MODEL 1
REMARK VINA RESULT:      -7.1      0.000      0.000
REMARK  Name = 
REMARK  12 active torsions:
REMARK  status: ('A' for Active; 'I' for Inactive)
REMARK    1  A    between atoms: C_1  and  O_2
REMARK    2  A    between atoms: O_2  and  C_3
REMARK    3  A    between atoms: C_3  and  C_4
REMARK    4  A    between atoms: C_4  and  C_5
REMARK    5  A    between atoms: C_5  and  N_6
REMARK    6  A    between atoms: N_6  and  S_7
REMARK    7  A    between atoms: S_7  and  C_10
REMARK    8  A    between atoms: C_12  and  C_13
REMARK    9  A    between atoms: C_16  and  C_17
REMARK   10  A    between atoms: C_18  and  C_19
REMARK   11  A    between atoms: C_22  and  O_23
REMARK   12  A    between atoms: O_23  and  C_24
REMARK                            x       y       z     vdW  Elec       q    Type
REMARK                         _______ _______ _______ _____ _____    ______ ____
ROOT
ATOM      1  C   UNL     1       4.934   5.315  17.571  0.00  0.00    +0.000 A 
ATOM      2  C   UNL     1       4.305   6.574  17.803  0.00  0.00    +0.000 A 
ATOM      3  C   UNL     1       2.929   6.715  18.030  0.00  0.00    +0.000 A 
ATOM      4  C   UNL     1       2.154   5.566  18.003  0.00  0.00    +0.000 A 
ATOM      5  C   UNL     1       2.749   4.329  17.759  0.00  0.00    +0.000 A 
ATOM      6  C   UNL     1       4.138   4.165  17.542  0.00  0.00    +0.000 A 
ENDROOT
BRANCH   3   7
ATOM      7  C   UNL     1       2.335   8.017  18.317  0.00  0.00    +0.000 A 
ATOM      8  O   UNL     1       2.378   8.920  17.296  0.00  0.00    +0.000 OA
ATOM      9  N   UNL     1       1.759  10.092  17.678  0.00  0.00    +0.000 NA
ATOM     10  C   UNL     1       1.347   9.892  18.934  0.00  0.00    +0.000 A 
ATOM     11  C   UNL     1       0.613  10.961  19.653  0.00  0.00    +0.000 C 
ATOM     12  C   UNL     1       1.704   8.596  19.403  0.00  0.00    +0.000 A 
ATOM     13  C   UNL     1       1.464   8.024  20.749  0.00  0.00    +0.000 C 
ENDBRANCH   3   7
BRANCH   1  14
ATOM     14  S   UNL     1       6.723   5.457  17.572  0.00  0.00    +0.000 S 
ATOM     15  O   UNL     1       7.386   4.244  17.959  0.00  0.00    +0.000 OA
ATOM     16  O   UNL     1       7.013   6.699  18.256  0.00  0.00    +0.000 OA
BRANCH  14  17
ATOM     17  N   UNL     1       7.109   5.726  15.939  0.00  0.00    +0.000 NA
ATOM     18  H   UNL     1       7.529   6.640  15.779  0.00  0.00    +0.000 HD
BRANCH  17  19
ATOM     19  C   UNL     1       6.088   5.314  14.964  0.00  0.00    +0.000 C 
BRANCH  19  20
ATOM     20  C   UNL     1       6.492   4.007  14.288  0.00  0.00    +0.000 C 
BRANCH  20  21
ATOM     21  C   UNL     1       5.582   3.736  13.094  0.00  0.00    +0.000 C 
BRANCH  21  23
ATOM     22  C   UNL     1       5.708   1.993  11.511  0.00  0.00    +0.000 C 
ATOM     23  O   UNL     1       6.355   3.134  12.057  0.00  0.00    +0.000 OA
ENDBRANCH  21  23
ENDBRANCH  20  21
ENDBRANCH  19  20
ENDBRANCH  17  19
ENDBRANCH  14  17
ENDBRANCH   1  14
BRANCH   6  24
ATOM     24  O   UNL     1       4.357   2.835  17.375  0.00  0.00    +0.000 OA
ATOM     25  C   UNL     1       3.743   1.836  18.149  0.00  0.00    +0.000 C 
ENDBRANCH   6  24
TORSDOF 8
ENDMDL
MODEL 2
REMARK VINA RESULT:      -7.0      1.875      2.040
REMARK  Name = 
REMARK  12 active torsions:
REMARK  status: ('A' for Active; 'I' for Inactive)
REMARK    1  A    between atoms: C_1  and  O_2
REMARK    2  A    between atoms: O_2  and  C_3
REMARK    3  A    between atoms: C_3  and  C_4
REMARK    4  A    between atoms: C_4  and  C_5
REMARK    5  A    between atoms: C_5  and  N_6
REMARK    6  A    between atoms: N_6  and  S_7
REMARK    7  A    between atoms: S_7  and  C_10
REMARK    8  A    between atoms: C_12  and  C_13
REMARK    9  A    between atoms: C_16  and  C_17
REMARK   10  A    between atoms: C_18  and  C_19
REMARK   11  A    between atoms: C_22  and  O_23
REMARK   12  A    between atoms: O_23  and  C_24
REMARK                            x       y       z     vdW  Elec       q    Type
REMARK                         _______ _______ _______ _____ _____    ______ ____
ROOT
ATOM      1  C   UNL     1       4.426   5.064  19.084  0.00  0.00    +0.000 A 
ATOM      2  C   UNL     1       3.723   6.290  19.280  0.00  0.00    +0.000 A 
ATOM      3  C   UNL     1       2.423   6.355  19.802  0.00  0.00    +0.000 A 
ATOM      4  C   UNL     1       1.799   5.158  20.116  0.00  0.00    +0.000 A 
ATOM      5  C   UNL     1       2.463   3.950  19.913  0.00  0.00    +0.000 A 
ATOM      6  C   UNL     1       3.780   3.864  19.401  0.00  0.00    +0.000 A 
ENDROOT
BRANCH   3   7
ATOM      7  C   UNL     1       1.762   7.634  20.037  0.00  0.00    +0.000 A 
ATOM      8  O   UNL     1       1.284   7.824  21.300  0.00  0.00    +0.000 OA
ATOM      9  N   UNL     1       0.714   9.076  21.404  0.00  0.00    +0.000 NA
ATOM     10  C   UNL     1       0.847   9.636  20.198  0.00  0.00    +0.000 A 
ATOM     11  C   UNL     1       0.353  11.014  19.961  0.00  0.00    +0.000 C 
ATOM     12  C   UNL     1       1.488   8.758  19.279  0.00  0.00    +0.000 A 
ATOM     13  C   UNL     1       1.771   9.000  17.845  0.00  0.00    +0.000 C 
ENDBRANCH   3   7
BRANCH   1  14
ATOM     14  S   UNL     1       6.143   5.347  18.646  0.00  0.00    +0.000 S 
ATOM     15  O   UNL     1       7.049   5.121  19.737  0.00  0.00    +0.000 OA
ATOM     16  O   UNL     1       6.159   6.604  17.930  0.00  0.00    +0.000 OA
BRANCH  14  17
ATOM     17  N   UNL     1       6.468   4.149  17.485  0.00  0.00    +0.000 NA
ATOM     18  H   UNL     1       7.448   4.123  17.209  0.00  0.00    +0.000 HD
BRANCH  17  19
ATOM     19  C   UNL     1       5.496   4.041  16.387  0.00  0.00    +0.000 C 
BRANCH  19  20
ATOM     20  C   UNL     1       5.882   4.970  15.238  0.00  0.00    +0.000 C 
BRANCH  20  21
ATOM     21  C   UNL     1       6.437   4.154  14.075  0.00  0.00    +0.000 C 
BRANCH  21  23
ATOM     22  C   UNL     1       5.794   3.011  12.115  0.00  0.00    +0.000 C 
ATOM     23  O   UNL     1       5.365   3.842  13.186  0.00  0.00    +0.000 OA
ENDBRANCH  21  23
ENDBRANCH  20  21
ENDBRANCH  19  20
ENDBRANCH  17  19
ENDBRANCH  14  17
ENDBRANCH   1  14
BRANCH   6  24
ATOM     24  O   UNL     1       4.108   2.547  19.373  0.00  0.00    +0.000 OA
ATOM     25  C   UNL     1       3.482   1.601  18.542  0.00  0.00    +0.000 C 
ENDBRANCH   6  24
TORSDOF 8
ENDMDL
MODEL 3
REMARK VINA RESULT:      -7.0      2.237      3.150
REMARK  Name = 
REMARK  12 active torsions:
REMARK  status: ('A' for Active; 'I' for Inactive)
REMARK    1  A    between atoms: C_1  and  O_2
REMARK    2  A    between atoms: O_2  and  C_3
REMARK    3  A    between atoms: C_3  and  C_4
REMARK    4  A    between atoms: C_4  and  C_5
REMARK    5  A    between atoms: C_5  and  N_6
REMARK    6  A    between atoms: N_6  and  S_7
REMARK    7  A    between atoms: S_7  and  C_10
REMARK    8  A    between atoms: C_12  and  C_13
REMARK    9  A    between atoms: C_16  and  C_17
REMARK   10  A    between atoms: C_18  and  C_19
REMARK   11  A    between atoms: C_22  and  O_23
REMARK   12  A    between atoms: O_23  and  C_24
REMARK                            x       y       z     vdW  Elec       q    Type
REMARK                         _______ _______ _______ _____ _____    ______ ____
ROOT
ATOM      1  C   UNL     1       3.019   4.311  18.965  0.00  0.00    +0.000 A 
ATOM      2  C   UNL     1       2.783   5.665  18.581  0.00  0.00    +0.000 A 
ATOM      3  C   UNL     1       2.134   6.595  19.405  0.00  0.00    +0.000 A 
ATOM      4  C   UNL     1       1.688   6.154  20.641  0.00  0.00    +0.000 A 
ATOM      5  C   UNL     1       1.892   4.830  21.025  0.00  0.00    +0.000 A 
ATOM      6  C   UNL     1       2.558   3.880  20.213  0.00  0.00    +0.000 A 
ENDROOT
BRANCH   3   7
ATOM      7  C   UNL     1       1.962   7.984  18.994  0.00  0.00    +0.000 A 
ATOM      8  O   UNL     1       2.497   8.309  17.783  0.00  0.00    +0.000 OA
ATOM      9  N   UNL     1       2.241   9.634  17.495  0.00  0.00    +0.000 NA
ATOM     10  C   UNL     1       1.553  10.106  18.540  0.00  0.00    +0.000 A 
ATOM     11  C   UNL     1       1.091  11.515  18.549  0.00  0.00    +0.000 C 
ATOM     12  C   UNL     1       1.363   9.107  19.536  0.00  0.00    +0.000 A 
ATOM     13  C   UNL     1       0.693   9.257  20.850  0.00  0.00    +0.000 C 
ENDBRANCH   3   7
BRANCH   1  14
ATOM     14  S   UNL     1       4.088   3.468  17.796  0.00  0.00    +0.000 S 
ATOM     15  O   UNL     1       4.218   4.163  16.547  0.00  0.00    +0.000 OA
ATOM     16  O   UNL     1       3.674   2.081  17.822  0.00  0.00    +0.000 OA
BRANCH  14  17
ATOM     17  N   UNL     1       5.615   3.509  18.540  0.00  0.00    +0.000 NA
ATOM     18  H   UNL     1       5.651   2.963  19.398  0.00  0.00    +0.000 HD
BRANCH  17  19
ATOM     19  C   UNL     1       6.262   4.828  18.598  0.00  0.00    +0.000 C 
BRANCH  19  20
ATOM     20  C   UNL     1       7.390   4.916  17.573  0.00  0.00    +0.000 C 
BRANCH  20  21
ATOM     21  C   UNL     1       7.157   6.103  16.644  0.00  0.00    +0.000 C 
BRANCH  21  23
ATOM     22  C   UNL     1       7.012   4.827  14.666  0.00  0.00    +0.000 C 
ATOM     23  O   UNL     1       7.747   5.814  15.377  0.00  0.00    +0.000 OA
ENDBRANCH  21  23
ENDBRANCH  20  21
ENDBRANCH  19  20
ENDBRANCH  17  19
ENDBRANCH  14  17
ENDBRANCH   1  14
BRANCH   6  24
ATOM     24  O   UNL     1       2.602   2.720  20.918  0.00  0.00    +0.000 OA
ATOM     25  C   UNL     1       1.649   2.353  21.883  0.00  0.00    +0.000 C 
ENDBRANCH   6  24
TORSDOF 8
ENDMDL
MODEL 4
REMARK VINA RESULT:      -6.9      2.648      4.169
REMARK  Name = 
REMARK  12 active torsions:
REMARK  status: ('A' for Active; 'I' for Inactive)
REMARK    1  A    between atoms: C_1  and  O_2
REMARK    2  A    between atoms: O_2  and  C_3
REMARK    3  A    between atoms: C_3  and  C_4
REMARK    4  A    between atoms: C_4  and  C_5
REMARK    5  A    between atoms: C_5  and  N_6
REMARK    6  A    between atoms: N_6  and  S_7
REMARK    7  A    between atoms: S_7  and  C_10
REMARK    8  A    between atoms: C_12  and  C_13
REMARK    9  A    between atoms: C_16  and  C_17
REMARK   10  A    between atoms: C_18  and  C_19
REMARK   11  A    between atoms: C_22  and  O_23
REMARK   12  A    between atoms: O_23  and  C_24
REMARK                            x       y       z     vdW  Elec       q    Type
REMARK                         _______ _______ _______ _____ _____    ______ ____
ROOT
ATOM      1  C   UNL     1       4.850   5.056  18.302  0.00  0.00    +0.000 A 
ATOM      2  C   UNL     1       4.235   6.343  18.263  0.00  0.00    +0.000 A 
ATOM      3  C   UNL     1       2.869   6.550  18.504  0.00  0.00    +0.000 A 
ATOM      4  C   UNL     1       2.090   5.434  18.772  0.00  0.00    +0.000 A 
ATOM      5  C   UNL     1       2.671   4.167  18.796  0.00  0.00    +0.000 A 
ATOM      6  C   UNL     1       4.049   3.940  18.569  0.00  0.00    +0.000 A 
ENDROOT
BRANCH   3   7
ATOM      7  C   UNL     1       2.292   7.889  18.507  0.00  0.00    +0.000 A 
ATOM      8  O   UNL     1       2.443   8.597  17.351  0.00  0.00    +0.000 OA
ATOM      9  N   UNL     1       1.829   9.826  17.468  0.00  0.00    +0.000 NA
ATOM     10  C   UNL     1       1.311   9.858  18.699  0.00  0.00    +0.000 A 
ATOM     11  C   UNL     1       0.552  11.047  19.156  0.00  0.00    +0.000 C 
ATOM     12  C   UNL     1       1.591   8.661  19.417  0.00  0.00    +0.000 A 
ATOM     13  C   UNL     1       1.227   8.339  20.817  0.00  0.00    +0.000 C 
ENDBRANCH   3   7
BRANCH   1  14
ATOM     14  S   UNL     1       6.637   5.173  18.201  0.00  0.00    +0.000 S 
ATOM     15  O   UNL     1       7.203   4.319  17.195  0.00  0.00    +0.000 OA
ATOM     16  O   UNL     1       7.109   5.107  19.567  0.00  0.00    +0.000 OA
BRANCH  14  17
ATOM     17  N   UNL     1       6.911   6.772  17.694  0.00  0.00    +0.000 NA
ATOM     18  H   UNL     1       6.807   6.890  16.688  0.00  0.00    +0.000 HD
BRANCH  17  19
ATOM     19  C   UNL     1       8.073   7.444  18.296  0.00  0.00    +0.000 C 
BRANCH  19  20
ATOM     20  C   UNL     1       8.182   8.879  17.787  0.00  0.00    +0.000 C 
BRANCH  20  21
ATOM     21  C   UNL     1       8.874   9.749  18.831  0.00  0.00    +0.000 C 
BRANCH  21  23
ATOM     22  C   UNL     1      10.289  11.380  17.882  0.00  0.00    +0.000 C 
ATOM     23  O   UNL     1       8.972  11.079  18.325  0.00  0.00    +0.000 OA
ENDBRANCH  21  23
ENDBRANCH  20  21
ENDBRANCH  19  20
ENDBRANCH  17  19
ENDBRANCH  14  17
ENDBRANCH   1  14
BRANCH   6  24
ATOM     24  O   UNL     1       4.257   2.605  18.703  0.00  0.00    +0.000 OA
ATOM     25  C   UNL     1       4.457   1.964  19.937  0.00  0.00    +0.000 C 
ENDBRANCH   6  24
TORSDOF 8
ENDMDL
MODEL 5
REMARK VINA RESULT:      -6.9      1.087      1.120
REMARK  Name = 
REMARK  12 active torsions:
REMARK  status: ('A' for Active; 'I' for Inactive)
REMARK    1  A    between atoms: C_1  and  O_2
REMARK    2  A    between atoms: O_2  and  C_3
REMARK    3  A    between atoms: C_3  and  C_4
REMARK    4  A    between atoms: C_4  and  C_5
REMARK    5  A    between atoms: C_5  and  N_6
REMARK    6  A    between atoms: N_6  and  S_7
REMARK    7  A    between atoms: S_7  and  C_10
REMARK    8  A    between atoms: C_12  and  C_13
REMARK    9  A    between atoms: C_16  and  C_17
REMARK   10  A    between atoms: C_18  and  C_19
REMARK   11  A    between atoms: C_22  and  O_23
REMARK   12  A    between atoms: O_23  and  C_24
REMARK                            x       y       z     vdW  Elec       q    Type
REMARK                         _______ _______ _______ _____ _____    ______ ____
ROOT
ATOM      1  C   UNL     1       4.868   5.064  18.278  0.00  0.00    +0.000 A 
ATOM      2  C   UNL     1       4.219   6.332  18.197  0.00  0.00    +0.000 A 
ATOM      3  C   UNL     1       2.916   6.559  18.661  0.00  0.00    +0.000 A 
ATOM      4  C   UNL     1       2.232   5.481  19.204  0.00  0.00    +0.000 A 
ATOM      5  C   UNL     1       2.844   4.231  19.274  0.00  0.00    +0.000 A 
ATOM      6  C   UNL     1       4.163   3.985  18.823  0.00  0.00    +0.000 A 
ENDROOT
BRANCH   3   7
ATOM      7  C   UNL     1       2.310   7.885  18.608  0.00  0.00    +0.000 A 
ATOM      8  O   UNL     1       2.448   8.546  17.424  0.00  0.00    +0.000 OA
ATOM      9  N   UNL     1       1.808   9.767  17.489  0.00  0.00    +0.000 NA
ATOM     10  C   UNL     1       1.288   9.839  18.718  0.00  0.00    +0.000 A 
ATOM     11  C   UNL     1       0.503  11.030  19.123  0.00  0.00    +0.000 C 
ATOM     12  C   UNL     1       1.592   8.679  19.485  0.00  0.00    +0.000 A 
ATOM     13  C   UNL     1       1.232   8.408  20.897  0.00  0.00    +0.000 C 
ENDBRANCH   3   7
BRANCH   1  14
ATOM     14  S   UNL     1       6.602   5.177  17.832  0.00  0.00    +0.000 S 
ATOM     15  O   UNL     1       7.483   4.728  18.873  0.00  0.00    +0.000 OA
ATOM     16  O   UNL     1       6.768   6.491  17.250  0.00  0.00    +0.000 OA
BRANCH  14  17
ATOM     17  N   UNL     1       6.763   4.077  16.547  0.00  0.00    +0.000 NA
ATOM     18  H   UNL     1       7.620   4.217  16.014  0.00  0.00    +0.000 HD
BRANCH  17  19
ATOM     19  C   UNL     1       5.550   3.841  15.751  0.00  0.00    +0.000 C 
BRANCH  19  20
ATOM     20  C   UNL     1       5.645   4.558  14.407  0.00  0.00    +0.000 C 
BRANCH  20  21
ATOM     21  C   UNL     1       6.919   4.138  13.683  0.00  0.00    +0.000 C 
BRANCH  21  23
ATOM     22  C   UNL     1       5.752   2.931  12.026  0.00  0.00    +0.000 C 
ATOM     23  O   UNL     1       6.634   4.014  12.290  0.00  0.00    +0.000 OA
ENDBRANCH  21  23
ENDBRANCH  20  21
ENDBRANCH  19  20
ENDBRANCH  17  19
ENDBRANCH  14  17
ENDBRANCH   1  14
BRANCH   6  24
ATOM     24  O   UNL     1       4.430   2.679  19.079  0.00  0.00    +0.000 OA
ATOM     25  C   UNL     1       4.446   2.120  20.368  0.00  0.00    +0.000 C 
ENDBRANCH   6  24
TORSDOF 8
ENDMDL
MODEL 6
REMARK VINA RESULT:      -6.9      1.384      1.537
REMARK  Name = 
REMARK  12 active torsions:
REMARK  status: ('A' for Active; 'I' for Inactive)
REMARK    1  A    between atoms: C_1  and  O_2
REMARK    2  A    between atoms: O_2  and  C_3
REMARK    3  A    between atoms: C_3  and  C_4
REMARK    4  A    between atoms: C_4  and  C_5
REMARK    5  A    between atoms: C_5  and  N_6
REMARK    6  A    between atoms: N_6  and  S_7
REMARK    7  A    between atoms: S_7  and  C_10
REMARK    8  A    between atoms: C_12  and  C_13
REMARK    9  A    between atoms: C_16  and  C_17
REMARK   10  A    between atoms: C_18  and  C_19
REMARK   11  A    between atoms: C_22  and  O_23
REMARK   12  A    between atoms: O_23  and  C_24
REMARK                            x       y       z     vdW  Elec       q    Type
REMARK                         _______ _______ _______ _____ _____    ______ ____
ROOT
ATOM      1  C   UNL     1       4.446   6.040  17.915  0.00  0.00    +0.000 A 
ATOM      2  C   UNL     1       3.549   7.146  18.003  0.00  0.00    +0.000 A 
ATOM      3  C   UNL     1       2.532   7.236  18.963  0.00  0.00    +0.000 A 
ATOM      4  C   UNL     1       2.393   6.178  19.850  0.00  0.00    +0.000 A 
ATOM      5  C   UNL     1       3.248   5.081  19.766  0.00  0.00    +0.000 A 
ATOM      6  C   UNL     1       4.289   4.978  18.812  0.00  0.00    +0.000 A 
ENDROOT
BRANCH   3   7
ATOM      7  C   UNL     1       1.671   8.410  19.052  0.00  0.00    +0.000 A 
ATOM      8  O   UNL     1       1.343   8.989  17.862  0.00  0.00    +0.000 OA
ATOM      9  N   UNL     1       0.505  10.063  18.077  0.00  0.00    +0.000 NA
ATOM     10  C   UNL     1       0.333  10.131  19.400  0.00  0.00    +0.000 A 
ATOM     11  C   UNL     1      -0.544  11.176  19.983  0.00  0.00    +0.000 C 
ATOM     12  C   UNL     1       1.068   9.117  20.077  0.00  0.00    +0.000 A 
ATOM     13  C   UNL     1       1.169   8.896  21.539  0.00  0.00    +0.000 C 
ENDBRANCH   3   7
BRANCH   1  14
ATOM     14  S   UNL     1       5.774   6.355  16.750  0.00  0.00    +0.000 S 
ATOM     15  O   UNL     1       6.884   7.053  17.335  0.00  0.00    +0.000 OA
ATOM     16  O   UNL     1       5.133   6.868  15.559  0.00  0.00    +0.000 OA
BRANCH  14  17
ATOM     17  N   UNL     1       6.334   4.802  16.344  0.00  0.00    +0.000 NA
ATOM     18  H   UNL     1       6.904   4.384  17.076  0.00  0.00    +0.000 HD
BRANCH  17  19
ATOM     19  C   UNL     1       6.844   4.645  14.973  0.00  0.00    +0.000 C 
BRANCH  19  20
ATOM     20  C   UNL     1       5.826   3.909  14.106  0.00  0.00    +0.000 C 
BRANCH  20  21
ATOM     21  C   UNL     1       6.389   3.706  12.703  0.00  0.00    +0.000 C 
BRANCH  21  23
ATOM     22  C   UNL     1       5.818   1.805  11.429  0.00  0.00    +0.000 C 
ATOM     23  O   UNL     1       5.392   3.078  11.898  0.00  0.00    +0.000 OA
ENDBRANCH  21  23
ENDBRANCH  20  21
ENDBRANCH  19  20
ENDBRANCH  17  19
ENDBRANCH  14  17
ENDBRANCH   1  14
BRANCH   6  24
ATOM     24  O   UNL     1       4.928   3.804  19.050  0.00  0.00    +0.000 OA
ATOM     25  C   UNL     1       4.267   2.589  19.301  0.00  0.00    +0.000 C 
ENDBRANCH   6  24
TORSDOF 8
ENDMDL
MODEL 7
REMARK VINA RESULT:      -6.8      1.078      1.336
REMARK  Name = 
REMARK  12 active torsions:
REMARK  status: ('A' for Active; 'I' for Inactive)
REMARK    1  A    between atoms: C_1  and  O_2
REMARK    2  A    between atoms: O_2  and  C_3
REMARK    3  A    between atoms: C_3  and  C_4
REMARK    4  A    between atoms: C_4  and  C_5
REMARK    5  A    between atoms: C_5  and  N_6
REMARK    6  A    between atoms: N_6  and  S_7
REMARK    7  A    between atoms: S_7  and  C_10
REMARK    8  A    between atoms: C_12  and  C_13
REMARK    9  A    between atoms: C_16  and  C_17
REMARK   10  A    between atoms: C_18  and  C_19
REMARK   11  A    between atoms: C_22  and  O_23
REMARK   12  A    between atoms: O_23  and  C_24
REMARK                            x       y       z     vdW  Elec       q    Type
REMARK                         _______ _______ _______ _____ _____    ______ ____
ROOT
ATOM      1  C   UNL     1       4.834   5.107  17.588  0.00  0.00    +0.000 A 
ATOM      2  C   UNL     1       4.231   6.382  17.802  0.00  0.00    +0.000 A 
ATOM      3  C   UNL     1       2.861   6.551  18.049  0.00  0.00    +0.000 A 
ATOM      4  C   UNL     1       2.067   5.414  18.060  0.00  0.00    +0.000 A 
ATOM      5  C   UNL     1       2.637   4.163  17.834  0.00  0.00    +0.000 A 
ATOM      6  C   UNL     1       4.019   3.971  17.597  0.00  0.00    +0.000 A 
ENDROOT
BRANCH   3   7
ATOM      7  C   UNL     1       2.293   7.868  18.317  0.00  0.00    +0.000 A 
ATOM      8  O   UNL     1       2.300   8.736  17.265  0.00  0.00    +0.000 OA
ATOM      9  N   UNL     1       1.711   9.927  17.633  0.00  0.00    +0.000 NA
ATOM     10  C   UNL     1       1.353   9.775  18.912  0.00  0.00    +0.000 A 
ATOM     11  C   UNL     1       0.662  10.875  19.626  0.00  0.00    +0.000 C 
ATOM     12  C   UNL     1       1.716   8.491  19.409  0.00  0.00    +0.000 A 
ATOM     13  C   UNL     1       1.530   7.967  20.783  0.00  0.00    +0.000 C 
ENDBRANCH   3   7
BRANCH   1  14
ATOM     14  S   UNL     1       6.625   5.220  17.556  0.00  0.00    +0.000 S 
ATOM     15  O   UNL     1       7.263   4.342  18.496  0.00  0.00    +0.000 OA
ATOM     16  O   UNL     1       6.925   6.635  17.556  0.00  0.00    +0.000 OA
BRANCH  14  17
ATOM     17  N   UNL     1       7.039   4.659  16.005  0.00  0.00    +0.000 NA
ATOM     18  H   UNL     1       7.997   4.887  15.747  0.00  0.00    +0.000 HD
BRANCH  17  19
ATOM     19  C   UNL     1       6.030   4.873  14.957  0.00  0.00    +0.000 C 
BRANCH  19  20
ATOM     20  C   UNL     1       6.208   3.859  13.830  0.00  0.00    +0.000 C 
BRANCH  20  21
ATOM     21  C   UNL     1       7.123   4.434  12.754  0.00  0.00    +0.000 C 
BRANCH  21  23
ATOM     22  C   UNL     1       8.935   5.941  12.650  0.00  0.00    +0.000 C 
ATOM     23  O   UNL     1       7.665   5.667  13.227  0.00  0.00    +0.000 OA
ENDBRANCH  21  23
ENDBRANCH  20  21
ENDBRANCH  19  20
ENDBRANCH  17  19
ENDBRANCH  14  17
ENDBRANCH   1  14
BRANCH   6  24
ATOM     24  O   UNL     1       4.214   2.634  17.456  0.00  0.00    +0.000 OA
ATOM     25  C   UNL     1       3.700   1.670  18.340  0.00  0.00    +0.000 C 
ENDBRANCH   6  24
TORSDOF 8
ENDMDL
MODEL 8
REMARK VINA RESULT:      -6.8      1.902      2.299
REMARK  Name = 
REMARK  12 active torsions:
REMARK  status: ('A' for Active; 'I' for Inactive)
REMARK    1  A    between atoms: C_1  and  O_2
REMARK    2  A    between atoms: O_2  and  C_3
REMARK    3  A    between atoms: C_3  and  C_4
REMARK    4  A    between atoms: C_4  and  C_5
REMARK    5  A    between atoms: C_5  and  N_6
REMARK    6  A    between atoms: N_6  and  S_7
REMARK    7  A    between atoms: S_7  and  C_10
REMARK    8  A    between atoms: C_12  and  C_13
REMARK    9  A    between atoms: C_16  and  C_17
REMARK   10  A    between atoms: C_18  and  C_19
REMARK   11  A    between atoms: C_22  and  O_23
REMARK   12  A    between atoms: O_23  and  C_24
REMARK                            x       y       z     vdW  Elec       q    Type
REMARK                         _______ _______ _______ _____ _____    ______ ____
ROOT
ATOM      1  C   UNL     1       3.448   4.780  19.072  0.00  0.00    +0.000 A 
ATOM      2  C   UNL     1       3.108   6.120  18.718  0.00  0.00    +0.000 A 
ATOM      3  C   UNL     1       2.195   6.898  19.444  0.00  0.00    +0.000 A 
ATOM      4  C   UNL     1       1.588   6.313  20.545  0.00  0.00    +0.000 A 
ATOM      5  C   UNL     1       1.894   4.999  20.894  0.00  0.00    +0.000 A 
ATOM      6  C   UNL     1       2.823   4.202  20.182  0.00  0.00    +0.000 A 
ENDROOT
BRANCH   3   7
ATOM      7  C   UNL     1       1.917   8.283  19.078  0.00  0.00    +0.000 A 
ATOM      8  O   UNL     1       2.479   8.706  17.910  0.00  0.00    +0.000 OA
ATOM      9  N   UNL     1       2.117  10.013  17.660  0.00  0.00    +0.000 NA
ATOM     10  C   UNL     1       1.338  10.376  18.684  0.00  0.00    +0.000 A 
ATOM     11  C   UNL     1       0.749  11.737  18.723  0.00  0.00    +0.000 C 
ATOM     12  C   UNL     1       1.192   9.323  19.630  0.00  0.00    +0.000 A 
ATOM     13  C   UNL     1       0.447   9.356  20.912  0.00  0.00    +0.000 C 
ENDBRANCH   3   7
BRANCH   1  14
ATOM     14  S   UNL     1       4.822   4.165  18.095  0.00  0.00    +0.000 S 
ATOM     15  O   UNL     1       4.454   3.091  17.216  0.00  0.00    +0.000 OA
ATOM     16  O   UNL     1       5.919   4.007  19.024  0.00  0.00    +0.000 OA
BRANCH  14  17
ATOM     17  N   UNL     1       5.238   5.484  17.106  0.00  0.00    +0.000 NA
ATOM     18  H   UNL     1       4.668   5.540  16.264  0.00  0.00    +0.000 HD
BRANCH  17  19
ATOM     19  C   UNL     1       6.679   5.710  16.916  0.00  0.00    +0.000 C 
BRANCH  19  20
ATOM     20  C   UNL     1       7.251   4.702  15.923  0.00  0.00    +0.000 C 
BRANCH  20  21
ATOM     21  C   UNL     1       6.737   5.005  14.520  0.00  0.00    +0.000 C 
BRANCH  21  23
ATOM     22  C   UNL     1       5.956   3.516  12.865  0.00  0.00    +0.000 C 
ATOM     23  O   UNL     1       5.753   4.031  14.174  0.00  0.00    +0.000 OA
ENDBRANCH  21  23
ENDBRANCH  20  21
ENDBRANCH  19  20
ENDBRANCH  17  19
ENDBRANCH  14  17
ENDBRANCH   1  14
BRANCH   6  24
ATOM     24  O   UNL     1       2.890   3.007  20.822  0.00  0.00    +0.000 OA
ATOM     25  C   UNL     1       1.877   2.508  21.659  0.00  0.00    +0.000 C 
ENDBRANCH   6  24
TORSDOF 8
ENDMDL
MODEL 9
REMARK VINA RESULT:      -6.7      3.114      4.892
REMARK  Name = 
REMARK  12 active torsions:
REMARK  status: ('A' for Active; 'I' for Inactive)
REMARK    1  A    between atoms: C_1  and  O_2
REMARK    2  A    between atoms: O_2  and  C_3
REMARK    3  A    between atoms: C_3  and  C_4
REMARK    4  A    between atoms: C_4  and  C_5
REMARK    5  A    between atoms: C_5  and  N_6
REMARK    6  A    between atoms: N_6  and  S_7
REMARK    7  A    between atoms: S_7  and  C_10
REMARK    8  A    between atoms: C_12  and  C_13
REMARK    9  A    between atoms: C_16  and  C_17
REMARK   10  A    between atoms: C_18  and  C_19
REMARK   11  A    between atoms: C_22  and  O_23
REMARK   12  A    between atoms: O_23  and  C_24
REMARK                            x       y       z     vdW  Elec       q    Type
REMARK                         _______ _______ _______ _____ _____    ______ ____
ROOT
ATOM      1  C   UNL     1       5.426   5.681  17.111  0.00  0.00    +0.000 A 
ATOM      2  C   UNL     1       4.593   6.543  17.885  0.00  0.00    +0.000 A 
ATOM      3  C   UNL     1       3.269   6.229  18.225  0.00  0.00    +0.000 A 
ATOM      4  C   UNL     1       2.755   5.029  17.759  0.00  0.00    +0.000 A 
ATOM      5  C   UNL     1       3.549   4.184  16.984  0.00  0.00    +0.000 A 
ATOM      6  C   UNL     1       4.891   4.476  16.643  0.00  0.00    +0.000 A 
ENDROOT
BRANCH   3   7
ATOM      7  C   UNL     1       2.470   7.115  19.065  0.00  0.00    +0.000 A 
ATOM      8  O   UNL     1       2.133   6.617  20.289  0.00  0.00    +0.000 OA
ATOM      9  N   UNL     1       1.411   7.555  20.996  0.00  0.00    +0.000 NA
ATOM     10  C   UNL     1       1.311   8.618  20.192  0.00  0.00    +0.000 A 
ATOM     11  C   UNL     1       0.603   9.836  20.655  0.00  0.00    +0.000 C 
ATOM     12  C   UNL     1       1.948   8.389  18.940  0.00  0.00    +0.000 A 
ATOM     13  C   UNL     1       2.011   9.306  17.777  0.00  0.00    +0.000 C 
ENDBRANCH   3   7
BRANCH   1  14
ATOM     14  S   UNL     1       7.124   6.260  17.074  0.00  0.00    +0.000 S 
ATOM     15  O   UNL     1       7.737   6.129  15.782  0.00  0.00    +0.000 OA
ATOM     16  O   UNL     1       7.754   5.688  18.244  0.00  0.00    +0.000 OA
BRANCH  14  17
ATOM     17  N   UNL     1       6.992   7.925  17.386  0.00  0.00    +0.000 NA
ATOM     18  H   UNL     1       6.573   8.439  16.613  0.00  0.00    +0.000 HD
BRANCH  17  19
ATOM     19  C   UNL     1       8.169   8.555  18.004  0.00  0.00    +0.000 C 
BRANCH  19  20
ATOM     20  C   UNL     1       8.113  10.071  17.835  0.00  0.00    +0.000 C 
BRANCH  20  21
ATOM     21  C   UNL     1       9.325  10.713  18.502  0.00  0.00    +0.000 C 
BRANCH  21  23
ATOM     22  C   UNL     1       9.606  11.413  20.737  0.00  0.00    +0.000 C 
ATOM     23  O   UNL     1       9.357  10.314  19.872  0.00  0.00    +0.000 OA
ENDBRANCH  21  23
ENDBRANCH  20  21
ENDBRANCH  19  20
ENDBRANCH  17  19
ENDBRANCH  14  17
ENDBRANCH   1  14
BRANCH   6  24
ATOM     24  O   UNL     1       5.353   3.424  15.920  0.00  0.00    +0.000 OA
ATOM     25  C   UNL     1       5.939   3.544  14.648  0.00  0.00    +0.000 C 
ENDBRANCH   6  24
TORSDOF 8
ENDMDL
