MODEL 1
REMARK VINA RESULT:      -6.8      0.000      0.000
REMARK  Name = 
REMARK  9 active torsions:
REMARK  status: ('A' for Active; 'I' for Inactive)
REMARK    1  A    between atoms: C_1  and  C_2
REMARK    2  A    between atoms: C_2  and  C_12
REMARK    3  A    between atoms: N_3  and  N_4
REMARK    4  A    between atoms: C_5  and  O_7
REMARK    5  A    between atoms: O_7  and  C_8
REMARK    6  A    between atoms: C_8  and  C_9
REMARK    7  A    between atoms: C_8  and  C_10
REMARK    8  A    between atoms: C_8  and  C_11
REMARK    9  A    between atoms: C_15  and  N_16
REMARK                            x       y       z     vdW  Elec       q    Type
REMARK                         _______ _______ _______ _____ _____    ______ ____
ROOT
ATOM      1  C   UNL     1       1.827   8.766  18.578  0.00  0.00    +0.000 C 
ATOM      2  C   UNL     1       1.502   8.447  20.021  0.00  0.00    +0.000 C 
ATOM      3  N   UNL     1       1.878   7.377  20.653  0.00  0.00    +0.000 NA
ENDROOT
BRANCH   2   4
ATOM      4  C   UNL     1       0.673   9.452  20.779  0.00  0.00    +0.000 A 
ATOM      5  C   UNL     1       0.318  10.681  20.214  0.00  0.00    +0.000 A 
ATOM      6  C   UNL     1      -0.455  11.602  20.928  0.00  0.00    +0.000 A 
ATOM      7  C   UNL     1      -0.885  11.313  22.229  0.00  0.00    +0.000 A 
ATOM      8  C   UNL     1      -0.530  10.084  22.802  0.00  0.00    +0.000 A 
ATOM      9  C   UNL     1       0.237   9.161  22.079  0.00  0.00    +0.000 A 
BRANCH   7  10
ATOM     10  N   UNL     1      -1.671  12.253  22.953  0.00  0.00    +0.000 N 
ATOM     11  C   UNL     1      -1.332  13.549  23.292  0.00  0.00    +0.000 A 
ATOM     12  C   UNL     1      -2.408  14.061  23.972  0.00  0.00    +0.000 A 
ATOM     13  N   UNL     1      -3.399  13.134  24.080  0.00  0.00    +0.000 NA
ATOM     14  C   UNL     1      -2.935  12.066  23.467  0.00  0.00    +0.000 A 
ENDBRANCH   7  10
ENDBRANCH   2   4
BRANCH   3  15
ATOM     15  N   UNL     1       2.618   6.400  20.061  0.00  0.00    +0.000 N 
ATOM     16  C   UNL     1       2.221   5.088  20.207  0.00  0.00    +0.000 C 
ATOM     17  O   UNL     1       1.220   4.748  20.820  0.00  0.00    +0.000 OA
ATOM     18  H   UNL     1       3.452   6.592  19.523  0.00  0.00    +0.000 HD
BRANCH  16  19
ATOM     19  O   UNL     1       3.090   4.233  19.589  0.00  0.00    +0.000 OA
BRANCH  19  20
ATOM     20  C   UNL     1       2.626   3.524  18.401  0.00  0.00    +0.000 C 
ATOM     21  C   UNL     1       1.575   4.347  17.641  0.00  0.00    +0.000 C 
ATOM     22  C   UNL     1       3.843   3.319  17.479  0.00  0.00    +0.000 C 
ATOM     23  C   UNL     1       2.095   2.128  18.764  0.00  0.00    +0.000 C 
ENDBRANCH  19  20
ENDBRANCH  16  19
ENDBRANCH   3  15
TORSDOF 5
ENDMDL
MODEL 2
REMARK VINA RESULT:      -6.7      0.466      1.128
REMARK  Name = 
REMARK  9 active torsions:
REMARK  status: ('A' for Active; 'I' for Inactive)
REMARK    1  A    between atoms: C_1  and  C_2
REMARK    2  A    between atoms: C_2  and  C_12
REMARK    3  A    between atoms: N_3  and  N_4
REMARK    4  A    between atoms: C_5  and  O_7
REMARK    5  A    between atoms: O_7  and  C_8
REMARK    6  A    between atoms: C_8  and  C_9
REMARK    7  A    between atoms: C_8  and  C_10
REMARK    8  A    between atoms: C_8  and  C_11
REMARK    9  A    between atoms: C_15  and  N_16
REMARK                            x       y       z     vdW  Elec       q    Type
REMARK                         _______ _______ _______ _____ _____    ______ ____
ROOT
ATOM      1  C   UNL     1       2.027   8.434  18.632  0.00  0.00    +0.000 C 
ATOM      2  C   UNL     1       1.628   8.132  20.060  0.00  0.00    +0.000 C 
ATOM      3  N   UNL     1       1.925   7.045  20.706  0.00  0.00    +0.000 NA
ENDROOT
BRANCH   2   4
ATOM      4  C   UNL     1       0.816   9.175  20.784  0.00  0.00    +0.000 A 
ATOM      5  C   UNL     1       0.344   8.962  22.083  0.00  0.00    +0.000 A 
ATOM      6  C   UNL     1      -0.405   9.941  22.744  0.00  0.00    +0.000 A 
ATOM      7  C   UNL     1      -0.702  11.155  22.113  0.00  0.00    +0.000 A 
ATOM      8  C   UNL     1      -0.234  11.374  20.810  0.00  0.00    +0.000 A 
ATOM      9  C   UNL     1       0.523  10.393  20.156  0.00  0.00    +0.000 A 
BRANCH   7  10
ATOM     10  N   UNL     1      -1.466  12.149  22.789  0.00  0.00    +0.000 N 
ATOM     11  C   UNL     1      -1.086  13.444  23.087  0.00  0.00    +0.000 A 
ATOM     12  C   UNL     1      -2.153  14.017  23.730  0.00  0.00    +0.000 A 
ATOM     13  N   UNL     1      -3.179  13.131  23.853  0.00  0.00    +0.000 NA
ATOM     14  C   UNL     1      -2.743  12.026  23.287  0.00  0.00    +0.000 A 
ENDBRANCH   7  10
ENDBRANCH   2   4
BRANCH   3  15
ATOM     15  N   UNL     1       2.642   6.033  20.144  0.00  0.00    +0.000 N 
ATOM     16  C   UNL     1       2.126   4.755  20.183  0.00  0.00    +0.000 C 
ATOM     17  O   UNL     1       1.042   4.478  20.673  0.00  0.00    +0.000 OA
ATOM     18  H   UNL     1       3.541   6.175  19.705  0.00  0.00    +0.000 HD
BRANCH  16  19
ATOM     19  O   UNL     1       2.984   3.856  19.614  0.00  0.00    +0.000 OA
BRANCH  19  20
ATOM     20  C   UNL     1       2.886   3.629  18.176  0.00  0.00    +0.000 C 
ATOM     21  C   UNL     1       1.600   4.247  17.606  0.00  0.00    +0.000 C 
ATOM     22  C   UNL     1       4.093   4.323  17.515  0.00  0.00    +0.000 C 
ATOM     23  C   UNL     1       2.988   2.133  17.845  0.00  0.00    +0.000 C 
ENDBRANCH  19  20
ENDBRANCH  16  19
ENDBRANCH   3  15
TORSDOF 5
ENDMDL
MODEL 3
REMARK VINA RESULT:      -6.7      0.446      1.204
REMARK  Name = 
REMARK  9 active torsions:
REMARK  status: ('A' for Active; 'I' for Inactive)
REMARK    1  A    between atoms: C_1  and  C_2
REMARK    2  A    between atoms: C_2  and  C_12
REMARK    3  A    between atoms: N_3  and  N_4
REMARK    4  A    between atoms: C_5  and  O_7
REMARK    5  A    between atoms: O_7  and  C_8
REMARK    6  A    between atoms: C_8  and  C_9
REMARK    7  A    between atoms: C_8  and  C_10
REMARK    8  A    between atoms: C_8  and  C_11
REMARK    9  A    between atoms: C_15  and  N_16
REMARK                            x       y       z     vdW  Elec       q    Type
REMARK                         _______ _______ _______ _____ _____    ______ ____
ROOT
ATOM      1  C   UNL     1       1.766   8.934  18.530  0.00  0.00    +0.000 C 
ATOM      2  C   UNL     1       1.456   8.599  19.972  0.00  0.00    +0.000 C 
ATOM      3  N   UNL     1       1.853   7.529  20.592  0.00  0.00    +0.000 NA
ENDROOT
BRANCH   2   4
ATOM      4  C   UNL     1       0.616   9.584  20.744  0.00  0.00    +0.000 A 
ATOM      5  C   UNL     1       0.151  10.764  20.156  0.00  0.00    +0.000 A 
ATOM      6  C   UNL     1      -0.631  11.668  20.883  0.00  0.00    +0.000 A 
ATOM      7  C   UNL     1      -0.958  11.410  22.220  0.00  0.00    +0.000 A 
ATOM      8  C   UNL     1      -0.491  10.230  22.816  0.00  0.00    +0.000 A 
ATOM      9  C   UNL     1       0.284   9.324  22.080  0.00  0.00    +0.000 A 
BRANCH   7  10
ATOM     10  N   UNL     1      -1.753  12.333  22.958  0.00  0.00    +0.000 N 
ATOM     11  C   UNL     1      -3.054  12.164  23.390  0.00  0.00    +0.000 A 
ATOM     12  C   UNL     1      -3.386  13.313  24.063  0.00  0.00    +0.000 A 
ATOM     13  N   UNL     1      -2.348  14.194  24.059  0.00  0.00    +0.000 NA
ATOM     14  C   UNL     1      -1.389  13.587  23.393  0.00  0.00    +0.000 A 
ENDBRANCH   7  10
ENDBRANCH   2   4
BRANCH   3  15
ATOM     15  N   UNL     1       2.603   6.568  19.988  0.00  0.00    +0.000 N 
ATOM     16  C   UNL     1       2.224   5.249  20.121  0.00  0.00    +0.000 C 
ATOM     17  O   UNL     1       1.230   4.890  20.734  0.00  0.00    +0.000 OA
ATOM     18  H   UNL     1       3.433   6.777  19.450  0.00  0.00    +0.000 HD
BRANCH  16  19
ATOM     19  O   UNL     1       3.103   4.413  19.491  0.00  0.00    +0.000 OA
BRANCH  19  20
ATOM     20  C   UNL     1       2.643   3.706  18.300  0.00  0.00    +0.000 C 
ATOM     21  C   UNL     1       3.789   3.513  17.296  0.00  0.00    +0.000 C 
ATOM     22  C   UNL     1       2.149   2.317  18.748  0.00  0.00    +0.000 C 
ATOM     23  C   UNL     1       1.446   4.425  17.659  0.00  0.00    +0.000 C 
ENDBRANCH  19  20
ENDBRANCH  16  19
ENDBRANCH   3  15
TORSDOF 5
ENDMDL
MODEL 4
REMARK VINA RESULT:      -6.6      3.817      6.036
REMARK  Name = 
REMARK  9 active torsions:
REMARK  status: ('A' for Active; 'I' for Inactive)
REMARK    1  A    between atoms: C_1  and  C_2
REMARK    2  A    between atoms: C_2  and  C_12
REMARK    3  A    between atoms: N_3  and  N_4
REMARK    4  A    between atoms: C_5  and  O_7
REMARK    5  A    between atoms: O_7  and  C_8
REMARK    6  A    between atoms: C_8  and  C_9
REMARK    7  A    between atoms: C_8  and  C_10
REMARK    8  A    between atoms: C_8  and  C_11
REMARK    9  A    between atoms: C_15  and  N_16
REMARK                            x       y       z     vdW  Elec       q    Type
REMARK                         _______ _______ _______ _____ _____    ______ ____
ROOT
ATOM      1  C   UNL     1       3.121   3.145  17.598  0.00  0.00    +0.000 C 
ATOM      2  C   UNL     1       3.620   4.556  17.375  0.00  0.00    +0.000 C 
ATOM      3  N   UNL     1       4.522   4.902  16.508  0.00  0.00    +0.000 NA
ENDROOT
BRANCH   2   4
ATOM      4  C   UNL     1       3.022   5.641  18.233  0.00  0.00    +0.000 A 
ATOM      5  C   UNL     1       2.494   5.364  19.498  0.00  0.00    +0.000 A 
ATOM      6  C   UNL     1       1.946   6.383  20.285  0.00  0.00    +0.000 A 
ATOM      7  C   UNL     1       1.909   7.702  19.816  0.00  0.00    +0.000 A 
ATOM      8  C   UNL     1       2.433   7.985  18.548  0.00  0.00    +0.000 A 
ATOM      9  C   UNL     1       2.989   6.963  17.767  0.00  0.00    +0.000 A 
BRANCH   7  10
ATOM     10  N   UNL     1       1.349   8.735  20.620  0.00  0.00    +0.000 N 
ATOM     11  C   UNL     1       0.649   9.847  20.193  0.00  0.00    +0.000 A 
ATOM     12  C   UNL     1       0.305  10.541  21.325  0.00  0.00    +0.000 A 
ATOM     13  N   UNL     1       0.770   9.912  22.439  0.00  0.00    +0.000 NA
ATOM     14  C   UNL     1       1.390   8.842  21.992  0.00  0.00    +0.000 A 
ENDBRANCH   7  10
ENDBRANCH   2   4
BRANCH   3  15
ATOM     15  N   UNL     1       5.136   4.002  15.692  0.00  0.00    +0.000 N 
ATOM     16  C   UNL     1       5.958   4.470  14.688  0.00  0.00    +0.000 C 
ATOM     17  O   UNL     1       6.190   5.655  14.502  0.00  0.00    +0.000 OA
ATOM     18  H   UNL     1       5.012   3.003  15.784  0.00  0.00    +0.000 HD
BRANCH  16  19
ATOM     19  O   UNL     1       6.461   3.444  13.939  0.00  0.00    +0.000 OA
BRANCH  19  20
ATOM     20  C   UNL     1       6.227   3.467  12.499  0.00  0.00    +0.000 C 
ATOM     21  C   UNL     1       4.772   3.842  12.182  0.00  0.00    +0.000 C 
ATOM     22  C   UNL     1       7.149   4.545  11.897  0.00  0.00    +0.000 C 
ATOM     23  C   UNL     1       6.618   2.128  11.855  0.00  0.00    +0.000 C 
ENDBRANCH  19  20
ENDBRANCH  16  19
ENDBRANCH   3  15
TORSDOF 5
ENDMDL
MODEL 5
REMARK VINA RESULT:      -6.5      3.831      5.952
REMARK  Name = 
REMARK  9 active torsions:
REMARK  status: ('A' for Active; 'I' for Inactive)
REMARK    1  A    between atoms: C_1  and  C_2
REMARK    2  A    between atoms: C_2  and  C_12
REMARK    3  A    between atoms: N_3  and  N_4
REMARK    4  A    between atoms: C_5  and  O_7
REMARK    5  A    between atoms: O_7  and  C_8
REMARK    6  A    between atoms: C_8  and  C_9
REMARK    7  A    between atoms: C_8  and  C_10
REMARK    8  A    between atoms: C_8  and  C_11
REMARK    9  A    between atoms: C_15  and  N_16
REMARK                            x       y       z     vdW  Elec       q    Type
REMARK                         _______ _______ _______ _____ _____    ______ ____
ROOT
ATOM      1  C   UNL     1       2.947   3.242  17.390  0.00  0.00    +0.000 C 
ATOM      2  C   UNL     1       3.573   4.615  17.283  0.00  0.00    +0.000 C 
ATOM      3  N   UNL     1       4.567   4.925  16.506  0.00  0.00    +0.000 NA
ENDROOT
BRANCH   2   4
ATOM      4  C   UNL     1       2.999   5.704  18.152  0.00  0.00    +0.000 A 
ATOM      5  C   UNL     1       2.951   7.034  17.720  0.00  0.00    +0.000 A 
ATOM      6  C   UNL     1       2.411   8.034  18.536  0.00  0.00    +0.000 A 
ATOM      7  C   UNL     1       1.913   7.722  19.808  0.00  0.00    +0.000 A 
ATOM      8  C   UNL     1       1.961   6.392  20.247  0.00  0.00    +0.000 A 
ATOM      9  C   UNL     1       2.494   5.393  19.422  0.00  0.00    +0.000 A 
BRANCH   7  10
ATOM     10  N   UNL     1       1.365   8.743  20.635  0.00  0.00    +0.000 N 
ATOM     11  C   UNL     1       0.696   9.883  20.234  0.00  0.00    +0.000 A 
ATOM     12  C   UNL     1       0.352  10.550  21.382  0.00  0.00    +0.000 A 
ATOM     13  N   UNL     1       0.787   9.876  22.483  0.00  0.00    +0.000 NA
ATOM     14  C   UNL     1       1.389   8.806  22.011  0.00  0.00    +0.000 A 
ENDBRANCH   7  10
ENDBRANCH   2   4
BRANCH   3  15
ATOM     15  N   UNL     1       5.169   4.017  15.690  0.00  0.00    +0.000 N 
ATOM     16  C   UNL     1       5.977   4.475  14.671  0.00  0.00    +0.000 C 
ATOM     17  O   UNL     1       6.207   5.658  14.470  0.00  0.00    +0.000 OA
ATOM     18  H   UNL     1       5.045   3.019  15.793  0.00  0.00    +0.000 HD
BRANCH  16  19
ATOM     19  O   UNL     1       6.469   3.442  13.925  0.00  0.00    +0.000 OA
BRANCH  19  20
ATOM     20  C   UNL     1       6.242   3.467  12.484  0.00  0.00    +0.000 C 
ATOM     21  C   UNL     1       4.781   3.810  12.161  0.00  0.00    +0.000 C 
ATOM     22  C   UNL     1       7.143   4.570  11.893  0.00  0.00    +0.000 C 
ATOM     23  C   UNL     1       6.667   2.142  11.835  0.00  0.00    +0.000 C 
ENDBRANCH  19  20
ENDBRANCH  16  19
ENDBRANCH   3  15
TORSDOF 5
ENDMDL
MODEL 6
REMARK VINA RESULT:      -6.5      0.621      1.566
REMARK  Name = 
REMARK  9 active torsions:
REMARK  status: ('A' for Active; 'I' for Inactive)
REMARK    1  A    between atoms: C_1  and  C_2
REMARK    2  A    between atoms: C_2  and  C_12
REMARK    3  A    between atoms: N_3  and  N_4
REMARK    4  A    between atoms: C_5  and  O_7
REMARK    5  A    between atoms: O_7  and  C_8
REMARK    6  A    between atoms: C_8  and  C_9
REMARK    7  A    between atoms: C_8  and  C_10
REMARK    8  A    between atoms: C_8  and  C_11
REMARK    9  A    between atoms: C_15  and  N_16
REMARK                            x       y       z     vdW  Elec       q    Type
REMARK                         _______ _______ _______ _____ _____    ______ ____
ROOT
ATOM      1  C   UNL     1       1.963   8.565  18.404  0.00  0.00    +0.000 C 
ATOM      2  C   UNL     1       1.611   8.277  19.847  0.00  0.00    +0.000 C 
ATOM      3  N   UNL     1       1.969   7.217  20.507  0.00  0.00    +0.000 NA
ENDROOT
BRANCH   2   4
ATOM      4  C   UNL     1       0.774   9.301  20.569  0.00  0.00    +0.000 A 
ATOM      5  C   UNL     1       0.425   9.142  21.914  0.00  0.00    +0.000 A 
ATOM      6  C   UNL     1      -0.350  10.103  22.573  0.00  0.00    +0.000 A 
ATOM      7  C   UNL     1      -0.798  11.243  21.893  0.00  0.00    +0.000 A 
ATOM      8  C   UNL     1      -0.454  11.406  20.544  0.00  0.00    +0.000 A 
ATOM      9  C   UNL     1       0.330  10.445  19.892  0.00  0.00    +0.000 A 
BRANCH   7  10
ATOM     10  N   UNL     1      -1.586  12.218  22.567  0.00  0.00    +0.000 N 
ATOM     11  C   UNL     1      -2.700  12.001  23.354  0.00  0.00    +0.000 A 
ATOM     12  C   UNL     1      -3.107  13.236  23.791  0.00  0.00    +0.000 A 
ATOM     13  N   UNL     1      -2.298  14.215  23.300  0.00  0.00    +0.000 NA
ATOM     14  C   UNL     1      -1.403  13.583  22.572  0.00  0.00    +0.000 A 
ENDBRANCH   7  10
ENDBRANCH   2   4
BRANCH   3  15
ATOM     15  N   UNL     1       2.714   6.224  19.949  0.00  0.00    +0.000 N 
ATOM     16  C   UNL     1       2.295   4.919  20.096  0.00  0.00    +0.000 C 
ATOM     17  O   UNL     1       1.271   4.599  20.681  0.00  0.00    +0.000 OA
ATOM     18  H   UNL     1       3.567   6.400  19.436  0.00  0.00    +0.000 HD
BRANCH  16  19
ATOM     19  O   UNL     1       3.171   4.047  19.514  0.00  0.00    +0.000 OA
BRANCH  19  20
ATOM     20  C   UNL     1       2.978   3.717  18.106  0.00  0.00    +0.000 C 
ATOM     21  C   UNL     1       4.161   4.206  17.257  0.00  0.00    +0.000 C 
ATOM     22  C   UNL     1       2.901   2.182  17.996  0.00  0.00    +0.000 C 
ATOM     23  C   UNL     1       1.644   4.274  17.587  0.00  0.00    +0.000 C 
ENDBRANCH  19  20
ENDBRANCH  16  19
ENDBRANCH   3  15
TORSDOF 5
ENDMDL
MODEL 7
REMARK VINA RESULT:      -6.5      3.748      6.022
REMARK  Name = 
REMARK  9 active torsions:
REMARK  status: ('A' for Active; 'I' for Inactive)
REMARK    1  A    between atoms: C_1  and  C_2
REMARK    2  A    between atoms: C_2  and  C_12
REMARK    3  A    between atoms: N_3  and  N_4
REMARK    4  A    between atoms: C_5  and  O_7
REMARK    5  A    between atoms: O_7  and  C_8
REMARK    6  A    between atoms: C_8  and  C_9
REMARK    7  A    between atoms: C_8  and  C_10
REMARK    8  A    between atoms: C_8  and  C_11
REMARK    9  A    between atoms: C_15  and  N_16
REMARK                            x       y       z     vdW  Elec       q    Type
REMARK                         _______ _______ _______ _____ _____    ______ ____
ROOT
ATOM      1  C   UNL     1       2.966   2.899  17.524  0.00  0.00    +0.000 C 
ATOM      2  C   UNL     1       3.497   4.314  17.467  0.00  0.00    +0.000 C 
ATOM      3  N   UNL     1       4.438   4.728  16.673  0.00  0.00    +0.000 NA
ENDROOT
BRANCH   2   4
ATOM      4  C   UNL     1       2.887   5.318  18.411  0.00  0.00    +0.000 A 
ATOM      5  C   UNL     1       2.900   6.688  18.129  0.00  0.00    +0.000 A 
ATOM      6  C   UNL     1       2.326   7.608  19.013  0.00  0.00    +0.000 A 
ATOM      7  C   UNL     1       1.731   7.173  20.204  0.00  0.00    +0.000 A 
ATOM      8  C   UNL     1       1.718   5.802  20.494  0.00  0.00    +0.000 A 
ATOM      9  C   UNL     1       2.287   4.884  19.601  0.00  0.00    +0.000 A 
BRANCH   7  10
ATOM     10  N   UNL     1       1.149   8.113  21.102  0.00  0.00    +0.000 N 
ATOM     11  C   UNL     1      -0.194   8.371  21.295  0.00  0.00    +0.000 A 
ATOM     12  C   UNL     1      -0.262   9.342  22.262  0.00  0.00    +0.000 A 
ATOM     13  N   UNL     1       0.984   9.706  22.672  0.00  0.00    +0.000 NA
ATOM     14  C   UNL     1       1.806   8.962  21.964  0.00  0.00    +0.000 A 
ENDBRANCH   7  10
ENDBRANCH   2   4
BRANCH   3  15
ATOM     15  N   UNL     1       5.066   3.904  15.791  0.00  0.00    +0.000 N 
ATOM     16  C   UNL     1       5.927   4.456  14.866  0.00  0.00    +0.000 C 
ATOM     17  O   UNL     1       6.181   5.650  14.806  0.00  0.00    +0.000 OA
ATOM     18  H   UNL     1       4.925   2.903  15.779  0.00  0.00    +0.000 HD
BRANCH  16  19
ATOM     19  O   UNL     1       6.441   3.502  14.034  0.00  0.00    +0.000 OA
BRANCH  19  20
ATOM     20  C   UNL     1       6.231   3.658  12.598  0.00  0.00    +0.000 C 
ATOM     21  C   UNL     1       7.202   4.690  12.007  0.00  0.00    +0.000 C 
ATOM     22  C   UNL     1       6.509   2.293  11.938  0.00  0.00    +0.000 C 
ATOM     23  C   UNL     1       4.769   4.018  12.290  0.00  0.00    +0.000 C 
ENDBRANCH  19  20
ENDBRANCH  16  19
ENDBRANCH   3  15
TORSDOF 5
ENDMDL
MODEL 8
REMARK VINA RESULT:      -6.4      0.849      1.023
REMARK  Name = 
REMARK  9 active torsions:
REMARK  status: ('A' for Active; 'I' for Inactive)
REMARK    1  A    between atoms: C_1  and  C_2
REMARK    2  A    between atoms: C_2  and  C_12
REMARK    3  A    between atoms: N_3  and  N_4
REMARK    4  A    between atoms: C_5  and  O_7
REMARK    5  A    between atoms: O_7  and  C_8
REMARK    6  A    between atoms: C_8  and  C_9
REMARK    7  A    between atoms: C_8  and  C_10
REMARK    8  A    between atoms: C_8  and  C_11
REMARK    9  A    between atoms: C_15  and  N_16
REMARK                            x       y       z     vdW  Elec       q    Type
REMARK                         _______ _______ _______ _____ _____    ______ ____
ROOT
ATOM      1  C   UNL     1       2.167   8.239  18.280  0.00  0.00    +0.000 C 
ATOM      2  C   UNL     1       1.779   8.038  19.728  0.00  0.00    +0.000 C 
ATOM      3  N   UNL     1       2.128   7.025  20.462  0.00  0.00    +0.000 NA
ENDROOT
BRANCH   2   4
ATOM      4  C   UNL     1       0.914   9.096  20.363  0.00  0.00    +0.000 A 
ATOM      5  C   UNL     1       0.613  10.289  19.697  0.00  0.00    +0.000 A 
ATOM      6  C   UNL     1      -0.195  11.261  20.297  0.00  0.00    +0.000 A 
ATOM      7  C   UNL     1      -0.713  11.060  21.583  0.00  0.00    +0.000 A 
ATOM      8  C   UNL     1      -0.412   9.868  22.256  0.00  0.00    +0.000 A 
ATOM      9  C   UNL     1       0.390   8.894  21.647  0.00  0.00    +0.000 A 
BRANCH   7  10
ATOM     10  N   UNL     1      -1.534  12.053  22.191  0.00  0.00    +0.000 N 
ATOM     11  C   UNL     1      -2.374  11.900  23.276  0.00  0.00    +0.000 A 
ATOM     12  C   UNL     1      -2.940  13.130  23.498  0.00  0.00    +0.000 A 
ATOM     13  N   UNL     1      -2.495  14.040  22.589  0.00  0.00    +0.000 NA
ATOM     14  C   UNL     1      -1.661  13.373  21.821  0.00  0.00    +0.000 A 
ENDBRANCH   7  10
ENDBRANCH   2   4
BRANCH   3  15
ATOM     15  N   UNL     1       2.896   6.007  19.987  0.00  0.00    +0.000 N 
ATOM     16  C   UNL     1       2.434   4.714  20.114  0.00  0.00    +0.000 C 
ATOM     17  O   UNL     1       1.355   4.426  20.609  0.00  0.00    +0.000 OA
ATOM     18  H   UNL     1       3.795   6.155  19.550  0.00  0.00    +0.000 HD
BRANCH  16  19
ATOM     19  O   UNL     1       3.338   3.813  19.625  0.00  0.00    +0.000 OA
BRANCH  19  20
ATOM     20  C   UNL     1       3.167   3.345  18.253  0.00  0.00    +0.000 C 
ATOM     21  C   UNL     1       1.882   3.913  17.632  0.00  0.00    +0.000 C 
ATOM     22  C   UNL     1       4.370   3.856  17.436  0.00  0.00    +0.000 C 
ATOM     23  C   UNL     1       3.195   1.811  18.186  0.00  0.00    +0.000 C 
ENDBRANCH  19  20
ENDBRANCH  16  19
ENDBRANCH   3  15
TORSDOF 5
ENDMDL
MODEL 9
REMARK VINA RESULT:      -6.3      0.792      1.448
REMARK  Name = 
REMARK  9 active torsions:
REMARK  status: ('A' for Active; 'I' for Inactive)
REMARK    1  A    between atoms: C_1  and  C_2
REMARK    2  A    between atoms: C_2  and  C_12
REMARK    3  A    between atoms: N_3  and  N_4
REMARK    4  A    between atoms: C_5  and  O_7
REMARK    5  A    between atoms: O_7  and  C_8
REMARK    6  A    between atoms: C_8  and  C_9
REMARK    7  A    between atoms: C_8  and  C_10
REMARK    8  A    between atoms: C_8  and  C_11
REMARK    9  A    between atoms: C_15  and  N_16
REMARK                            x       y       z     vdW  Elec       q    Type
REMARK                         _______ _______ _______ _____ _____    ______ ____
ROOT
ATOM      1  C   UNL     1       1.166   9.378  18.239  0.00  0.00    +0.000 C 
ATOM      2  C   UNL     1       1.141   9.053  19.717  0.00  0.00    +0.000 C 
ATOM      3  N   UNL     1       1.764   8.058  20.274  0.00  0.00    +0.000 NA
ENDROOT
BRANCH   2   4
ATOM      4  C   UNL     1       0.324   9.953  20.607  0.00  0.00    +0.000 A 
ATOM      5  C   UNL     1       0.126   9.658  21.959  0.00  0.00    +0.000 A 
ATOM      6  C   UNL     1      -0.632  10.506  22.775  0.00  0.00    +0.000 A 
ATOM      7  C   UNL     1      -1.214  11.666  22.248  0.00  0.00    +0.000 A 
ATOM      8  C   UNL     1      -1.021  11.965  20.893  0.00  0.00    +0.000 A 
ATOM      9  C   UNL     1      -0.254  11.118  20.083  0.00  0.00    +0.000 A 
BRANCH   7  10
ATOM     10  N   UNL     1      -1.985  12.525  23.082  0.00  0.00    +0.000 N 
ATOM     11  C   UNL     1      -3.278  12.327  23.527  0.00  0.00    +0.000 A 
ATOM     12  C   UNL     1      -3.585  13.414  24.305  0.00  0.00    +0.000 A 
ATOM     13  N   UNL     1      -2.541  14.286  24.355  0.00  0.00    +0.000 NA
ATOM     14  C   UNL     1      -1.602  13.735  23.617  0.00  0.00    +0.000 A 
ENDBRANCH   7  10
ENDBRANCH   2   4
BRANCH   3  15
ATOM     15  N   UNL     1       2.519   7.177  19.563  0.00  0.00    +0.000 N 
ATOM     16  C   UNL     1       2.530   5.853  19.948  0.00  0.00    +0.000 C 
ATOM     17  O   UNL     1       1.876   5.415  20.883  0.00  0.00    +0.000 OA
ATOM     18  H   UNL     1       3.079   7.450  18.767  0.00  0.00    +0.000 HD
BRANCH  16  19
ATOM     19  O   UNL     1       3.364   5.113  19.158  0.00  0.00    +0.000 OA
BRANCH  19  20
ATOM     20  C   UNL     1       2.779   4.048  18.350  0.00  0.00    +0.000 C 
ATOM     21  C   UNL     1       1.462   4.506  17.706  0.00  0.00    +0.000 C 
ATOM     22  C   UNL     1       3.780   3.716  17.226  0.00  0.00    +0.000 C 
ATOM     23  C   UNL     1       2.588   2.769  19.177  0.00  0.00    +0.000 C 
ENDBRANCH  19  20
ENDBRANCH  16  19
ENDBRANCH   3  15
TORSDOF 5
ENDMDL
