MODEL 1
REMARK VINA RESULT:      -8.7      0.000      0.000
REMARK  Name = 
REMARK  11 active torsions:
REMARK  status: ('A' for Active; 'I' for Inactive)
REMARK    1  A    between atoms: C_1  and  O_2
REMARK    2  A    between atoms: O_2  and  C_3
REMARK    3  A    between atoms: C_3  and  C_5
REMARK    4  A    between atoms: C_8  and  C_9
REMARK    5  A    between atoms: C_9  and  N_10
REMARK    6  A    between atoms: C_11  and  C_13
REMARK    7  A    between atoms: C_16  and  O_17
REMARK    8  A    between atoms: O_17  and  C_18
REMARK    9  A    between atoms: C_19  and  S_20
REMARK   10  A    between atoms: S_20  and  N_23
REMARK   11  A    between atoms: N_23  and  C_24
REMARK                            x       y       z     vdW  Elec       q    Type
REMARK                         _______ _______ _______ _____ _____    ______ ____
ROOT
ATOM      1  C   UNL     1       2.261   6.984  18.907  0.00  0.00    +0.000 A 
ATOM      2  C   UNL     1       1.805   6.607  20.170  0.00  0.00    +0.000 A 
ATOM      3  C   UNL     1       2.140   5.355  20.684  0.00  0.00    +0.000 A 
ATOM      4  C   UNL     1       2.947   4.443  19.973  0.00  0.00    +0.000 A 
ATOM      5  C   UNL     1       3.394   4.811  18.696  0.00  0.00    +0.000 A 
ATOM      6  C   UNL     1       3.047   6.085  18.177  0.00  0.00    +0.000 A 
ENDROOT
BRANCH   1   8
ATOM      7  N   UNL     1       1.179   9.153  19.225  0.00  0.00    +0.000 N 
ATOM      8  C   UNL     1       1.962   8.361  18.414  0.00  0.00    +0.000 C 
ATOM      9  O   UNL     1       2.417   8.739  17.340  0.00  0.00    +0.000 OA
ATOM     10  H   UNL     1       1.064   8.907  20.198  0.00  0.00    +0.000 HD
BRANCH   7  11
ATOM     11  C   UNL     1       0.878  10.519  18.853  0.00  0.00    +0.000 C 
BRANCH  11  15
ATOM     12  C   UNL     1      -3.309  11.082  17.897  0.00  0.00    +0.000 A 
ATOM     13  C   UNL     1      -2.704  11.840  18.907  0.00  0.00    +0.000 A 
ATOM     14  C   UNL     1      -1.354  11.652  19.225  0.00  0.00    +0.000 A 
ATOM     15  C   UNL     1      -0.586  10.703  18.538  0.00  0.00    +0.000 A 
ATOM     16  C   UNL     1      -1.196   9.949  17.522  0.00  0.00    +0.000 A 
ATOM     17  C   UNL     1      -2.546  10.134  17.204  0.00  0.00    +0.000 A 
BRANCH  12  18
ATOM     18  C   UNL     1      -4.748  11.329  17.596  0.00  0.00    +0.000 C 
ATOM     19  O   UNL     1      -5.132  12.141  16.768  0.00  0.00    +0.000 OA
BRANCH  18  21
ATOM     20  C   UNL     1      -6.836  11.083  18.622  0.00  0.00    +0.000 C 
ATOM     21  O   UNL     1      -5.541  10.538  18.362  0.00  0.00    +0.000 OA
ENDBRANCH  18  21
ENDBRANCH  12  18
ENDBRANCH  11  15
ENDBRANCH   7  11
ENDBRANCH   1   8
BRANCH   5  22
ATOM     22  S   UNL     1       4.417   3.811  17.634  0.00  0.00    +0.000 S 
ATOM     23  O   UNL     1       4.099   2.422  17.877  0.00  0.00    +0.000 OA
ATOM     24  O   UNL     1       4.332   4.339  16.286  0.00  0.00    +0.000 OA
BRANCH  22  25
ATOM     25  N   UNL     1       5.995   4.072  18.176  0.00  0.00    +0.000 NA
ATOM     26  H   UNL     1       6.645   3.478  17.658  0.00  0.00    +0.000 HD
BRANCH  25  27
ATOM     27  C   UNL     1       6.429   5.460  18.383  0.00  0.00    +0.000 C 
ATOM     28  C   UNL     1       7.784   5.566  19.066  0.00  0.00    +0.000 C 
ATOM     29  C   UNL     1       8.186   7.008  18.799  0.00  0.00    +0.000 C 
ATOM     30  C   UNL     1       7.599   7.344  17.429  0.00  0.00    +0.000 C 
ATOM     31  C   UNL     1       6.691   6.170  17.057  0.00  0.00    +0.000 C 
ENDBRANCH  25  27
ENDBRANCH  22  25
ENDBRANCH   5  22
BRANCH   4  32
ATOM     32  O   UNL     1       3.282   3.374  20.752  0.00  0.00    +0.000 OA
ATOM     33  C   UNL     1       2.302   2.767  21.576  0.00  0.00    +0.000 C 
ENDBRANCH   4  32
TORSDOF 9
ENDMDL
MODEL 2
REMARK VINA RESULT:      -8.4      0.593      1.172
REMARK  Name = 
REMARK  11 active torsions:
REMARK  status: ('A' for Active; 'I' for Inactive)
REMARK    1  A    between atoms: C_1  and  O_2
REMARK    2  A    between atoms: O_2  and  C_3
REMARK    3  A    between atoms: C_3  and  C_5
REMARK    4  A    between atoms: C_8  and  C_9
REMARK    5  A    between atoms: C_9  and  N_10
REMARK    6  A    between atoms: C_11  and  C_13
REMARK    7  A    between atoms: C_16  and  O_17
REMARK    8  A    between atoms: O_17  and  C_18
REMARK    9  A    between atoms: C_19  and  S_20
REMARK   10  A    between atoms: S_20  and  N_23
REMARK   11  A    between atoms: N_23  and  C_24
REMARK                            x       y       z     vdW  Elec       q    Type
REMARK                         _______ _______ _______ _____ _____    ______ ____
ROOT
ATOM      1  C   UNL     1       2.322   7.016  18.869  0.00  0.00    +0.000 A 
ATOM      2  C   UNL     1       1.839   6.712  20.142  0.00  0.00    +0.000 A 
ATOM      3  C   UNL     1       2.103   5.465  20.706  0.00  0.00    +0.000 A 
ATOM      4  C   UNL     1       2.863   4.484  20.036  0.00  0.00    +0.000 A 
ATOM      5  C   UNL     1       3.337   4.779  18.750  0.00  0.00    +0.000 A 
ATOM      6  C   UNL     1       3.063   6.048  18.181  0.00  0.00    +0.000 A 
ENDROOT
BRANCH   1   8
ATOM      7  N   UNL     1       1.278   9.219  19.049  0.00  0.00    +0.000 N 
ATOM      8  C   UNL     1       2.101   8.387  18.323  0.00  0.00    +0.000 C 
ATOM      9  O   UNL     1       2.650   8.726  17.280  0.00  0.00    +0.000 OA
ATOM     10  H   UNL     1       1.079   9.000  20.015  0.00  0.00    +0.000 HD
BRANCH   7  11
ATOM     11  C   UNL     1       1.045  10.582  18.623  0.00  0.00    +0.000 C 
BRANCH  11  15
ATOM     12  C   UNL     1      -3.191  11.488  18.542  0.00  0.00    +0.000 A 
ATOM     13  C   UNL     1      -2.670  10.461  17.745  0.00  0.00    +0.000 A 
ATOM     14  C   UNL     1      -1.300  10.174  17.761  0.00  0.00    +0.000 A 
ATOM     15  C   UNL     1      -0.428  10.909  18.576  0.00  0.00    +0.000 A 
ATOM     16  C   UNL     1      -0.956  11.933  19.377  0.00  0.00    +0.000 A 
ATOM     17  C   UNL     1      -2.325  12.223  19.361  0.00  0.00    +0.000 A 
BRANCH  12  18
ATOM     18  C   UNL     1      -4.658  11.746  18.491  0.00  0.00    +0.000 C 
ATOM     19  O   UNL     1      -5.396  11.627  19.457  0.00  0.00    +0.000 OA
BRANCH  18  21
ATOM     20  C   UNL     1      -6.388  12.570  17.149  0.00  0.00    +0.000 C 
ATOM     21  O   UNL     1      -5.036  12.117  17.242  0.00  0.00    +0.000 OA
ENDBRANCH  18  21
ENDBRANCH  12  18
ENDBRANCH  11  15
ENDBRANCH   7  11
ENDBRANCH   1   8
BRANCH   5  22
ATOM     22  S   UNL     1       4.311   3.685  17.735  0.00  0.00    +0.000 S 
ATOM     23  O   UNL     1       3.982   2.324  18.092  0.00  0.00    +0.000 OA
ATOM     24  O   UNL     1       4.189   4.111  16.354  0.00  0.00    +0.000 OA
BRANCH  22  25
ATOM     25  N   UNL     1       5.909   3.961  18.205  0.00  0.00    +0.000 NA
ATOM     26  H   UNL     1       6.540   3.364  17.666  0.00  0.00    +0.000 HD
BRANCH  25  27
ATOM     27  C   UNL     1       6.344   5.353  18.377  0.00  0.00    +0.000 C 
ATOM     28  C   UNL     1       7.696   5.477  19.063  0.00  0.00    +0.000 C 
ATOM     29  C   UNL     1       8.101   6.911  18.759  0.00  0.00    +0.000 C 
ATOM     30  C   UNL     1       7.521   7.209  17.377  0.00  0.00    +0.000 C 
ATOM     31  C   UNL     1       6.613   6.027  17.033  0.00  0.00    +0.000 C 
ENDBRANCH  25  27
ENDBRANCH  22  25
ENDBRANCH   5  22
BRANCH   4  32
ATOM     32  O   UNL     1       3.136   3.429  20.858  0.00  0.00    +0.000 OA
ATOM     33  C   UNL     1       2.075   2.642  21.372  0.00  0.00    +0.000 C 
ENDBRANCH   4  32
TORSDOF 9
ENDMDL
MODEL 3
REMARK VINA RESULT:      -8.2      2.305      2.972
REMARK  Name = 
REMARK  11 active torsions:
REMARK  status: ('A' for Active; 'I' for Inactive)
REMARK    1  A    between atoms: C_1  and  O_2
REMARK    2  A    between atoms: O_2  and  C_3
REMARK    3  A    between atoms: C_3  and  C_5
REMARK    4  A    between atoms: C_8  and  C_9
REMARK    5  A    between atoms: C_9  and  N_10
REMARK    6  A    between atoms: C_11  and  C_13
REMARK    7  A    between atoms: C_16  and  O_17
REMARK    8  A    between atoms: O_17  and  C_18
REMARK    9  A    between atoms: C_19  and  S_20
REMARK   10  A    between atoms: S_20  and  N_23
REMARK   11  A    between atoms: N_23  and  C_24
REMARK                            x       y       z     vdW  Elec       q    Type
REMARK                         _______ _______ _______ _____ _____    ______ ____
ROOT
ATOM      1  C   UNL     1       2.816   7.375  17.792  0.00  0.00    +0.000 A 
ATOM      2  C   UNL     1       1.960   6.294  18.004  0.00  0.00    +0.000 A 
ATOM      3  C   UNL     1       2.440   4.992  17.873  0.00  0.00    +0.000 A 
ATOM      4  C   UNL     1       3.783   4.716  17.543  0.00  0.00    +0.000 A 
ATOM      5  C   UNL     1       4.644   5.799  17.314  0.00  0.00    +0.000 A 
ATOM      6  C   UNL     1       4.149   7.122  17.445  0.00  0.00    +0.000 A 
ENDROOT
BRANCH   1   8
ATOM      7  N   UNL     1       1.461   8.935  19.098  0.00  0.00    +0.000 N 
ATOM      8  C   UNL     1       2.303   8.757  18.022  0.00  0.00    +0.000 C 
ATOM      9  O   UNL     1       2.643   9.669  17.275  0.00  0.00    +0.000 OA
ATOM     10  H   UNL     1       1.433   8.236  19.827  0.00  0.00    +0.000 HD
BRANCH   7  11
ATOM     11  C   UNL     1       0.953  10.249  19.428  0.00  0.00    +0.000 C 
BRANCH  11  15
ATOM     12  C   UNL     1      -3.056  10.864  17.905  0.00  0.00    +0.000 A 
ATOM     13  C   UNL     1      -2.592  11.603  19.001  0.00  0.00    +0.000 A 
ATOM     14  C   UNL     1      -1.301  11.397  19.501  0.00  0.00    +0.000 A 
ATOM     15  C   UNL     1      -0.451  10.451  18.914  0.00  0.00    +0.000 A 
ATOM     16  C   UNL     1      -0.919   9.716  17.812  0.00  0.00    +0.000 A 
ATOM     17  C   UNL     1      -2.210   9.919  17.312  0.00  0.00    +0.000 A 
BRANCH  12  18
ATOM     18  C   UNL     1      -4.436  11.128  17.409  0.00  0.00    +0.000 C 
ATOM     19  O   UNL     1      -4.684  11.878  16.478  0.00  0.00    +0.000 OA
BRANCH  18  21
ATOM     20  C   UNL     1      -6.595  11.103  18.310  0.00  0.00    +0.000 C 
ATOM     21  O   UNL     1      -5.348  10.430  18.133  0.00  0.00    +0.000 OA
ENDBRANCH  18  21
ENDBRANCH  12  18
ENDBRANCH  11  15
ENDBRANCH   7  11
ENDBRANCH   1   8
BRANCH   5  22
ATOM     22  S   UNL     1       6.369   5.672  16.886  0.00  0.00    +0.000 S 
ATOM     23  O   UNL     1       7.071   6.772  17.506  0.00  0.00    +0.000 OA
ATOM     24  O   UNL     1       6.804   4.313  17.138  0.00  0.00    +0.000 OA
BRANCH  22  25
ATOM     25  N   UNL     1       6.423   5.914  15.215  0.00  0.00    +0.000 NA
ATOM     26  H   UNL     1       6.969   6.751  15.001  0.00  0.00    +0.000 HD
BRANCH  25  27
ATOM     27  C   UNL     1       6.684   4.749  14.360  0.00  0.00    +0.000 C 
ATOM     28  C   UNL     1       5.419   4.149  13.765  0.00  0.00    +0.000 C 
ATOM     29  C   UNL     1       5.955   3.271  12.645  0.00  0.00    +0.000 C 
ATOM     30  C   UNL     1       7.197   3.995  12.125  0.00  0.00    +0.000 C 
ATOM     31  C   UNL     1       7.465   5.136  13.107  0.00  0.00    +0.000 C 
ENDBRANCH  25  27
ENDBRANCH  22  25
ENDBRANCH   5  22
BRANCH   4  32
ATOM     32  O   UNL     1       4.052   3.382  17.654  0.00  0.00    +0.000 OA
ATOM     33  C   UNL     1       3.261   2.573  18.507  0.00  0.00    +0.000 C 
ENDBRANCH   4  32
TORSDOF 9
ENDMDL
MODEL 4
REMARK VINA RESULT:      -8.0      2.172      2.618
REMARK  Name = 
REMARK  11 active torsions:
REMARK  status: ('A' for Active; 'I' for Inactive)
REMARK    1  A    between atoms: C_1  and  O_2
REMARK    2  A    between atoms: O_2  and  C_3
REMARK    3  A    between atoms: C_3  and  C_5
REMARK    4  A    between atoms: C_8  and  C_9
REMARK    5  A    between atoms: C_9  and  N_10
REMARK    6  A    between atoms: C_11  and  C_13
REMARK    7  A    between atoms: C_16  and  O_17
REMARK    8  A    between atoms: O_17  and  C_18
REMARK    9  A    between atoms: C_19  and  S_20
REMARK   10  A    between atoms: S_20  and  N_23
REMARK   11  A    between atoms: N_23  and  C_24
REMARK                            x       y       z     vdW  Elec       q    Type
REMARK                         _______ _______ _______ _____ _____    ______ ____
ROOT
ATOM      1  C   UNL     1       2.270   6.955  19.004  0.00  0.00    +0.000 A 
ATOM      2  C   UNL     1       1.799   6.507  20.239  0.00  0.00    +0.000 A 
ATOM      3  C   UNL     1       2.125   5.227  20.683  0.00  0.00    +0.000 A 
ATOM      4  C   UNL     1       2.937   4.354  19.930  0.00  0.00    +0.000 A 
ATOM      5  C   UNL     1       3.400   4.794  18.682  0.00  0.00    +0.000 A 
ATOM      6  C   UNL     1       3.063   6.096  18.234  0.00  0.00    +0.000 A 
ENDROOT
BRANCH   1   8
ATOM      7  N   UNL     1       1.244   9.125  19.464  0.00  0.00    +0.000 N 
ATOM      8  C   UNL     1       1.981   8.359  18.589  0.00  0.00    +0.000 C 
ATOM      9  O   UNL     1       2.404   8.779  17.517  0.00  0.00    +0.000 OA
ATOM     10  H   UNL     1       1.159   8.835  20.428  0.00  0.00    +0.000 HD
BRANCH   7  11
ATOM     11  C   UNL     1       0.956  10.512  19.168  0.00  0.00    +0.000 C 
BRANCH  11  15
ATOM     12  C   UNL     1      -1.954  12.216  21.887  0.00  0.00    +0.000 A 
ATOM     13  C   UNL     1      -0.828  11.546  22.382  0.00  0.00    +0.000 A 
ATOM     14  C   UNL     1       0.107  10.985  21.505  0.00  0.00    +0.000 A 
ATOM     15  C   UNL     1      -0.066  11.086  20.118  0.00  0.00    +0.000 A 
ATOM     16  C   UNL     1      -1.194  11.763  19.627  0.00  0.00    +0.000 A 
ATOM     17  C   UNL     1      -2.131  12.324  20.502  0.00  0.00    +0.000 A 
BRANCH  12  18
ATOM     18  C   UNL     1      -2.914  12.801  22.865  0.00  0.00    +0.000 C 
ATOM     19  O   UNL     1      -2.581  13.554  23.767  0.00  0.00    +0.000 OA
BRANCH  18  21
ATOM     20  C   UNL     1      -5.188  13.064  23.350  0.00  0.00    +0.000 C 
ATOM     21  O   UNL     1      -4.178  12.377  22.610  0.00  0.00    +0.000 OA
ENDBRANCH  18  21
ENDBRANCH  12  18
ENDBRANCH  11  15
ENDBRANCH   7  11
ENDBRANCH   1   8
BRANCH   5  22
ATOM     22  S   UNL     1       4.433   3.853  17.576  0.00  0.00    +0.000 S 
ATOM     23  O   UNL     1       4.131   2.451  17.757  0.00  0.00    +0.000 OA
ATOM     24  O   UNL     1       4.341   4.439  16.253  0.00  0.00    +0.000 OA
BRANCH  22  25
ATOM     25  N   UNL     1       6.008   4.107  18.128  0.00  0.00    +0.000 NA
ATOM     26  H   UNL     1       6.661   3.524  17.601  0.00  0.00    +0.000 HD
BRANCH  25  27
ATOM     27  C   UNL     1       6.440   5.491  18.363  0.00  0.00    +0.000 C 
ATOM     28  C   UNL     1       7.813   5.588  19.009  0.00  0.00    +0.000 C 
ATOM     29  C   UNL     1       8.197   7.040  18.772  0.00  0.00    +0.000 C 
ATOM     30  C   UNL     1       7.569   7.410  17.429  0.00  0.00    +0.000 C 
ATOM     31  C   UNL     1       6.658   6.241  17.051  0.00  0.00    +0.000 C 
ENDBRANCH  25  27
ENDBRANCH  22  25
ENDBRANCH   5  22
BRANCH   4  32
ATOM     32  O   UNL     1       3.261   3.241  20.651  0.00  0.00    +0.000 OA
ATOM     33  C   UNL     1       2.297   2.648  21.503  0.00  0.00    +0.000 C 
ENDBRANCH   4  32
TORSDOF 9
ENDMDL
MODEL 5
REMARK VINA RESULT:      -8.0      2.324      2.963
REMARK  Name = 
REMARK  11 active torsions:
REMARK  status: ('A' for Active; 'I' for Inactive)
REMARK    1  A    between atoms: C_1  and  O_2
REMARK    2  A    between atoms: O_2  and  C_3
REMARK    3  A    between atoms: C_3  and  C_5
REMARK    4  A    between atoms: C_8  and  C_9
REMARK    5  A    between atoms: C_9  and  N_10
REMARK    6  A    between atoms: C_11  and  C_13
REMARK    7  A    between atoms: C_16  and  O_17
REMARK    8  A    between atoms: O_17  and  C_18
REMARK    9  A    between atoms: C_19  and  S_20
REMARK   10  A    between atoms: S_20  and  N_23
REMARK   11  A    between atoms: N_23  and  C_24
REMARK                            x       y       z     vdW  Elec       q    Type
REMARK                         _______ _______ _______ _____ _____    ______ ____
ROOT
ATOM      1  C   UNL     1       2.369   7.090  18.805  0.00  0.00    +0.000 A 
ATOM      2  C   UNL     1       1.828   5.859  19.179  0.00  0.00    +0.000 A 
ATOM      3  C   UNL     1       2.389   4.679  18.694  0.00  0.00    +0.000 A 
ATOM      4  C   UNL     1       3.508   4.676  17.835  0.00  0.00    +0.000 A 
ATOM      5  C   UNL     1       4.045   5.911  17.445  0.00  0.00    +0.000 A 
ATOM      6  C   UNL     1       3.468   7.108  17.939  0.00  0.00    +0.000 A 
ENDROOT
BRANCH   1   8
ATOM      7  N   UNL     1       1.630   9.407  18.559  0.00  0.00    +0.000 N 
ATOM      8  C   UNL     1       1.807   8.335  19.406  0.00  0.00    +0.000 C 
ATOM      9  O   UNL     1       1.518   8.363  20.598  0.00  0.00    +0.000 OA
ATOM     10  H   UNL     1       1.618   9.254  17.560  0.00  0.00    +0.000 HD
BRANCH   7  11
ATOM     11  C   UNL     1       1.046  10.640  19.042  0.00  0.00    +0.000 C 
BRANCH  11  15
ATOM     12  C   UNL     1      -3.119  10.999  17.906  0.00  0.00    +0.000 A 
ATOM     13  C   UNL     1      -2.583  11.821  18.905  0.00  0.00    +0.000 A 
ATOM     14  C   UNL     1      -1.241  11.698  19.281  0.00  0.00    +0.000 A 
ATOM     15  C   UNL     1      -0.410  10.753  18.664  0.00  0.00    +0.000 A 
ATOM     16  C   UNL     1      -0.951   9.935  17.659  0.00  0.00    +0.000 A 
ATOM     17  C   UNL     1      -2.294  10.055  17.283  0.00  0.00    +0.000 A 
BRANCH  12  18
ATOM     18  C   UNL     1      -4.553  11.177  17.540  0.00  0.00    +0.000 C 
ATOM     19  O   UNL     1      -4.940  11.982  16.708  0.00  0.00    +0.000 OA
BRANCH  18  21
ATOM     20  C   UNL     1      -6.627  10.861  18.575  0.00  0.00    +0.000 C 
ATOM     21  O   UNL     1      -5.339  10.333  18.255  0.00  0.00    +0.000 OA
ENDBRANCH  18  21
ENDBRANCH  12  18
ENDBRANCH  11  15
ENDBRANCH   7  11
ENDBRANCH   1   8
BRANCH   5  22
ATOM     22  S   UNL     1       5.449   6.131  16.371  0.00  0.00    +0.000 S 
ATOM     23  O   UNL     1       5.120   7.146  15.396  0.00  0.00    +0.000 OA
ATOM     24  O   UNL     1       6.634   6.285  17.192  0.00  0.00    +0.000 OA
BRANCH  22  25
ATOM     25  N   UNL     1       5.600   4.665  15.545  0.00  0.00    +0.000 NA
ATOM     26  H   UNL     1       4.865   4.021  15.840  0.00  0.00    +0.000 HD
BRANCH  25  27
ATOM     27  C   UNL     1       5.859   4.714  14.099  0.00  0.00    +0.000 C 
ATOM     28  C   UNL     1       7.339   4.789  13.759  0.00  0.00    +0.000 C 
ATOM     29  C   UNL     1       7.368   4.420  12.284  0.00  0.00    +0.000 C 
ATOM     30  C   UNL     1       6.230   3.416  12.098  0.00  0.00    +0.000 C 
ATOM     31  C   UNL     1       5.445   3.416  13.411  0.00  0.00    +0.000 C 
ENDBRANCH  25  27
ENDBRANCH  22  25
ENDBRANCH   5  22
BRANCH   4  32
ATOM     32  O   UNL     1       3.979   3.408  17.647  0.00  0.00    +0.000 OA
ATOM     33  C   UNL     1       4.175   2.556  18.762  0.00  0.00    +0.000 C 
ENDBRANCH   4  32
TORSDOF 9
ENDMDL
MODEL 6
REMARK VINA RESULT:      -8.0      1.684      2.178
REMARK  Name = 
REMARK  11 active torsions:
REMARK  status: ('A' for Active; 'I' for Inactive)
REMARK    1  A    between atoms: C_1  and  O_2
REMARK    2  A    between atoms: O_2  and  C_3
REMARK    3  A    between atoms: C_3  and  C_5
REMARK    4  A    between atoms: C_8  and  C_9
REMARK    5  A    between atoms: C_9  and  N_10
REMARK    6  A    between atoms: C_11  and  C_13
REMARK    7  A    between atoms: C_16  and  O_17
REMARK    8  A    between atoms: O_17  and  C_18
REMARK    9  A    between atoms: C_19  and  S_20
REMARK   10  A    between atoms: S_20  and  N_23
REMARK   11  A    between atoms: N_23  and  C_24
REMARK                            x       y       z     vdW  Elec       q    Type
REMARK                         _______ _______ _______ _____ _____    ______ ____
ROOT
ATOM      1  C   UNL     1       2.287   7.058  18.846  0.00  0.00    +0.000 A 
ATOM      2  C   UNL     1       1.653   6.640  20.016  0.00  0.00    +0.000 A 
ATOM      3  C   UNL     1       1.933   5.380  20.545  0.00  0.00    +0.000 A 
ATOM      4  C   UNL     1       2.856   4.500  19.942  0.00  0.00    +0.000 A 
ATOM      5  C   UNL     1       3.482   4.910  18.757  0.00  0.00    +0.000 A 
ATOM      6  C   UNL     1       3.192   6.192  18.222  0.00  0.00    +0.000 A 
ENDROOT
BRANCH   1   8
ATOM      7  N   UNL     1       1.299   9.272  19.162  0.00  0.00    +0.000 N 
ATOM      8  C   UNL     1       2.037   8.443  18.348  0.00  0.00    +0.000 C 
ATOM      9  O   UNL     1       2.492   8.794  17.264  0.00  0.00    +0.000 OA
ATOM     10  H   UNL     1       1.187   9.037  20.139  0.00  0.00    +0.000 HD
BRANCH   7  11
ATOM     11  C   UNL     1       1.049  10.646  18.784  0.00  0.00    +0.000 C 
BRANCH  11  15
ATOM     12  C   UNL     1      -3.175  11.606  18.765  0.00  0.00    +0.000 A 
ATOM     13  C   UNL     1      -2.282  12.352  19.544  0.00  0.00    +0.000 A 
ATOM     14  C   UNL     1      -0.919  12.036  19.560  0.00  0.00    +0.000 A 
ATOM     15  C   UNL     1      -0.425  10.970  18.797  0.00  0.00    +0.000 A 
ATOM     16  C   UNL     1      -1.323  10.228  18.013  0.00  0.00    +0.000 A 
ATOM     17  C   UNL     1      -2.687  10.541  17.997  0.00  0.00    +0.000 A 
BRANCH  12  18
ATOM     18  C   UNL     1      -4.615  11.990  18.780  0.00  0.00    +0.000 C 
ATOM     19  O   UNL     1      -5.058  12.915  19.444  0.00  0.00    +0.000 OA
BRANCH  18  21
ATOM     20  C   UNL     1      -6.750  11.257  18.166  0.00  0.00    +0.000 C 
ATOM     21  O   UNL     1      -5.338  11.176  17.970  0.00  0.00    +0.000 OA
ENDBRANCH  18  21
ENDBRANCH  12  18
ENDBRANCH  11  15
ENDBRANCH   7  11
ENDBRANCH   1   8
BRANCH   5  22
ATOM     22  S   UNL     1       4.674   3.956  17.837  0.00  0.00    +0.000 S 
ATOM     23  O   UNL     1       5.952   4.068  18.502  0.00  0.00    +0.000 OA
ATOM     24  O   UNL     1       4.112   2.644  17.584  0.00  0.00    +0.000 OA
BRANCH  22  25
ATOM     25  N   UNL     1       4.806   4.741  16.348  0.00  0.00    +0.000 NA
ATOM     26  H   UNL     1       4.820   5.753  16.487  0.00  0.00    +0.000 HD
BRANCH  25  27
ATOM     27  C   UNL     1       5.780   4.219  15.380  0.00  0.00    +0.000 C 
ATOM     28  C   UNL     1       5.188   3.996  13.997  0.00  0.00    +0.000 C 
ATOM     29  C   UNL     1       6.421   3.867  13.117  0.00  0.00    +0.000 C 
ATOM     30  C   UNL     1       7.465   4.788  13.747  0.00  0.00    +0.000 C 
ATOM     31  C   UNL     1       6.881   5.236  15.089  0.00  0.00    +0.000 C 
ENDBRANCH  25  27
ENDBRANCH  22  25
ENDBRANCH   5  22
BRANCH   4  32
ATOM     32  O   UNL     1       3.092   3.417  20.737  0.00  0.00    +0.000 OA
ATOM     33  C   UNL     1       2.119   3.012  21.685  0.00  0.00    +0.000 C 
ENDBRANCH   4  32
TORSDOF 9
ENDMDL
MODEL 7
REMARK VINA RESULT:      -8.0      2.181      2.931
REMARK  Name = 
REMARK  11 active torsions:
REMARK  status: ('A' for Active; 'I' for Inactive)
REMARK    1  A    between atoms: C_1  and  O_2
REMARK    2  A    between atoms: O_2  and  C_3
REMARK    3  A    between atoms: C_3  and  C_5
REMARK    4  A    between atoms: C_8  and  C_9
REMARK    5  A    between atoms: C_9  and  N_10
REMARK    6  A    between atoms: C_11  and  C_13
REMARK    7  A    between atoms: C_16  and  O_17
REMARK    8  A    between atoms: O_17  and  C_18
REMARK    9  A    between atoms: C_19  and  S_20
REMARK   10  A    between atoms: S_20  and  N_23
REMARK   11  A    between atoms: N_23  and  C_24
REMARK                            x       y       z     vdW  Elec       q    Type
REMARK                         _______ _______ _______ _____ _____    ______ ____
ROOT
ATOM      1  C   UNL     1       2.786   7.260  17.921  0.00  0.00    +0.000 A 
ATOM      2  C   UNL     1       1.879   6.224  18.147  0.00  0.00    +0.000 A 
ATOM      3  C   UNL     1       2.301   4.899  18.051  0.00  0.00    +0.000 A 
ATOM      4  C   UNL     1       3.635   4.556  17.742  0.00  0.00    +0.000 A 
ATOM      5  C   UNL     1       4.545   5.594  17.498  0.00  0.00    +0.000 A 
ATOM      6  C   UNL     1       4.109   6.940  17.595  0.00  0.00    +0.000 A 
ENDROOT
BRANCH   1   8
ATOM      7  N   UNL     1       1.434   8.896  19.134  0.00  0.00    +0.000 N 
ATOM      8  C   UNL     1       2.333   8.669  18.115  0.00  0.00    +0.000 C 
ATOM      9  O   UNL     1       2.768   9.557  17.390  0.00  0.00    +0.000 OA
ATOM     10  H   UNL     1       1.321   8.204  19.861  0.00  0.00    +0.000 HD
BRANCH   7  11
ATOM     11  C   UNL     1       0.976  10.237  19.428  0.00  0.00    +0.000 C 
BRANCH  11  15
ATOM     12  C   UNL     1      -3.032  10.912  17.930  0.00  0.00    +0.000 A 
ATOM     13  C   UNL     1      -2.193   9.974  17.314  0.00  0.00    +0.000 A 
ATOM     14  C   UNL     1      -0.894   9.763  17.790  0.00  0.00    +0.000 A 
ATOM     15  C   UNL     1      -0.412  10.485  18.890  0.00  0.00    +0.000 A 
ATOM     16  C   UNL     1      -1.259  11.419  19.507  0.00  0.00    +0.000 A 
ATOM     17  C   UNL     1      -2.557  11.633  19.032  0.00  0.00    +0.000 A 
BRANCH  12  18
ATOM     18  C   UNL     1      -4.408  11.091  17.386  0.00  0.00    +0.000 C 
ATOM     19  O   UNL     1      -4.650  11.695  16.352  0.00  0.00    +0.000 OA
BRANCH  18  21
ATOM     20  C   UNL     1      -6.552  11.220  18.314  0.00  0.00    +0.000 C 
ATOM     21  O   UNL     1      -5.324  10.501  18.195  0.00  0.00    +0.000 OA
ENDBRANCH  18  21
ENDBRANCH  12  18
ENDBRANCH  11  15
ENDBRANCH   7  11
ENDBRANCH   1   8
BRANCH   5  22
ATOM     22  S   UNL     1       6.267   5.380  17.093  0.00  0.00    +0.000 S 
ATOM     23  O   UNL     1       6.742   6.599  16.479  0.00  0.00    +0.000 OA
ATOM     24  O   UNL     1       6.950   4.853  18.258  0.00  0.00    +0.000 OA
BRANCH  22  25
ATOM     25  N   UNL     1       6.290   4.174  15.910  0.00  0.00    +0.000 NA
ATOM     26  H   UNL     1       5.645   3.424  16.164  0.00  0.00    +0.000 HD
BRANCH  25  27
ATOM     27  C   UNL     1       6.256   4.592  14.502  0.00  0.00    +0.000 C 
ATOM     28  C   UNL     1       7.637   4.852  13.923  0.00  0.00    +0.000 C 
ATOM     29  C   UNL     1       7.381   4.856  12.424  0.00  0.00    +0.000 C 
ATOM     30  C   UNL     1       6.252   3.849  12.205  0.00  0.00    +0.000 C 
ATOM     31  C   UNL     1       5.743   3.473  13.598  0.00  0.00    +0.000 C 
ENDBRANCH  25  27
ENDBRANCH  22  25
ENDBRANCH   5  22
BRANCH   4  32
ATOM     32  O   UNL     1       3.841   3.214  17.885  0.00  0.00    +0.000 OA
ATOM     33  C   UNL     1       3.856   2.637  19.179  0.00  0.00    +0.000 C 
ENDBRANCH   4  32
TORSDOF 9
ENDMDL
MODEL 8
REMARK VINA RESULT:      -8.0      3.122      4.070
REMARK  Name = 
REMARK  11 active torsions:
REMARK  status: ('A' for Active; 'I' for Inactive)
REMARK    1  A    between atoms: C_1  and  O_2
REMARK    2  A    between atoms: O_2  and  C_3
REMARK    3  A    between atoms: C_3  and  C_5
REMARK    4  A    between atoms: C_8  and  C_9
REMARK    5  A    between atoms: C_9  and  N_10
REMARK    6  A    between atoms: C_11  and  C_13
REMARK    7  A    between atoms: C_16  and  O_17
REMARK    8  A    between atoms: O_17  and  C_18
REMARK    9  A    between atoms: C_19  and  S_20
REMARK   10  A    between atoms: S_20  and  N_23
REMARK   11  A    between atoms: N_23  and  C_24
REMARK                            x       y       z     vdW  Elec       q    Type
REMARK                         _______ _______ _______ _____ _____    ______ ____
ROOT
ATOM      1  C   UNL     1       3.324   7.138  18.122  0.00  0.00    +0.000 A 
ATOM      2  C   UNL     1       2.668   6.146  18.853  0.00  0.00    +0.000 A 
ATOM      3  C   UNL     1       3.355   4.993  19.229  0.00  0.00    +0.000 A 
ATOM      4  C   UNL     1       4.713   4.789  18.907  0.00  0.00    +0.000 A 
ATOM      5  C   UNL     1       5.371   5.775  18.160  0.00  0.00    +0.000 A 
ATOM      6  C   UNL     1       4.667   6.945  17.778  0.00  0.00    +0.000 A 
ENDROOT
BRANCH   1   8
ATOM      7  N   UNL     1       1.263   8.453  18.157  0.00  0.00    +0.000 N 
ATOM      8  C   UNL     1       2.594   8.401  17.807  0.00  0.00    +0.000 C 
ATOM      9  O   UNL     1       3.186   9.331  17.269  0.00  0.00    +0.000 OA
ATOM     10  H   UNL     1       0.901   7.791  18.829  0.00  0.00    +0.000 HD
BRANCH   7  11
ATOM     11  C   UNL     1       0.487   9.654  17.934  0.00  0.00    +0.000 C 
BRANCH  11  15
ATOM     12  C   UNL     1      -0.970  11.356  21.642  0.00  0.00    +0.000 A 
ATOM     13  C   UNL     1      -0.039  10.310  21.659  0.00  0.00    +0.000 A 
ATOM     14  C   UNL     1       0.424   9.751  20.463  0.00  0.00    +0.000 A 
ATOM     15  C   UNL     1      -0.034  10.230  19.228  0.00  0.00    +0.000 A 
ATOM     16  C   UNL     1      -0.962  11.283  19.216  0.00  0.00    +0.000 A 
ATOM     17  C   UNL     1      -1.428  11.842  20.411  0.00  0.00    +0.000 A 
BRANCH  12  18
ATOM     18  C   UNL     1      -1.424  11.919  22.945  0.00  0.00    +0.000 C 
ATOM     19  O   UNL     1      -2.448  11.567  23.509  0.00  0.00    +0.000 OA
BRANCH  18  21
ATOM     20  C   UNL     1      -1.068  14.188  23.389  0.00  0.00    +0.000 C 
ATOM     21  O   UNL     1      -0.552  12.857  23.393  0.00  0.00    +0.000 OA
ENDBRANCH  18  21
ENDBRANCH  12  18
ENDBRANCH  11  15
ENDBRANCH   7  11
ENDBRANCH   1   8
BRANCH   5  22
ATOM     22  S   UNL     1       7.077   5.715  17.648  0.00  0.00    +0.000 S 
ATOM     23  O   UNL     1       7.775   6.818  18.268  0.00  0.00    +0.000 OA
ATOM     24  O   UNL     1       7.564   4.362  17.839  0.00  0.00    +0.000 OA
BRANCH  22  25
ATOM     25  N   UNL     1       7.045   6.006  15.985  0.00  0.00    +0.000 NA
ATOM     26  H   UNL     1       7.787   6.660  15.731  0.00  0.00    +0.000 HD
BRANCH  25  27
ATOM     27  C   UNL     1       6.877   4.854  15.089  0.00  0.00    +0.000 C 
ATOM     28  C   UNL     1       5.427   4.594  14.715  0.00  0.00    +0.000 C 
ATOM     29  C   UNL     1       5.547   3.671  13.512  0.00  0.00    +0.000 C 
ATOM     30  C   UNL     1       6.822   4.110  12.793  0.00  0.00    +0.000 C 
ATOM     31  C   UNL     1       7.512   5.109  13.724  0.00  0.00    +0.000 C 
ENDBRANCH  25  27
ENDBRANCH  22  25
ENDBRANCH   5  22
BRANCH   4  32
ATOM     32  O   UNL     1       5.205   3.681  19.536  0.00  0.00    +0.000 OA
ATOM     33  C   UNL     1       4.397   2.524  19.661  0.00  0.00    +0.000 C 
ENDBRANCH   4  32
TORSDOF 9
ENDMDL
MODEL 9
REMARK VINA RESULT:      -8.0      1.733      1.997
REMARK  Name = 
REMARK  11 active torsions:
REMARK  status: ('A' for Active; 'I' for Inactive)
REMARK    1  A    between atoms: C_1  and  O_2
REMARK    2  A    between atoms: O_2  and  C_3
REMARK    3  A    between atoms: C_3  and  C_5
REMARK    4  A    between atoms: C_8  and  C_9
REMARK    5  A    between atoms: C_9  and  N_10
REMARK    6  A    between atoms: C_11  and  C_13
REMARK    7  A    between atoms: C_16  and  O_17
REMARK    8  A    between atoms: O_17  and  C_18
REMARK    9  A    between atoms: C_19  and  S_20
REMARK   10  A    between atoms: S_20  and  N_23
REMARK   11  A    between atoms: N_23  and  C_24
REMARK                            x       y       z     vdW  Elec       q    Type
REMARK                         _______ _______ _______ _____ _____    ______ ____
ROOT
ATOM      1  C   UNL     1       2.162   6.581  19.605  0.00  0.00    +0.000 A 
ATOM      2  C   UNL     1       1.149   5.957  20.333  0.00  0.00    +0.000 A 
ATOM      3  C   UNL     1       1.307   4.637  20.751  0.00  0.00    +0.000 A 
ATOM      4  C   UNL     1       2.475   3.896  20.475  0.00  0.00    +0.000 A 
ATOM      5  C   UNL     1       3.489   4.514  19.730  0.00  0.00    +0.000 A 
ATOM      6  C   UNL     1       3.321   5.857  19.305  0.00  0.00    +0.000 A 
ENDROOT
BRANCH   1   8
ATOM      7  N   UNL     1       1.118   8.757  19.995  0.00  0.00    +0.000 N 
ATOM      8  C   UNL     1       2.007   8.021  19.243  0.00  0.00    +0.000 C 
ATOM      9  O   UNL     1       2.663   8.494  18.321  0.00  0.00    +0.000 OA
ATOM     10  H   UNL     1       0.819   8.407  20.894  0.00  0.00    +0.000 HD
BRANCH   7  11
ATOM     11  C   UNL     1       0.939  10.172  19.749  0.00  0.00    +0.000 C 
BRANCH  11  15
ATOM     12  C   UNL     1      -2.819  11.037  17.775  0.00  0.00    +0.000 A 
ATOM     13  C   UNL     1      -2.500  11.650  18.994  0.00  0.00    +0.000 A 
ATOM     14  C   UNL     1      -1.292  11.363  19.638  0.00  0.00    +0.000 A 
ATOM     15  C   UNL     1      -0.380  10.459  19.075  0.00  0.00    +0.000 A 
ATOM     16  C   UNL     1      -0.702   9.852  17.851  0.00  0.00    +0.000 A 
ATOM     17  C   UNL     1      -1.910  10.136  17.206  0.00  0.00    +0.000 A 
BRANCH  12  18
ATOM     18  C   UNL     1      -4.116  11.384  17.129  0.00  0.00    +0.000 C 
ATOM     19  O   UNL     1      -4.376  11.129  15.963  0.00  0.00    +0.000 OA
BRANCH  18  21
ATOM     20  C   UNL     1      -6.236  12.303  17.491  0.00  0.00    +0.000 C 
ATOM     21  O   UNL     1      -4.937  12.011  18.007  0.00  0.00    +0.000 OA
ENDBRANCH  18  21
ENDBRANCH  12  18
ENDBRANCH  11  15
ENDBRANCH   7  11
ENDBRANCH   1   8
BRANCH   5  22
ATOM     22  S   UNL     1       5.037   3.760  19.272  0.00  0.00    +0.000 S 
ATOM     23  O   UNL     1       6.088   4.734  19.460  0.00  0.00    +0.000 OA
ATOM     24  O   UNL     1       5.130   2.471  19.928  0.00  0.00    +0.000 OA
BRANCH  22  25
ATOM     25  N   UNL     1       4.907   3.469  17.613  0.00  0.00    +0.000 NA
ATOM     26  H   UNL     1       3.926   3.345  17.357  0.00  0.00    +0.000 HD
BRANCH  25  27
ATOM     27  C   UNL     1       5.700   4.308  16.704  0.00  0.00    +0.000 C 
ATOM     28  C   UNL     1       5.867   3.697  15.321  0.00  0.00    +0.000 C 
ATOM     29  C   UNL     1       6.333   4.878  14.484  0.00  0.00    +0.000 C 
ATOM     30  C   UNL     1       5.640   6.099  15.087  0.00  0.00    +0.000 C 
ATOM     31  C   UNL     1       4.985   5.618  16.383  0.00  0.00    +0.000 C 
ENDBRANCH  25  27
ENDBRANCH  22  25
ENDBRANCH   5  22
BRANCH   4  32
ATOM     32  O   UNL     1       2.468   2.704  21.140  0.00  0.00    +0.000 OA
ATOM     33  C   UNL     1       1.400   2.392  22.017  0.00  0.00    +0.000 C 
ENDBRANCH   4  32
TORSDOF 9
ENDMDL
