MODEL 1
REMARK VINA RESULT:      -7.1      0.000      0.000
REMARK  Name = 
REMARK  9 active torsions:
REMARK  status: ('A' for Active; 'I' for Inactive)
REMARK    1  A    between atoms: C_1  and  O_2
REMARK    2  A    between atoms: O_2  and  C_3
REMARK    3  A    between atoms: C_3  and  C_5
REMARK    4  A    between atoms: C_7  and  S_8
REMARK    5  A    between atoms: S_8  and  N_11
REMARK    6  A    between atoms: N_11  and  C_12
REMARK    7  A    between atoms: C_12  and  C_13
REMARK    8  A    between atoms: C_13  and  C_14
REMARK    9  A    between atoms: C_18  and  C_19
REMARK                            x       y       z     vdW  Elec       q    Type
REMARK                         _______ _______ _______ _____ _____    ______ ____
ROOT
ATOM      1  S   UNL     1       5.804   5.001  19.252  0.00  0.00    +0.000 S 
ATOM      2  O   UNL     1       5.424   3.607  19.301  0.00  0.00    +0.000 OA
ATOM      3  O   UNL     1       7.029   5.488  19.843  0.00  0.00    +0.000 OA
ENDROOT
BRANCH   1   6
ATOM      4  C   UNL     1       6.461   5.135  15.365  0.00  0.00    +0.000 A 
ATOM      5  C   UNL     1       6.424   4.453  16.573  0.00  0.00    +0.000 A 
ATOM      6  C   UNL     1       5.938   5.349  17.564  0.00  0.00    +0.000 A 
ATOM      7  C   UNL     1       5.654   6.543  16.935  0.00  0.00    +0.000 A 
ATOM      8  N   UNL     1       5.981   6.406  15.613  0.00  0.00    +0.000 N 
ATOM      9  H   UNL     1       5.913   7.129  14.906  0.00  0.00    +0.000 HD
BRANCH   4  10
ATOM     10  C   UNL     1       6.902   4.740  14.048  0.00  0.00    +0.000 C 
ATOM     11  O   UNL     1       7.679   5.391  13.362  0.00  0.00    +0.000 OA
BRANCH  10  13
ATOM     12  C   UNL     1       6.053   3.455  12.287  0.00  0.00    +0.000 C 
ATOM     13  O   UNL     1       6.330   3.561  13.685  0.00  0.00    +0.000 OA
ENDBRANCH  10  13
ENDBRANCH   4  10
ENDBRANCH   1   6
BRANCH   1  14
ATOM     14  N   UNL     1       4.507   5.875  19.903  0.00  0.00    +0.000 NA
ATOM     15  H   UNL     1       4.893   6.700  20.365  0.00  0.00    +0.000 HD
BRANCH  14  16
ATOM     16  C   UNL     1       3.413   6.182  18.953  0.00  0.00    +0.000 C 
BRANCH  16  17
ATOM     17  C   UNL     1       2.104   5.530  19.413  0.00  0.00    +0.000 C 
BRANCH  17  18
ATOM     18  C   UNL     1       2.067   4.072  19.036  0.00  0.00    +0.000 A 
ATOM     19  S   UNL     1       2.495   3.613  17.439  0.00  0.00    +0.000 S 
ATOM     20  C   UNL     1       2.281   1.958  17.786  0.00  0.00    +0.000 A 
ATOM     21  C   UNL     1       1.879   1.754  19.086  0.00  0.00    +0.000 A 
ATOM     22  C   UNL     1       1.745   2.976  19.824  0.00  0.00    +0.000 A 
ATOM     23  C   UNL     1       1.330   3.033  21.258  0.00  0.00    +0.000 C 
ENDBRANCH  17  18
ENDBRANCH  16  17
ENDBRANCH  14  16
ENDBRANCH   1  14
TORSDOF 7
ENDMDL
MODEL 2
REMARK VINA RESULT:      -7.1      3.259      4.655
REMARK  Name = 
REMARK  9 active torsions:
REMARK  status: ('A' for Active; 'I' for Inactive)
REMARK    1  A    between atoms: C_1  and  O_2
REMARK    2  A    between atoms: O_2  and  C_3
REMARK    3  A    between atoms: C_3  and  C_5
REMARK    4  A    between atoms: C_7  and  S_8
REMARK    5  A    between atoms: S_8  and  N_11
REMARK    6  A    between atoms: N_11  and  C_12
REMARK    7  A    between atoms: C_12  and  C_13
REMARK    8  A    between atoms: C_13  and  C_14
REMARK    9  A    between atoms: C_18  and  C_19
REMARK                            x       y       z     vdW  Elec       q    Type
REMARK                         _______ _______ _______ _____ _____    ______ ____
ROOT
ATOM      1  S   UNL     1       6.687   5.317  16.553  0.00  0.00    +0.000 S 
ATOM      2  O   UNL     1       6.007   6.052  15.510  0.00  0.00    +0.000 OA
ATOM      3  O   UNL     1       7.747   4.376  16.268  0.00  0.00    +0.000 OA
ENDROOT
BRANCH   1   6
ATOM      4  C   UNL     1       8.221   8.552  18.206  0.00  0.00    +0.000 A 
ATOM      5  C   UNL     1       7.490   7.922  17.210  0.00  0.00    +0.000 A 
ATOM      6  C   UNL     1       7.411   6.540  17.536  0.00  0.00    +0.000 A 
ATOM      7  C   UNL     1       8.062   6.364  18.739  0.00  0.00    +0.000 A 
ATOM      8  N   UNL     1       8.554   7.580  19.129  0.00  0.00    +0.000 N 
ATOM      9  H   UNL     1       9.107   7.759  19.959  0.00  0.00    +0.000 HD
BRANCH   4  10
ATOM     10  C   UNL     1       8.645   9.923  18.371  0.00  0.00    +0.000 C 
ATOM     11  O   UNL     1       8.352  10.828  17.602  0.00  0.00    +0.000 OA
BRANCH  10  13
ATOM     12  C   UNL     1      10.329  11.151  19.433  0.00  0.00    +0.000 C 
ATOM     13  O   UNL     1       9.414  10.055  19.485  0.00  0.00    +0.000 OA
ENDBRANCH  10  13
ENDBRANCH   4  10
ENDBRANCH   1   6
BRANCH   1  14
ATOM     14  N   UNL     1       5.484   4.522  17.442  0.00  0.00    +0.000 NA
ATOM     15  H   UNL     1       5.938   3.778  17.976  0.00  0.00    +0.000 HD
BRANCH  14  16
ATOM     16  C   UNL     1       4.620   5.401  18.261  0.00  0.00    +0.000 C 
BRANCH  16  17
ATOM     17  C   UNL     1       3.163   5.313  17.792  0.00  0.00    +0.000 C 
BRANCH  17  18
ATOM     18  C   UNL     1       2.417   4.249  18.553  0.00  0.00    +0.000 A 
ATOM     19  S   UNL     1       2.303   2.672  17.886  0.00  0.00    +0.000 S 
ATOM     20  C   UNL     1       1.442   2.090  19.237  0.00  0.00    +0.000 A 
ATOM     21  C   UNL     1       1.230   3.075  20.173  0.00  0.00    +0.000 A 
ATOM     22  C   UNL     1       1.787   4.339  19.786  0.00  0.00    +0.000 A 
ATOM     23  C   UNL     1       1.703   5.570  20.628  0.00  0.00    +0.000 C 
ENDBRANCH  17  18
ENDBRANCH  16  17
ENDBRANCH  14  16
ENDBRANCH   1  14
TORSDOF 7
ENDMDL
MODEL 3
REMARK VINA RESULT:      -7.1      1.050      1.583
REMARK  Name = 
REMARK  9 active torsions:
REMARK  status: ('A' for Active; 'I' for Inactive)
REMARK    1  A    between atoms: C_1  and  O_2
REMARK    2  A    between atoms: O_2  and  C_3
REMARK    3  A    between atoms: C_3  and  C_5
REMARK    4  A    between atoms: C_7  and  S_8
REMARK    5  A    between atoms: S_8  and  N_11
REMARK    6  A    between atoms: N_11  and  C_12
REMARK    7  A    between atoms: C_12  and  C_13
REMARK    8  A    between atoms: C_13  and  C_14
REMARK    9  A    between atoms: C_18  and  C_19
REMARK                            x       y       z     vdW  Elec       q    Type
REMARK                         _______ _______ _______ _____ _____    ______ ____
ROOT
ATOM      1  S   UNL     1       5.860   4.792  19.254  0.00  0.00    +0.000 S 
ATOM      2  O   UNL     1       5.527   3.390  19.145  0.00  0.00    +0.000 OA
ATOM      3  O   UNL     1       6.881   5.275  20.155  0.00  0.00    +0.000 OA
ENDROOT
BRANCH   1   6
ATOM      4  C   UNL     1       6.870   5.099  15.454  0.00  0.00    +0.000 A 
ATOM      5  C   UNL     1       6.217   4.453  16.494  0.00  0.00    +0.000 A 
ATOM      6  C   UNL     1       6.399   5.229  17.671  0.00  0.00    +0.000 A 
ATOM      7  C   UNL     1       7.126   6.347  17.318  0.00  0.00    +0.000 A 
ATOM      8  N   UNL     1       7.411   6.254  15.983  0.00  0.00    +0.000 N 
ATOM      9  H   UNL     1       7.962   6.914  15.446  0.00  0.00    +0.000 HD
BRANCH   4  10
ATOM     10  C   UNL     1       7.051   4.750  14.064  0.00  0.00    +0.000 C 
ATOM     11  O   UNL     1       7.674   5.433  13.262  0.00  0.00    +0.000 OA
BRANCH  10  13
ATOM     12  C   UNL     1       5.294   3.705  12.927  0.00  0.00    +0.000 C 
ATOM     13  O   UNL     1       6.431   3.573  13.782  0.00  0.00    +0.000 OA
ENDBRANCH  10  13
ENDBRANCH   4  10
ENDBRANCH   1   6
BRANCH   1  14
ATOM     14  N   UNL     1       4.412   5.604  19.596  0.00  0.00    +0.000 NA
ATOM     15  H   UNL     1       4.596   6.247  20.368  0.00  0.00    +0.000 HD
BRANCH  14  16
ATOM     16  C   UNL     1       3.755   6.241  18.432  0.00  0.00    +0.000 C 
BRANCH  16  17
ATOM     17  C   UNL     1       2.589   5.380  17.935  0.00  0.00    +0.000 C 
BRANCH  17  18
ATOM     18  C   UNL     1       2.159   4.394  18.990  0.00  0.00    +0.000 A 
ATOM     19  S   UNL     1       1.622   4.982  20.510  0.00  0.00    +0.000 S 
ATOM     20  C   UNL     1       1.291   3.409  21.076  0.00  0.00    +0.000 A 
ATOM     21  C   UNL     1       1.594   2.451  20.136  0.00  0.00    +0.000 A 
ATOM     22  C   UNL     1       2.106   3.010  18.918  0.00  0.00    +0.000 A 
ATOM     23  C   UNL     1       2.504   2.187  17.737  0.00  0.00    +0.000 C 
ENDBRANCH  17  18
ENDBRANCH  16  17
ENDBRANCH  14  16
ENDBRANCH   1  14
TORSDOF 7
ENDMDL
MODEL 4
REMARK VINA RESULT:      -7.0      2.178      3.135
REMARK  Name = 
REMARK  9 active torsions:
REMARK  status: ('A' for Active; 'I' for Inactive)
REMARK    1  A    between atoms: C_1  and  O_2
REMARK    2  A    between atoms: O_2  and  C_3
REMARK    3  A    between atoms: C_3  and  C_5
REMARK    4  A    between atoms: C_7  and  S_8
REMARK    5  A    between atoms: S_8  and  N_11
REMARK    6  A    between atoms: N_11  and  C_12
REMARK    7  A    between atoms: C_12  and  C_13
REMARK    8  A    between atoms: C_13  and  C_14
REMARK    9  A    between atoms: C_18  and  C_19
REMARK                            x       y       z     vdW  Elec       q    Type
REMARK                         _______ _______ _______ _____ _____    ______ ____
ROOT
ATOM      1  S   UNL     1       7.108   5.359  16.408  0.00  0.00    +0.000 S 
ATOM      2  O   UNL     1       7.826   4.268  17.027  0.00  0.00    +0.000 OA
ATOM      3  O   UNL     1       7.662   6.690  16.308  0.00  0.00    +0.000 OA
ENDROOT
BRANCH   1   6
ATOM      4  C   UNL     1       6.005   3.752  12.979  0.00  0.00    +0.000 A 
ATOM      5  C   UNL     1       5.796   4.018  14.324  0.00  0.00    +0.000 A 
ATOM      6  C   UNL     1       6.863   4.840  14.778  0.00  0.00    +0.000 A 
ATOM      7  C   UNL     1       7.680   5.088  13.693  0.00  0.00    +0.000 A 
ATOM      8  N   UNL     1       7.158   4.422  12.618  0.00  0.00    +0.000 N 
ATOM      9  H   UNL     1       7.559   4.389  11.688  0.00  0.00    +0.000 HD
BRANCH   4  10
ATOM     10  C   UNL     1       5.273   2.947  12.029  0.00  0.00    +0.000 C 
ATOM     11  O   UNL     1       5.726   1.950  11.484  0.00  0.00    +0.000 OA
BRANCH  10  13
ATOM     12  C   UNL     1       3.591   3.404  10.469  0.00  0.00    +0.000 C 
ATOM     13  O   UNL     1       4.029   3.458  11.828  0.00  0.00    +0.000 OA
ENDBRANCH  10  13
ENDBRANCH   4  10
ENDBRANCH   1   6
BRANCH   1  14
ATOM     14  N   UNL     1       5.611   5.457  17.195  0.00  0.00    +0.000 NA
ATOM     15  H   UNL     1       4.966   5.944  16.570  0.00  0.00    +0.000 HD
BRANCH  14  16
ATOM     16  C   UNL     1       5.085   4.172  17.711  0.00  0.00    +0.000 C 
BRANCH  16  17
ATOM     17  C   UNL     1       3.579   4.063  17.446  0.00  0.00    +0.000 C 
BRANCH  17  18
ATOM     18  C   UNL     1       2.791   4.334  18.700  0.00  0.00    +0.000 A 
ATOM     19  S   UNL     1       2.831   5.907  19.386  0.00  0.00    +0.000 S 
ATOM     20  C   UNL     1       1.748   5.466  20.626  0.00  0.00    +0.000 A 
ATOM     21  C   UNL     1       1.371   4.147  20.533  0.00  0.00    +0.000 A 
ATOM     22  C   UNL     1       1.975   3.473  19.420  0.00  0.00    +0.000 A 
ATOM     23  C   UNL     1       1.725   2.038  19.091  0.00  0.00    +0.000 C 
ENDBRANCH  17  18
ENDBRANCH  16  17
ENDBRANCH  14  16
ENDBRANCH   1  14
TORSDOF 7
ENDMDL
MODEL 5
REMARK VINA RESULT:      -7.0      3.354      4.924
REMARK  Name = 
REMARK  9 active torsions:
REMARK  status: ('A' for Active; 'I' for Inactive)
REMARK    1  A    between atoms: C_1  and  O_2
REMARK    2  A    between atoms: O_2  and  C_3
REMARK    3  A    between atoms: C_3  and  C_5
REMARK    4  A    between atoms: C_7  and  S_8
REMARK    5  A    between atoms: S_8  and  N_11
REMARK    6  A    between atoms: N_11  and  C_12
REMARK    7  A    between atoms: C_12  and  C_13
REMARK    8  A    between atoms: C_13  and  C_14
REMARK    9  A    between atoms: C_18  and  C_19
REMARK                            x       y       z     vdW  Elec       q    Type
REMARK                         _______ _______ _______ _____ _____    ______ ____
ROOT
ATOM      1  S   UNL     1       6.487   5.916  16.165  0.00  0.00    +0.000 S 
ATOM      2  O   UNL     1       5.548   6.850  15.583  0.00  0.00    +0.000 OA
ATOM      3  O   UNL     1       7.519   5.274  15.384  0.00  0.00    +0.000 OA
ENDROOT
BRANCH   1   6
ATOM      4  C   UNL     1       8.384   8.568  18.383  0.00  0.00    +0.000 A 
ATOM      5  C   UNL     1       7.630   8.225  17.270  0.00  0.00    +0.000 A 
ATOM      6  C   UNL     1       7.323   6.840  17.362  0.00  0.00    +0.000 A 
ATOM      7  C   UNL     1       7.864   6.377  18.543  0.00  0.00    +0.000 A 
ATOM      8  N   UNL     1       8.507   7.423  19.146  0.00  0.00    +0.000 N 
ATOM      9  H   UNL     1       9.028   7.380  20.014  0.00  0.00    +0.000 HD
BRANCH   4  10
ATOM     10  C   UNL     1       8.999   9.811  18.786  0.00  0.00    +0.000 C 
ATOM     11  O   UNL     1       9.188  10.136  19.950  0.00  0.00    +0.000 OA
BRANCH  10  13
ATOM     12  C   UNL     1      10.180  11.666  17.987  0.00  0.00    +0.000 C 
ATOM     13  O   UNL     1       9.325  10.558  17.697  0.00  0.00    +0.000 OA
ENDBRANCH  10  13
ENDBRANCH   4  10
ENDBRANCH   1   6
BRANCH   1  14
ATOM     14  N   UNL     1       5.562   4.718  16.926  0.00  0.00    +0.000 NA
ATOM     15  H   UNL     1       6.002   4.516  17.826  0.00  0.00    +0.000 HD
BRANCH  14  16
ATOM     16  C   UNL     1       4.113   5.005  17.023  0.00  0.00    +0.000 C 
BRANCH  16  17
ATOM     17  C   UNL     1       3.349   3.764  17.500  0.00  0.00    +0.000 C 
BRANCH  17  18
ATOM     18  C   UNL     1       2.613   4.046  18.783  0.00  0.00    +0.000 A 
ATOM     19  S   UNL     1       3.114   5.366  19.760  0.00  0.00    +0.000 S 
ATOM     20  C   UNL     1       1.870   5.088  20.891  0.00  0.00    +0.000 A 
ATOM     21  C   UNL     1       1.094   4.006  20.545  0.00  0.00    +0.000 A 
ATOM     22  C   UNL     1       1.518   3.386  19.323  0.00  0.00    +0.000 A 
ATOM     23  C   UNL     1       0.841   2.198  18.722  0.00  0.00    +0.000 C 
ENDBRANCH  17  18
ENDBRANCH  16  17
ENDBRANCH  14  16
ENDBRANCH   1  14
TORSDOF 7
ENDMDL
MODEL 6
REMARK VINA RESULT:      -6.9      3.019      5.035
REMARK  Name = 
REMARK  9 active torsions:
REMARK  status: ('A' for Active; 'I' for Inactive)
REMARK    1  A    between atoms: C_1  and  O_2
REMARK    2  A    between atoms: O_2  and  C_3
REMARK    3  A    between atoms: C_3  and  C_5
REMARK    4  A    between atoms: C_7  and  S_8
REMARK    5  A    between atoms: S_8  and  N_11
REMARK    6  A    between atoms: N_11  and  C_12
REMARK    7  A    between atoms: C_12  and  C_13
REMARK    8  A    between atoms: C_13  and  C_14
REMARK    9  A    between atoms: C_18  and  C_19
REMARK                            x       y       z     vdW  Elec       q    Type
REMARK                         _______ _______ _______ _____ _____    ______ ____
ROOT
ATOM      1  S   UNL     1       5.539   4.874  17.837  0.00  0.00    +0.000 S 
ATOM      2  O   UNL     1       6.075   5.588  16.700  0.00  0.00    +0.000 OA
ATOM      3  O   UNL     1       6.336   4.574  19.005  0.00  0.00    +0.000 OA
ENDROOT
BRANCH   1   6
ATOM      4  C   UNL     1       2.737   7.565  18.514  0.00  0.00    +0.000 A 
ATOM      5  C   UNL     1       3.670   6.958  17.686  0.00  0.00    +0.000 A 
ATOM      6  C   UNL     1       4.251   5.877  18.404  0.00  0.00    +0.000 A 
ATOM      7  C   UNL     1       3.636   5.825  19.637  0.00  0.00    +0.000 A 
ATOM      8  N   UNL     1       2.733   6.851  19.696  0.00  0.00    +0.000 N 
ATOM      9  H   UNL     1       2.153   7.087  20.493  0.00  0.00    +0.000 HD
BRANCH   4  10
ATOM     10  C   UNL     1       1.889   8.720  18.330  0.00  0.00    +0.000 C 
ATOM     11  O   UNL     1       1.960   9.475  17.370  0.00  0.00    +0.000 OA
BRANCH  10  13
ATOM     12  C   UNL     1       0.905  10.177  19.873  0.00  0.00    +0.000 C 
ATOM     13  O   UNL     1       1.019   8.845  19.367  0.00  0.00    +0.000 OA
ENDBRANCH  10  13
ENDBRANCH   4  10
ENDBRANCH   1   6
BRANCH   1  14
ATOM     14  N   UNL     1       4.898   3.426  17.235  0.00  0.00    +0.000 NA
ATOM     15  H   UNL     1       5.269   2.665  17.807  0.00  0.00    +0.000 HD
BRANCH  14  16
ATOM     16  C   UNL     1       3.425   3.400  17.091  0.00  0.00    +0.000 C 
BRANCH  16  17
ATOM     17  C   UNL     1       2.838   2.167  17.788  0.00  0.00    +0.000 C 
BRANCH  17  18
ATOM     18  C   UNL     1       2.472   2.480  19.215  0.00  0.00    +0.000 A 
ATOM     19  S   UNL     1       0.894   3.057  19.564  0.00  0.00    +0.000 S 
ATOM     20  C   UNL     1       1.212   3.114  21.237  0.00  0.00    +0.000 A 
ATOM     21  C   UNL     1       2.496   2.716  21.529  0.00  0.00    +0.000 A 
ATOM     22  C   UNL     1       3.243   2.350  20.361  0.00  0.00    +0.000 A 
ATOM     23  C   UNL     1       4.659   1.875  20.403  0.00  0.00    +0.000 C 
ENDBRANCH  17  18
ENDBRANCH  16  17
ENDBRANCH  14  16
ENDBRANCH   1  14
TORSDOF 7
ENDMDL
MODEL 7
REMARK VINA RESULT:      -6.9      1.888      2.464
REMARK  Name = 
REMARK  9 active torsions:
REMARK  status: ('A' for Active; 'I' for Inactive)
REMARK    1  A    between atoms: C_1  and  O_2
REMARK    2  A    between atoms: O_2  and  C_3
REMARK    3  A    between atoms: C_3  and  C_5
REMARK    4  A    between atoms: C_7  and  S_8
REMARK    5  A    between atoms: S_8  and  N_11
REMARK    6  A    between atoms: N_11  and  C_12
REMARK    7  A    between atoms: C_12  and  C_13
REMARK    8  A    between atoms: C_13  and  C_14
REMARK    9  A    between atoms: C_18  and  C_19
REMARK                            x       y       z     vdW  Elec       q    Type
REMARK                         _______ _______ _______ _____ _____    ______ ____
ROOT
ATOM      1  S   UNL     1       6.328   6.097  17.264  0.00  0.00    +0.000 S 
ATOM      2  O   UNL     1       7.129   5.455  18.283  0.00  0.00    +0.000 OA
ATOM      3  O   UNL     1       6.713   7.350  16.656  0.00  0.00    +0.000 OA
ENDROOT
BRANCH   1   6
ATOM      4  C   UNL     1       6.415   4.068  13.883  0.00  0.00    +0.000 A 
ATOM      5  C   UNL     1       6.691   5.203  14.632  0.00  0.00    +0.000 A 
ATOM      6  C   UNL     1       6.284   4.952  15.971  0.00  0.00    +0.000 A 
ATOM      7  C   UNL     1       5.804   3.659  16.019  0.00  0.00    +0.000 A 
ATOM      8  N   UNL     1       5.880   3.140  14.755  0.00  0.00    +0.000 N 
ATOM      9  H   UNL     1       5.568   2.218  14.472  0.00  0.00    +0.000 HD
BRANCH   4  10
ATOM     10  C   UNL     1       6.577   3.775  12.479  0.00  0.00    +0.000 C 
ATOM     11  O   UNL     1       7.370   4.351  11.746  0.00  0.00    +0.000 OA
BRANCH  10  13
ATOM     12  C   UNL     1       4.522   3.259  11.487  0.00  0.00    +0.000 C 
ATOM     13  O   UNL     1       5.726   2.786  12.095  0.00  0.00    +0.000 OA
ENDBRANCH  10  13
ENDBRANCH   4  10
ENDBRANCH   1   6
BRANCH   1  14
ATOM     14  N   UNL     1       4.773   6.268  17.914  0.00  0.00    +0.000 NA
ATOM     15  H   UNL     1       4.106   5.980  17.196  0.00  0.00    +0.000 HD
BRANCH  14  16
ATOM     16  C   UNL     1       4.560   5.611  19.223  0.00  0.00    +0.000 C 
BRANCH  16  17
ATOM     17  C   UNL     1       3.159   5.923  19.761  0.00  0.00    +0.000 C 
BRANCH  17  18
ATOM     18  C   UNL     1       2.351   4.663  19.923  0.00  0.00    +0.000 A 
ATOM     19  S   UNL     1       2.234   3.942  21.477  0.00  0.00    +0.000 S 
ATOM     20  C   UNL     1       1.205   2.711  20.902  0.00  0.00    +0.000 A 
ATOM     21  C   UNL     1       0.963   2.833  19.553  0.00  0.00    +0.000 A 
ATOM     22  C   UNL     1       1.629   3.961  18.969  0.00  0.00    +0.000 A 
ATOM     23  C   UNL     1       1.525   4.322  17.523  0.00  0.00    +0.000 C 
ENDBRANCH  17  18
ENDBRANCH  16  17
ENDBRANCH  14  16
ENDBRANCH   1  14
TORSDOF 7
ENDMDL
MODEL 8
REMARK VINA RESULT:      -6.8      2.809      4.683
REMARK  Name = 
REMARK  9 active torsions:
REMARK  status: ('A' for Active; 'I' for Inactive)
REMARK    1  A    between atoms: C_1  and  O_2
REMARK    2  A    between atoms: O_2  and  C_3
REMARK    3  A    between atoms: C_3  and  C_5
REMARK    4  A    between atoms: C_7  and  S_8
REMARK    5  A    between atoms: S_8  and  N_11
REMARK    6  A    between atoms: N_11  and  C_12
REMARK    7  A    between atoms: C_12  and  C_13
REMARK    8  A    between atoms: C_13  and  C_14
REMARK    9  A    between atoms: C_18  and  C_19
REMARK                            x       y       z     vdW  Elec       q    Type
REMARK                         _______ _______ _______ _____ _____    ______ ____
ROOT
ATOM      1  S   UNL     1       2.647   3.036  18.647  0.00  0.00    +0.000 S 
ATOM      2  O   UNL     1       2.120   2.307  17.516  0.00  0.00    +0.000 OA
ATOM      3  O   UNL     1       2.883   2.409  19.927  0.00  0.00    +0.000 OA
ENDROOT
BRANCH   1   6
ATOM      4  C   UNL     1       6.232   4.593  18.120  0.00  0.00    +0.000 A 
ATOM      5  C   UNL     1       5.175   4.214  18.935  0.00  0.00    +0.000 A 
ATOM      6  C   UNL     1       4.194   3.592  18.115  0.00  0.00    +0.000 A 
ATOM      7  C   UNL     1       4.688   3.572  16.827  0.00  0.00    +0.000 A 
ATOM      8  N   UNL     1       5.911   4.184  16.840  0.00  0.00    +0.000 N 
ATOM      9  H   UNL     1       6.502   4.349  16.033  0.00  0.00    +0.000 HD
BRANCH   4  10
ATOM     10  C   UNL     1       7.463   5.293  18.400  0.00  0.00    +0.000 C 
ATOM     11  O   UNL     1       8.097   5.175  19.441  0.00  0.00    +0.000 OA
BRANCH  10  13
ATOM     12  C   UNL     1       7.485   7.473  17.553  0.00  0.00    +0.000 C 
ATOM     13  O   UNL     1       7.806   6.095  17.357  0.00  0.00    +0.000 OA
ENDBRANCH  10  13
ENDBRANCH   4  10
ENDBRANCH   1   6
BRANCH   1  14
ATOM     14  N   UNL     1       1.623   4.366  18.879  0.00  0.00    +0.000 NA
ATOM     15  H   UNL     1       0.701   4.110  18.522  0.00  0.00    +0.000 HD
BRANCH  14  16
ATOM     16  C   UNL     1       1.599   4.912  20.255  0.00  0.00    +0.000 C 
BRANCH  16  17
ATOM     17  C   UNL     1       2.641   6.025  20.411  0.00  0.00    +0.000 C 
BRANCH  17  18
ATOM     18  C   UNL     1       2.164   7.303  19.771  0.00  0.00    +0.000 A 
ATOM     19  S   UNL     1       1.096   8.323  20.645  0.00  0.00    +0.000 S 
ATOM     20  C   UNL     1       1.069   9.478  19.392  0.00  0.00    +0.000 A 
ATOM     21  C   UNL     1       1.843   9.094  18.322  0.00  0.00    +0.000 A 
ATOM     22  C   UNL     1       2.482   7.826  18.526  0.00  0.00    +0.000 A 
ATOM     23  C   UNL     1       3.384   7.186  17.522  0.00  0.00    +0.000 C 
ENDBRANCH  17  18
ENDBRANCH  16  17
ENDBRANCH  14  16
ENDBRANCH   1  14
TORSDOF 7
ENDMDL
MODEL 9
REMARK VINA RESULT:      -6.8      1.809      2.376
REMARK  Name = 
REMARK  9 active torsions:
REMARK  status: ('A' for Active; 'I' for Inactive)
REMARK    1  A    between atoms: C_1  and  O_2
REMARK    2  A    between atoms: O_2  and  C_3
REMARK    3  A    between atoms: C_3  and  C_5
REMARK    4  A    between atoms: C_7  and  S_8
REMARK    5  A    between atoms: S_8  and  N_11
REMARK    6  A    between atoms: N_11  and  C_12
REMARK    7  A    between atoms: C_12  and  C_13
REMARK    8  A    between atoms: C_13  and  C_14
REMARK    9  A    between atoms: C_18  and  C_19
REMARK                            x       y       z     vdW  Elec       q    Type
REMARK                         _______ _______ _______ _____ _____    ______ ____
ROOT
ATOM      1  S   UNL     1       4.348   5.866  18.193  0.00  0.00    +0.000 S 
ATOM      2  O   UNL     1       4.919   5.538  19.480  0.00  0.00    +0.000 OA
ATOM      3  O   UNL     1       3.990   7.218  17.829  0.00  0.00    +0.000 OA
ENDROOT
BRANCH   1   6
ATOM      4  C   UNL     1       6.608   4.986  15.082  0.00  0.00    +0.000 A 
ATOM      5  C   UNL     1       5.494   5.589  15.649  0.00  0.00    +0.000 A 
ATOM      6  C   UNL     1       5.558   5.388  17.055  0.00  0.00    +0.000 A 
ATOM      7  C   UNL     1       6.725   4.701  17.319  0.00  0.00    +0.000 A 
ATOM      8  N   UNL     1       7.344   4.457  16.124  0.00  0.00    +0.000 N 
ATOM      9  H   UNL     1       8.207   3.940  15.996  0.00  0.00    +0.000 HD
BRANCH   4  10
ATOM     10  C   UNL     1       7.032   4.840  13.709  0.00  0.00    +0.000 C 
ATOM     11  O   UNL     1       7.891   5.533  13.181  0.00  0.00    +0.000 OA
BRANCH  10  13
ATOM     12  C   UNL     1       6.958   3.352  11.906  0.00  0.00    +0.000 C 
ATOM     13  O   UNL     1       6.341   3.840  13.099  0.00  0.00    +0.000 OA
ENDBRANCH  10  13
ENDBRANCH   4  10
ENDBRANCH   1   6
BRANCH   1  14
ATOM     14  N   UNL     1       2.984   4.878  18.008  0.00  0.00    +0.000 NA
ATOM     15  H   UNL     1       2.203   5.480  17.739  0.00  0.00    +0.000 HD
BRANCH  14  16
ATOM     16  C   UNL     1       3.168   3.708  17.120  0.00  0.00    +0.000 C 
BRANCH  16  17
ATOM     17  C   UNL     1       2.556   2.452  17.752  0.00  0.00    +0.000 C 
BRANCH  17  18
ATOM     18  C   UNL     1       2.331   2.647  19.228  0.00  0.00    +0.000 A 
ATOM     19  S   UNL     1       0.772   3.108  19.779  0.00  0.00    +0.000 S 
ATOM     20  C   UNL     1       1.265   3.072  21.410  0.00  0.00    +0.000 A 
ATOM     21  C   UNL     1       2.591   2.730  21.538  0.00  0.00    +0.000 A 
ATOM     22  C   UNL     1       3.226   2.486  20.275  0.00  0.00    +0.000 A 
ATOM     23  C   UNL     1       4.660   2.091  20.136  0.00  0.00    +0.000 C 
ENDBRANCH  17  18
ENDBRANCH  16  17
ENDBRANCH  14  16
ENDBRANCH   1  14
TORSDOF 7
ENDMDL
