MODEL 1
REMARK VINA RESULT:      -7.6      0.000      0.000
REMARK  Name = 
REMARK  9 active torsions:
REMARK  status: ('A' for Active; 'I' for Inactive)
REMARK    1  A    between atoms: C_1  and  C_2
REMARK    2  A    between atoms: C_2  and  N_3
REMARK    3  A    between atoms: C_2  and  C_19
REMARK    4  A    between atoms: C_8  and  N_9
REMARK    5  A    between atoms: C_14  and  C_15
REMARK    6  A    between atoms: C_15  and  C_16
REMARK    7  A    between atoms: C_15  and  O_17
REMARK    8  A    between atoms: C_22  and  O_23
REMARK    9  A    between atoms: O_23  and  C_24
REMARK                            x       y       z     vdW  Elec       q    Type
REMARK                         _______ _______ _______ _____ _____    ______ ____
ROOT
ATOM      1  N   UNL     1       2.078   7.533  18.810  0.00  0.00    +0.000 N 
ATOM      2  C   UNL     1       1.535   8.418  19.728  0.00  0.00    +0.000 A 
ATOM      3  N   UNL     1       1.261   8.014  20.970  0.00  0.00    +0.000 NA
ATOM      4  C   UNL     1       0.793   8.933  21.831  0.00  0.00    +0.000 A 
ATOM      5  C   UNL     1       0.646  10.258  21.509  0.00  0.00    +0.000 A 
ATOM      6  C   UNL     1       0.914  10.578  20.198  0.00  0.00    +0.000 A 
ATOM      7  N   UNL     1       1.300   9.666  19.283  0.00  0.00    +0.000 NA
ATOM      8  H   UNL     1       2.524   8.078  18.083  0.00  0.00    +0.000 HD
ENDROOT
BRANCH   6   9
ATOM      9  N   UNL     1       0.671  11.896  19.787  0.00  0.00    +0.000 N 
ATOM     10  C   UNL     1       1.419  12.967  20.224  0.00  0.00    +0.000 C 
ATOM     11  O   UNL     1       2.268  12.977  21.100  0.00  0.00    +0.000 OA
ATOM     12  O   UNL     1       1.099  14.070  19.483  0.00  0.00    +0.000 OA
ATOM     13  C   UNL     1      -0.057  13.763  18.697  0.00  0.00    +0.000 C 
ATOM     14  C   UNL     1      -0.130  12.243  18.645  0.00  0.00    +0.000 C 
BRANCH  14  15
ATOM     15  C   UNL     1      -1.590  11.732  18.763  0.00  0.00    +0.000 C 
ATOM     16  C   UNL     1      -2.343  12.294  19.964  0.00  0.00    +0.000 C 
BRANCH  15  17
ATOM     17  O   UNL     1      -2.383  12.063  17.620  0.00  0.00    +0.000 OA
ATOM     18  H   UNL     1      -2.363  13.031  17.476  0.00  0.00    +0.000 HD
ENDBRANCH  15  17
ENDBRANCH  14  15
ENDBRANCH   6   9
BRANCH   1  20
ATOM     19  C   UNL     1       1.971   5.194  19.446  0.00  0.00    +0.000 C 
ATOM     20  C   UNL     1       2.881   6.426  19.325  0.00  0.00    +0.000 C 
BRANCH  20  21
ATOM     21  C   UNL     1       4.085   6.184  18.419  0.00  0.00    +0.000 A 
ATOM     22  C   UNL     1       4.245   6.967  17.265  0.00  0.00    +0.000 A 
ATOM     23  C   UNL     1       5.319   6.753  16.396  0.00  0.00    +0.000 A 
ATOM     24  C   UNL     1       6.263   5.760  16.662  0.00  0.00    +0.000 A 
ATOM     25  C   UNL     1       6.108   4.962  17.795  0.00  0.00    +0.000 A 
ATOM     26  C   UNL     1       5.029   5.174  18.665  0.00  0.00    +0.000 A 
BRANCH  24  27
ATOM     27  O   UNL     1       7.257   5.641  15.732  0.00  0.00    +0.000 OA
BRANCH  27  28
ATOM     28  C   UNL     1       7.050   4.658  14.731  0.00  0.00    +0.000 C 
ATOM     29  F   UNL     1       5.718   4.472  14.557  0.00  0.00    +0.000 F 
ATOM     30  F   UNL     1       7.527   5.162  13.564  0.00  0.00    +0.000 F 
ENDBRANCH  27  28
ENDBRANCH  24  27
ENDBRANCH  20  21
ENDBRANCH   1  20
TORSDOF 7
ENDMDL
MODEL 2
REMARK VINA RESULT:      -7.6      0.929      2.288
REMARK  Name = 
REMARK  9 active torsions:
REMARK  status: ('A' for Active; 'I' for Inactive)
REMARK    1  A    between atoms: C_1  and  C_2
REMARK    2  A    between atoms: C_2  and  N_3
REMARK    3  A    between atoms: C_2  and  C_19
REMARK    4  A    between atoms: C_8  and  N_9
REMARK    5  A    between atoms: C_14  and  C_15
REMARK    6  A    between atoms: C_15  and  C_16
REMARK    7  A    between atoms: C_15  and  O_17
REMARK    8  A    between atoms: C_22  and  O_23
REMARK    9  A    between atoms: O_23  and  C_24
REMARK                            x       y       z     vdW  Elec       q    Type
REMARK                         _______ _______ _______ _____ _____    ______ ____
ROOT
ATOM      1  N   UNL     1       2.270   7.060  18.831  0.00  0.00    +0.000 N 
ATOM      2  C   UNL     1       1.680   8.007  19.655  0.00  0.00    +0.000 A 
ATOM      3  N   UNL     1       1.606   7.798  20.970  0.00  0.00    +0.000 NA
ATOM      4  C   UNL     1       1.078   8.777  21.725  0.00  0.00    +0.000 A 
ATOM      5  C   UNL     1       0.678   9.985  21.214  0.00  0.00    +0.000 A 
ATOM      6  C   UNL     1       0.754  10.099  19.845  0.00  0.00    +0.000 A 
ATOM      7  N   UNL     1       1.194   9.104  19.047  0.00  0.00    +0.000 NA
ATOM      8  H   UNL     1       2.541   7.525  17.973  0.00  0.00    +0.000 HD
ENDROOT
BRANCH   6   9
ATOM      9  N   UNL     1       0.252  11.270  19.259  0.00  0.00    +0.000 N 
ATOM     10  C   UNL     1      -0.878  11.290  18.474  0.00  0.00    +0.000 C 
ATOM     11  O   UNL     1      -1.513  10.336  18.055  0.00  0.00    +0.000 OA
ATOM     12  O   UNL     1      -1.242  12.587  18.243  0.00  0.00    +0.000 OA
ATOM     13  C   UNL     1      -0.185  13.437  18.699  0.00  0.00    +0.000 C 
ATOM     14  C   UNL     1       0.638  12.594  19.664  0.00  0.00    +0.000 C 
BRANCH  14  15
ATOM     15  C   UNL     1       2.159  12.850  19.501  0.00  0.00    +0.000 C 
ATOM     16  C   UNL     1       2.633  12.829  18.051  0.00  0.00    +0.000 C 
BRANCH  15  17
ATOM     17  O   UNL     1       2.562  14.119  20.022  0.00  0.00    +0.000 OA
ATOM     18  H   UNL     1       3.421  14.027  20.480  0.00  0.00    +0.000 HD
ENDBRANCH  15  17
ENDBRANCH  14  15
ENDBRANCH   6   9
BRANCH   1  20
ATOM     19  C   UNL     1       2.620   4.893  19.863  0.00  0.00    +0.000 C 
ATOM     20  C   UNL     1       3.296   6.197  19.410  0.00  0.00    +0.000 C 
BRANCH  20  21
ATOM     21  C   UNL     1       4.417   5.962  18.402  0.00  0.00    +0.000 A 
ATOM     22  C   UNL     1       4.473   6.748  17.241  0.00  0.00    +0.000 A 
ATOM     23  C   UNL     1       5.467   6.541  16.280  0.00  0.00    +0.000 A 
ATOM     24  C   UNL     1       6.434   5.551  16.460  0.00  0.00    +0.000 A 
ATOM     25  C   UNL     1       6.382   4.749  17.599  0.00  0.00    +0.000 A 
ATOM     26  C   UNL     1       5.382   4.955  18.561  0.00  0.00    +0.000 A 
BRANCH  24  27
ATOM     27  O   UNL     1       7.343   5.438  15.446  0.00  0.00    +0.000 OA
BRANCH  27  28
ATOM     28  C   UNL     1       6.834   4.961  14.212  0.00  0.00    +0.000 C 
ATOM     29  F   UNL     1       7.770   5.137  13.246  0.00  0.00    +0.000 F 
ATOM     30  F   UNL     1       6.655   3.621  14.337  0.00  0.00    +0.000 F 
ENDBRANCH  27  28
ENDBRANCH  24  27
ENDBRANCH  20  21
ENDBRANCH   1  20
TORSDOF 7
ENDMDL
MODEL 3
REMARK VINA RESULT:      -7.5      0.521      1.020
REMARK  Name = 
REMARK  9 active torsions:
REMARK  status: ('A' for Active; 'I' for Inactive)
REMARK    1  A    between atoms: C_1  and  C_2
REMARK    2  A    between atoms: C_2  and  N_3
REMARK    3  A    between atoms: C_2  and  C_19
REMARK    4  A    between atoms: C_8  and  N_9
REMARK    5  A    between atoms: C_14  and  C_15
REMARK    6  A    between atoms: C_15  and  C_16
REMARK    7  A    between atoms: C_15  and  O_17
REMARK    8  A    between atoms: C_22  and  O_23
REMARK    9  A    between atoms: O_23  and  C_24
REMARK                            x       y       z     vdW  Elec       q    Type
REMARK                         _______ _______ _______ _____ _____    ______ ____
ROOT
ATOM      1  N   UNL     1       2.086   7.560  18.705  0.00  0.00    +0.000 N 
ATOM      2  C   UNL     1       1.572   8.436  19.649  0.00  0.00    +0.000 A 
ATOM      3  N   UNL     1       1.341   8.019  20.895  0.00  0.00    +0.000 NA
ATOM      4  C   UNL     1       0.900   8.928  21.781  0.00  0.00    +0.000 A 
ATOM      5  C   UNL     1       0.738  10.255  21.477  0.00  0.00    +0.000 A 
ATOM      6  C   UNL     1       0.960  10.588  20.161  0.00  0.00    +0.000 A 
ATOM      7  N   UNL     1       1.318   9.687  19.224  0.00  0.00    +0.000 NA
ATOM      8  H   UNL     1       2.505   8.114  17.968  0.00  0.00    +0.000 HD
ENDROOT
BRANCH   6   9
ATOM      9  N   UNL     1       0.700  11.910  19.770  0.00  0.00    +0.000 N 
ATOM     10  C   UNL     1       1.438  12.982  20.220  0.00  0.00    +0.000 C 
ATOM     11  O   UNL     1       2.291  12.989  21.091  0.00  0.00    +0.000 OA
ATOM     12  O   UNL     1       1.100  14.093  19.497  0.00  0.00    +0.000 OA
ATOM     13  C   UNL     1      -0.056  13.784  18.712  0.00  0.00    +0.000 C 
ATOM     14  C   UNL     1      -0.112  12.264  18.639  0.00  0.00    +0.000 C 
BRANCH  14  15
ATOM     15  C   UNL     1      -1.565  11.734  18.756  0.00  0.00    +0.000 C 
ATOM     16  C   UNL     1      -2.321  12.278  19.965  0.00  0.00    +0.000 C 
BRANCH  15  17
ATOM     17  O   UNL     1      -2.365  12.065  17.619  0.00  0.00    +0.000 OA
ATOM     18  H   UNL     1      -2.429  13.037  17.533  0.00  0.00    +0.000 HD
ENDBRANCH  15  17
ENDBRANCH  14  15
ENDBRANCH   6   9
BRANCH   1  20
ATOM     19  C   UNL     1       1.972   5.299  19.577  0.00  0.00    +0.000 C 
ATOM     20  C   UNL     1       2.909   6.451  19.182  0.00  0.00    +0.000 C 
BRANCH  20  21
ATOM     21  C   UNL     1       3.920   6.050  18.112  0.00  0.00    +0.000 A 
ATOM     22  C   UNL     1       4.460   4.754  18.129  0.00  0.00    +0.000 A 
ATOM     23  C   UNL     1       5.412   4.361  17.183  0.00  0.00    +0.000 A 
ATOM     24  C   UNL     1       5.840   5.247  16.194  0.00  0.00    +0.000 A 
ATOM     25  C   UNL     1       5.327   6.543  16.174  0.00  0.00    +0.000 A 
ATOM     26  C   UNL     1       4.375   6.939  17.125  0.00  0.00    +0.000 A 
BRANCH  24  27
ATOM     27  O   UNL     1       6.781   4.749  15.337  0.00  0.00    +0.000 OA
BRANCH  27  28
ATOM     28  C   UNL     1       6.289   3.947  14.278  0.00  0.00    +0.000 C 
ATOM     29  F   UNL     1       4.994   4.271  14.038  0.00  0.00    +0.000 F 
ATOM     30  F   UNL     1       6.985   4.278  13.160  0.00  0.00    +0.000 F 
ENDBRANCH  27  28
ENDBRANCH  24  27
ENDBRANCH  20  21
ENDBRANCH   1  20
TORSDOF 7
ENDMDL
MODEL 4
REMARK VINA RESULT:      -7.2      1.251      2.466
REMARK  Name = 
REMARK  9 active torsions:
REMARK  status: ('A' for Active; 'I' for Inactive)
REMARK    1  A    between atoms: C_1  and  C_2
REMARK    2  A    between atoms: C_2  and  N_3
REMARK    3  A    between atoms: C_2  and  C_19
REMARK    4  A    between atoms: C_8  and  N_9
REMARK    5  A    between atoms: C_14  and  C_15
REMARK    6  A    between atoms: C_15  and  C_16
REMARK    7  A    between atoms: C_15  and  O_17
REMARK    8  A    between atoms: C_22  and  O_23
REMARK    9  A    between atoms: O_23  and  C_24
REMARK                            x       y       z     vdW  Elec       q    Type
REMARK                         _______ _______ _______ _____ _____    ______ ____
ROOT
ATOM      1  N   UNL     1       2.289   7.055  18.744  0.00  0.00    +0.000 N 
ATOM      2  C   UNL     1       1.685   8.040  19.511  0.00  0.00    +0.000 A 
ATOM      3  N   UNL     1       1.744   7.983  20.843  0.00  0.00    +0.000 NA
ATOM      4  C   UNL     1       1.193   8.997  21.531  0.00  0.00    +0.000 A 
ATOM      5  C   UNL     1       0.638  10.098  20.930  0.00  0.00    +0.000 A 
ATOM      6  C   UNL     1       0.585  10.054  19.556  0.00  0.00    +0.000 A 
ATOM      7  N   UNL     1       1.047   9.012  18.835  0.00  0.00    +0.000 NA
ATOM      8  H   UNL     1       2.441   7.436  17.818  0.00  0.00    +0.000 HD
ENDROOT
BRANCH   6   9
ATOM      9  N   UNL     1      -0.074  11.101  18.895  0.00  0.00    +0.000 N 
ATOM     10  C   UNL     1      -1.313  10.957  18.313  0.00  0.00    +0.000 C 
ATOM     11  O   UNL     1      -1.946   9.927  18.149  0.00  0.00    +0.000 OA
ATOM     12  O   UNL     1      -1.787  12.189  17.957  0.00  0.00    +0.000 OA
ATOM     13  C   UNL     1      -0.726  13.137  18.102  0.00  0.00    +0.000 C 
ATOM     14  C   UNL     1       0.288  12.485  19.031  0.00  0.00    +0.000 C 
BRANCH  14  15
ATOM     15  C   UNL     1       1.746  12.768  18.584  0.00  0.00    +0.000 C 
ATOM     16  C   UNL     1       2.677  13.151  19.730  0.00  0.00    +0.000 C 
BRANCH  15  17
ATOM     17  O   UNL     1       2.356  11.642  17.949  0.00  0.00    +0.000 OA
ATOM     18  H   UNL     1       1.732  11.251  17.305  0.00  0.00    +0.000 HD
ENDBRANCH  15  17
ENDBRANCH  14  15
ENDBRANCH   6   9
BRANCH   1  20
ATOM     19  C   UNL     1       2.920   5.106  20.045  0.00  0.00    +0.000 C 
ATOM     20  C   UNL     1       3.438   6.356  19.315  0.00  0.00    +0.000 C 
BRANCH  20  21
ATOM     21  C   UNL     1       4.448   6.024  18.221  0.00  0.00    +0.000 A 
ATOM     22  C   UNL     1       5.540   5.195  18.522  0.00  0.00    +0.000 A 
ATOM     23  C   UNL     1       6.502   4.895  17.552  0.00  0.00    +0.000 A 
ATOM     24  C   UNL     1       6.392   5.406  16.259  0.00  0.00    +0.000 A 
ATOM     25  C   UNL     1       5.323   6.245  15.948  0.00  0.00    +0.000 A 
ATOM     26  C   UNL     1       4.360   6.550  16.922  0.00  0.00    +0.000 A 
BRANCH  24  27
ATOM     27  O   UNL     1       7.400   5.051  15.407  0.00  0.00    +0.000 OA
BRANCH  27  28
ATOM     28  C   UNL     1       7.053   4.980  14.035  0.00  0.00    +0.000 C 
ATOM     29  F   UNL     1       8.149   5.253  13.283  0.00  0.00    +0.000 F 
ATOM     30  F   UNL     1       6.710   3.695  13.769  0.00  0.00    +0.000 F 
ENDBRANCH  27  28
ENDBRANCH  24  27
ENDBRANCH  20  21
ENDBRANCH   1  20
TORSDOF 7
ENDMDL
MODEL 5
REMARK VINA RESULT:      -7.2      0.901      2.372
REMARK  Name = 
REMARK  9 active torsions:
REMARK  status: ('A' for Active; 'I' for Inactive)
REMARK    1  A    between atoms: C_1  and  C_2
REMARK    2  A    between atoms: C_2  and  N_3
REMARK    3  A    between atoms: C_2  and  C_19
REMARK    4  A    between atoms: C_8  and  N_9
REMARK    5  A    between atoms: C_14  and  C_15
REMARK    6  A    between atoms: C_15  and  C_16
REMARK    7  A    between atoms: C_15  and  O_17
REMARK    8  A    between atoms: C_22  and  O_23
REMARK    9  A    between atoms: O_23  and  C_24
REMARK                            x       y       z     vdW  Elec       q    Type
REMARK                         _______ _______ _______ _____ _____    ______ ____
ROOT
ATOM      1  N   UNL     1       2.038   7.206  19.107  0.00  0.00    +0.000 N 
ATOM      2  C   UNL     1       1.524   8.196  19.930  0.00  0.00    +0.000 A 
ATOM      3  N   UNL     1       1.484   8.017  21.251  0.00  0.00    +0.000 NA
ATOM      4  C   UNL     1       1.031   9.035  22.001  0.00  0.00    +0.000 A 
ATOM      5  C   UNL     1       0.673  10.251  21.478  0.00  0.00    +0.000 A 
ATOM      6  C   UNL     1       0.708  10.334  20.105  0.00  0.00    +0.000 A 
ATOM      7  N   UNL     1       1.072   9.304  19.315  0.00  0.00    +0.000 NA
ATOM      8  H   UNL     1       2.303   7.640  18.231  0.00  0.00    +0.000 HD
ENDROOT
BRANCH   6   9
ATOM      9  N   UNL     1       0.244  11.517  19.512  0.00  0.00    +0.000 N 
ATOM     10  C   UNL     1      -0.942  11.591  18.816  0.00  0.00    +0.000 C 
ATOM     11  O   UNL     1      -1.673  10.672  18.487  0.00  0.00    +0.000 OA
ATOM     12  O   UNL     1      -1.231  12.903  18.560  0.00  0.00    +0.000 OA
ATOM     13  C   UNL     1      -0.084  13.689  18.897  0.00  0.00    +0.000 C 
ATOM     14  C   UNL     1       0.752  12.823  19.830  0.00  0.00    +0.000 C 
BRANCH  14  15
ATOM     15  C   UNL     1       2.269  12.962  19.540  0.00  0.00    +0.000 C 
ATOM     16  C   UNL     1       2.629  12.813  18.065  0.00  0.00    +0.000 C 
BRANCH  15  17
ATOM     17  O   UNL     1       2.793  14.231  19.940  0.00  0.00    +0.000 OA
ATOM     18  H   UNL     1       3.336  14.122  20.746  0.00  0.00    +0.000 HD
ENDBRANCH  15  17
ENDBRANCH  14  15
ENDBRANCH   6   9
BRANCH   1  20
ATOM     19  C   UNL     1       2.329   5.012  20.100  0.00  0.00    +0.000 C 
ATOM     20  C   UNL     1       3.041   6.304  19.671  0.00  0.00    +0.000 C 
BRANCH  20  21
ATOM     21  C   UNL     1       4.154   6.056  18.657  0.00  0.00    +0.000 A 
ATOM     22  C   UNL     1       5.221   5.212  19.002  0.00  0.00    +0.000 A 
ATOM     23  C   UNL     1       6.275   4.986  18.110  0.00  0.00    +0.000 A 
ATOM     24  C   UNL     1       6.282   5.588  16.852  0.00  0.00    +0.000 A 
ATOM     25  C   UNL     1       5.239   6.443  16.501  0.00  0.00    +0.000 A 
ATOM     26  C   UNL     1       4.184   6.673  17.397  0.00  0.00    +0.000 A 
BRANCH  24  27
ATOM     27  O   UNL     1       7.371   5.299  16.078  0.00  0.00    +0.000 OA
BRANCH  27  28
ATOM     28  C   UNL     1       7.136   4.433  14.981  0.00  0.00    +0.000 C 
ATOM     29  F   UNL     1       6.083   3.628  15.267  0.00  0.00    +0.000 F 
ATOM     30  F   UNL     1       6.761   5.203  13.928  0.00  0.00    +0.000 F 
ENDBRANCH  27  28
ENDBRANCH  24  27
ENDBRANCH  20  21
ENDBRANCH   1  20
TORSDOF 7
ENDMDL
MODEL 6
REMARK VINA RESULT:      -7.2      4.595      9.022
REMARK  Name = 
REMARK  9 active torsions:
REMARK  status: ('A' for Active; 'I' for Inactive)
REMARK    1  A    between atoms: C_1  and  C_2
REMARK    2  A    between atoms: C_2  and  N_3
REMARK    3  A    between atoms: C_2  and  C_19
REMARK    4  A    between atoms: C_8  and  N_9
REMARK    5  A    between atoms: C_14  and  C_15
REMARK    6  A    between atoms: C_15  and  C_16
REMARK    7  A    between atoms: C_15  and  O_17
REMARK    8  A    between atoms: C_22  and  O_23
REMARK    9  A    between atoms: O_23  and  C_24
REMARK                            x       y       z     vdW  Elec       q    Type
REMARK                         _______ _______ _______ _____ _____    ______ ____
ROOT
ATOM      1  N   UNL     1       1.389   9.470  19.242  0.00  0.00    +0.000 N 
ATOM      2  C   UNL     1       1.699   8.180  19.647  0.00  0.00    +0.000 A 
ATOM      3  N   UNL     1       1.480   7.802  20.908  0.00  0.00    +0.000 NA
ATOM      4  C   UNL     1       1.744   6.524  21.226  0.00  0.00    +0.000 A 
ATOM      5  C   UNL     1       2.162   5.594  20.309  0.00  0.00    +0.000 A 
ATOM      6  C   UNL     1       2.400   6.079  19.044  0.00  0.00    +0.000 A 
ATOM      7  N   UNL     1       2.232   7.375  18.711  0.00  0.00    +0.000 NA
ATOM      8  H   UNL     1       1.292   9.461  18.234  0.00  0.00    +0.000 HD
ENDROOT
BRANCH   6   9
ATOM      9  N   UNL     1       2.938   5.196  18.097  0.00  0.00    +0.000 N 
ATOM     10  C   UNL     1       2.237   4.125  17.590  0.00  0.00    +0.000 C 
ATOM     11  O   UNL     1       1.156   3.697  17.959  0.00  0.00    +0.000 OA
ATOM     12  O   UNL     1       2.928   3.596  16.535  0.00  0.00    +0.000 OA
ATOM     13  C   UNL     1       4.226   4.196  16.502  0.00  0.00    +0.000 C 
ATOM     14  C   UNL     1       4.110   5.479  17.315  0.00  0.00    +0.000 C 
BRANCH  14  15
ATOM     15  C   UNL     1       5.367   5.723  18.189  0.00  0.00    +0.000 C 
ATOM     16  C   UNL     1       5.748   4.534  19.064  0.00  0.00    +0.000 C 
BRANCH  15  17
ATOM     17  O   UNL     1       6.529   6.019  17.411  0.00  0.00    +0.000 OA
ATOM     18  H   UNL     1       6.260   6.340  16.527  0.00  0.00    +0.000 HD
ENDBRANCH  15  17
ENDBRANCH  14  15
ENDBRANCH   6   9
BRANCH   1  20
ATOM     19  C   UNL     1       0.926  11.423  20.605  0.00  0.00    +0.000 C 
ATOM     20  C   UNL     1       0.321  10.169  19.954  0.00  0.00    +0.000 C 
BRANCH  20  21
ATOM     21  C   UNL     1      -0.822  10.495  18.998  0.00  0.00    +0.000 A 
ATOM     22  C   UNL     1      -1.768  11.465  19.363  0.00  0.00    +0.000 A 
ATOM     23  C   UNL     1      -2.847  11.767  18.526  0.00  0.00    +0.000 A 
ATOM     24  C   UNL     1      -3.001  11.116  17.302  0.00  0.00    +0.000 A 
ATOM     25  C   UNL     1      -2.080  10.137  16.932  0.00  0.00    +0.000 A 
ATOM     26  C   UNL     1      -1.000   9.831  17.773  0.00  0.00    +0.000 A 
BRANCH  24  27
ATOM     27  O   UNL     1      -4.100  11.490  16.581  0.00  0.00    +0.000 OA
BRANCH  27  28
ATOM     28  C   UNL     1      -5.202  11.962  17.337  0.00  0.00    +0.000 C 
ATOM     29  F   UNL     1      -5.921  12.830  16.583  0.00  0.00    +0.000 F 
ATOM     30  F   UNL     1      -6.011  10.900  17.583  0.00  0.00    +0.000 F 
ENDBRANCH  27  28
ENDBRANCH  24  27
ENDBRANCH  20  21
ENDBRANCH   1  20
TORSDOF 7
ENDMDL
MODEL 7
REMARK VINA RESULT:      -7.1      3.363      4.776
REMARK  Name = 
REMARK  9 active torsions:
REMARK  status: ('A' for Active; 'I' for Inactive)
REMARK    1  A    between atoms: C_1  and  C_2
REMARK    2  A    between atoms: C_2  and  N_3
REMARK    3  A    between atoms: C_2  and  C_19
REMARK    4  A    between atoms: C_8  and  N_9
REMARK    5  A    between atoms: C_14  and  C_15
REMARK    6  A    between atoms: C_15  and  C_16
REMARK    7  A    between atoms: C_15  and  O_17
REMARK    8  A    between atoms: C_22  and  O_23
REMARK    9  A    between atoms: O_23  and  C_24
REMARK                            x       y       z     vdW  Elec       q    Type
REMARK                         _______ _______ _______ _____ _____    ______ ____
ROOT
ATOM      1  N   UNL     1       2.666   8.853  18.364  0.00  0.00    +0.000 N 
ATOM      2  C   UNL     1       1.422   9.459  18.460  0.00  0.00    +0.000 A 
ATOM      3  N   UNL     1       0.506   9.263  17.511  0.00  0.00    +0.000 NA
ATOM      4  C   UNL     1      -0.701   9.827  17.689  0.00  0.00    +0.000 A 
ATOM      5  C   UNL     1      -1.041  10.530  18.815  0.00  0.00    +0.000 A 
ATOM      6  C   UNL     1      -0.024  10.717  19.723  0.00  0.00    +0.000 A 
ATOM      7  N   UNL     1       1.224  10.242  19.536  0.00  0.00    +0.000 NA
ATOM      8  H   UNL     1       3.069   8.828  19.293  0.00  0.00    +0.000 HD
ENDROOT
BRANCH   6   9
ATOM      9  N   UNL     1      -0.286  11.525  20.839  0.00  0.00    +0.000 N 
ATOM     10  C   UNL     1      -0.211  12.899  20.802  0.00  0.00    +0.000 C 
ATOM     11  O   UNL     1       0.212  13.600  19.898  0.00  0.00    +0.000 OA
ATOM     12  O   UNL     1      -0.737  13.408  21.957  0.00  0.00    +0.000 OA
ATOM     13  C   UNL     1      -0.947  12.326  22.869  0.00  0.00    +0.000 C 
ATOM     14  C   UNL     1      -0.967  11.064  22.017  0.00  0.00    +0.000 C 
BRANCH  14  15
ATOM     15  C   UNL     1      -0.232   9.888  22.711  0.00  0.00    +0.000 C 
ATOM     16  C   UNL     1      -0.555   8.523  22.114  0.00  0.00    +0.000 C 
BRANCH  15  17
ATOM     17  O   UNL     1       1.191  10.013  22.646  0.00  0.00    +0.000 OA
ATOM     18  H   UNL     1       1.490   9.877  21.725  0.00  0.00    +0.000 HD
ENDBRANCH  15  17
ENDBRANCH  14  15
ENDBRANCH   6   9
BRANCH   1  20
ATOM     19  C   UNL     1       4.203   7.440  17.129  0.00  0.00    +0.000 C 
ATOM     20  C   UNL     1       2.757   7.597  17.623  0.00  0.00    +0.000 C 
BRANCH  20  21
ATOM     21  C   UNL     1       2.303   6.435  18.500  0.00  0.00    +0.000 A 
ATOM     22  C   UNL     1       1.990   5.204  17.903  0.00  0.00    +0.000 A 
ATOM     23  C   UNL     1       1.541   4.126  18.672  0.00  0.00    +0.000 A 
ATOM     24  C   UNL     1       1.405   4.248  20.055  0.00  0.00    +0.000 A 
ATOM     25  C   UNL     1       1.695   5.469  20.662  0.00  0.00    +0.000 A 
ATOM     26  C   UNL     1       2.141   6.551  19.890  0.00  0.00    +0.000 A 
BRANCH  24  27
ATOM     27  O   UNL     1       0.946   3.129  20.693  0.00  0.00    +0.000 OA
BRANCH  27  28
ATOM     28  C   UNL     1       1.904   2.421  21.462  0.00  0.00    +0.000 C 
ATOM     29  F   UNL     1       3.084   2.397  20.793  0.00  0.00    +0.000 F 
ATOM     30  F   UNL     1       2.117   3.132  22.599  0.00  0.00    +0.000 F 
ENDBRANCH  27  28
ENDBRANCH  24  27
ENDBRANCH  20  21
ENDBRANCH   1  20
TORSDOF 7
ENDMDL
MODEL 8
REMARK VINA RESULT:      -7.1      3.353      4.684
REMARK  Name = 
REMARK  9 active torsions:
REMARK  status: ('A' for Active; 'I' for Inactive)
REMARK    1  A    between atoms: C_1  and  C_2
REMARK    2  A    between atoms: C_2  and  N_3
REMARK    3  A    between atoms: C_2  and  C_19
REMARK    4  A    between atoms: C_8  and  N_9
REMARK    5  A    between atoms: C_14  and  C_15
REMARK    6  A    between atoms: C_15  and  C_16
REMARK    7  A    between atoms: C_15  and  O_17
REMARK    8  A    between atoms: C_22  and  O_23
REMARK    9  A    between atoms: O_23  and  C_24
REMARK                            x       y       z     vdW  Elec       q    Type
REMARK                         _______ _______ _______ _____ _____    ______ ____
ROOT
ATOM      1  N   UNL     1      -0.128   9.237  20.774  0.00  0.00    +0.000 N 
ATOM      2  C   UNL     1      -0.587  10.461  20.311  0.00  0.00    +0.000 A 
ATOM      3  N   UNL     1       0.117  11.571  20.537  0.00  0.00    +0.000 NA
ATOM      4  C   UNL     1      -0.348  12.717  20.013  0.00  0.00    +0.000 A 
ATOM      5  C   UNL     1      -1.463  12.781  19.218  0.00  0.00    +0.000 A 
ATOM      6  C   UNL     1      -2.149  11.597  19.071  0.00  0.00    +0.000 A 
ATOM      7  N   UNL     1      -1.762  10.446  19.655  0.00  0.00    +0.000 NA
ATOM      8  H   UNL     1      -0.581   8.513  20.230  0.00  0.00    +0.000 HD
ENDROOT
BRANCH   6   9
ATOM      9  N   UNL     1      -3.359  11.629  18.361  0.00  0.00    +0.000 N 
ATOM     10  C   UNL     1      -4.536  12.089  18.908  0.00  0.00    +0.000 C 
ATOM     11  O   UNL     1      -4.752  12.389  20.071  0.00  0.00    +0.000 OA
ATOM     12  O   UNL     1      -5.472  12.211  17.919  0.00  0.00    +0.000 OA
ATOM     13  C   UNL     1      -4.958  11.592  16.736  0.00  0.00    +0.000 C 
ATOM     14  C   UNL     1      -3.450  11.512  16.932  0.00  0.00    +0.000 C 
BRANCH  14  15
ATOM     15  C   UNL     1      -2.871  10.174  16.403  0.00  0.00    +0.000 C 
ATOM     16  C   UNL     1      -3.005  10.000  14.894  0.00  0.00    +0.000 C 
BRANCH  15  17
ATOM     17  O   UNL     1      -1.478  10.026  16.688  0.00  0.00    +0.000 OA
ATOM     18  H   UNL     1      -1.364   9.666  17.590  0.00  0.00    +0.000 HD
ENDBRANCH  15  17
ENDBRANCH  14  15
ENDBRANCH   6   9
BRANCH   1  20
ATOM     19  C   UNL     1       1.623   9.058  22.443  0.00  0.00    +0.000 C 
ATOM     20  C   UNL     1       1.314   9.069  20.938  0.00  0.00    +0.000 C 
BRANCH  20  21
ATOM     21  C   UNL     1       1.779   7.799  20.231  0.00  0.00    +0.000 A 
ATOM     22  C   UNL     1       2.302   7.888  18.932  0.00  0.00    +0.000 A 
ATOM     23  C   UNL     1       2.710   6.743  18.241  0.00  0.00    +0.000 A 
ATOM     24  C   UNL     1       2.614   5.483  18.835  0.00  0.00    +0.000 A 
ATOM     25  C   UNL     1       2.080   5.375  20.118  0.00  0.00    +0.000 A 
ATOM     26  C   UNL     1       1.668   6.524  20.809  0.00  0.00    +0.000 A 
BRANCH  24  27
ATOM     27  O   UNL     1       3.032   4.442  18.055  0.00  0.00    +0.000 OA
BRANCH  27  28
ATOM     28  C   UNL     1       2.006   3.670  17.454  0.00  0.00    +0.000 C 
ATOM     29  F   UNL     1       1.599   2.714  18.325  0.00  0.00    +0.000 F 
ATOM     30  F   UNL     1       0.944   4.492  17.256  0.00  0.00    +0.000 F 
ENDBRANCH  27  28
ENDBRANCH  24  27
ENDBRANCH  20  21
ENDBRANCH   1  20
TORSDOF 7
ENDMDL
MODEL 9
REMARK VINA RESULT:      -7.1      3.315      4.829
REMARK  Name = 
REMARK  9 active torsions:
REMARK  status: ('A' for Active; 'I' for Inactive)
REMARK    1  A    between atoms: C_1  and  C_2
REMARK    2  A    between atoms: C_2  and  N_3
REMARK    3  A    between atoms: C_2  and  C_19
REMARK    4  A    between atoms: C_8  and  N_9
REMARK    5  A    between atoms: C_14  and  C_15
REMARK    6  A    between atoms: C_15  and  C_16
REMARK    7  A    between atoms: C_15  and  O_17
REMARK    8  A    between atoms: C_22  and  O_23
REMARK    9  A    between atoms: O_23  and  C_24
REMARK                            x       y       z     vdW  Elec       q    Type
REMARK                         _______ _______ _______ _____ _____    ______ ____
ROOT
ATOM      1  N   UNL     1      -0.182   9.623  20.846  0.00  0.00    +0.000 N 
ATOM      2  C   UNL     1      -0.537  10.708  20.059  0.00  0.00    +0.000 A 
ATOM      3  N   UNL     1       0.281  11.755  19.950  0.00  0.00    +0.000 NA
ATOM      4  C   UNL     1      -0.090  12.749  19.125  0.00  0.00    +0.000 A 
ATOM      5  C   UNL     1      -1.226  12.703  18.359  0.00  0.00    +0.000 A 
ATOM      6  C   UNL     1      -2.031  11.606  18.564  0.00  0.00    +0.000 A 
ATOM      7  N   UNL     1      -1.734  10.632  19.448  0.00  0.00    +0.000 NA
ATOM      8  H   UNL     1      -0.725   8.827  20.537  0.00  0.00    +0.000 HD
ENDROOT
BRANCH   6   9
ATOM      9  N   UNL     1      -3.260  11.563  17.890  0.00  0.00    +0.000 N 
ATOM     10  C   UNL     1      -3.372  11.235  16.558  0.00  0.00    +0.000 C 
ATOM     11  O   UNL     1      -2.473  11.080  15.748  0.00  0.00    +0.000 OA
ATOM     12  O   UNL     1      -4.692  11.055  16.250  0.00  0.00    +0.000 OA
ATOM     13  C   UNL     1      -5.477  11.507  17.358  0.00  0.00    +0.000 C 
ATOM     14  C   UNL     1      -4.534  11.524  18.554  0.00  0.00    +0.000 C 
BRANCH  14  15
ATOM     15  C   UNL     1      -4.775  12.759  19.460  0.00  0.00    +0.000 C 
ATOM     16  C   UNL     1      -6.052  13.524  19.129  0.00  0.00    +0.000 C 
BRANCH  15  17
ATOM     17  O   UNL     1      -4.876  12.415  20.844  0.00  0.00    +0.000 OA
ATOM     18  H   UNL     1      -5.156  11.482  20.931  0.00  0.00    +0.000 HD
ENDBRANCH  15  17
ENDBRANCH  14  15
ENDBRANCH   6   9
BRANCH   1  20
ATOM     19  C   UNL     1       1.487   9.111  22.531  0.00  0.00    +0.000 C 
ATOM     20  C   UNL     1       1.243   9.356  21.033  0.00  0.00    +0.000 C 
BRANCH  20  21
ATOM     21  C   UNL     1       1.677   8.180  20.164  0.00  0.00    +0.000 A 
ATOM     22  C   UNL     1       1.720   6.893  20.721  0.00  0.00    +0.000 A 
ATOM     23  C   UNL     1       2.142   5.796  19.963  0.00  0.00    +0.000 A 
ATOM     24  C   UNL     1       2.521   5.957  18.630  0.00  0.00    +0.000 A 
ATOM     25  C   UNL     1       2.500   7.231  18.066  0.00  0.00    +0.000 A 
ATOM     26  C   UNL     1       2.080   8.332  18.828  0.00  0.00    +0.000 A 
BRANCH  24  27
ATOM     27  O   UNL     1       2.925   4.813  18.000  0.00  0.00    +0.000 OA
BRANCH  27  28
ATOM     28  C   UNL     1       1.915   3.846  17.769  0.00  0.00    +0.000 C 
ATOM     29  F   UNL     1       0.877   4.431  17.121  0.00  0.00    +0.000 F 
ATOM     30  F   UNL     1       2.428   2.918  16.922  0.00  0.00    +0.000 F 
ENDBRANCH  27  28
ENDBRANCH  24  27
ENDBRANCH  20  21
ENDBRANCH   1  20
TORSDOF 7
ENDMDL
