MODEL 1
REMARK VINA RESULT:      -6.7      0.000      0.000
REMARK  Name = 
REMARK  3 active torsions:
REMARK  status: ('A' for Active; 'I' for Inactive)
REMARK    1  A    between atoms: N_3  and  C_4
REMARK    2  A    between atoms: C_4  and  C_5
REMARK    3  A    between atoms: C_8  and  C_9
REMARK                            x       y       z     vdW  Elec       q    Type
REMARK                         _______ _______ _______ _____ _____    ______ ____
ROOT
ATOM      1  C   UNL     1       5.273   5.090  17.315  0.00  0.00    +0.000 A 
ATOM      2  C   UNL     1       5.049   6.448  17.426  0.00  0.00    +0.000 A 
ATOM      3  S   UNL     1       3.446   6.744  17.952  0.00  0.00    +0.000 S 
ATOM      4  C   UNL     1       3.155   5.045  18.007  0.00  0.00    +0.000 A 
ATOM      5  N   UNL     1       4.186   4.297  17.663  0.00  0.00    +0.000 NA
ENDROOT
BRANCH   4   6
ATOM      6  C   UNL     1       1.814   4.535  18.452  0.00  0.00    +0.000 C 
ATOM      7  C   UNL     1       1.743   4.208  19.937  0.00  0.00    +0.000 C 
ATOM      8  C   UNL     1       0.731   3.090  19.964  0.00  0.00    +0.000 C 
ATOM      9  C   UNL     1       1.068   2.336  18.697  0.00  0.00    +0.000 C 
ATOM     10  O   UNL     1       1.532   3.306  17.748  0.00  0.00    +0.000 OA
ENDBRANCH   4   6
BRANCH   1  11
ATOM     11  C   UNL     1       6.541   4.425  16.891  0.00  0.00    +0.000 C 
BRANCH  11  14
ATOM     12  C   UNL     1       6.833   4.403  13.324  0.00  0.00    +0.000 A 
ATOM     13  C   UNL     1       6.230   3.876  14.437  0.00  0.00    +0.000 A 
ATOM     14  N   UNL     1       6.762   4.593  15.469  0.00  0.00    +0.000 N 
ATOM     15  N   UNL     1       7.661   5.492  15.021  0.00  0.00    +0.000 NA
ATOM     16  N   UNL     1       7.705   5.387  13.700  0.00  0.00    +0.000 NA
ENDBRANCH  11  14
ENDBRANCH   1  11
TORSDOF 3
ENDMDL
MODEL 2
REMARK VINA RESULT:      -6.7      1.031      1.146
REMARK  Name = 
REMARK  3 active torsions:
REMARK  status: ('A' for Active; 'I' for Inactive)
REMARK    1  A    between atoms: N_3  and  C_4
REMARK    2  A    between atoms: C_4  and  C_5
REMARK    3  A    between atoms: C_8  and  C_9
REMARK                            x       y       z     vdW  Elec       q    Type
REMARK                         _______ _______ _______ _____ _____    ______ ____
ROOT
ATOM      1  C   UNL     1       5.017   5.639  18.089  0.00  0.00    +0.000 A 
ATOM      2  C   UNL     1       4.400   6.790  17.639  0.00  0.00    +0.000 A 
ATOM      3  S   UNL     1       2.798   6.878  18.240  0.00  0.00    +0.000 S 
ATOM      4  C   UNL     1       3.032   5.384  19.069  0.00  0.00    +0.000 A 
ATOM      5  N   UNL     1       4.229   4.849  18.918  0.00  0.00    +0.000 NA
ENDROOT
BRANCH   4   6
ATOM      6  C   UNL     1       1.919   4.815  19.904  0.00  0.00    +0.000 C 
ATOM      7  C   UNL     1       2.401   4.016  21.106  0.00  0.00    +0.000 C 
ATOM      8  C   UNL     1       1.298   3.000  21.269  0.00  0.00    +0.000 C 
ATOM      9  C   UNL     1       0.941   2.697  19.830  0.00  0.00    +0.000 C 
ATOM     10  O   UNL     1       1.150   3.905  19.088  0.00  0.00    +0.000 OA
ENDBRANCH   4   6
BRANCH   1  11
ATOM     11  C   UNL     1       6.412   5.199  17.793  0.00  0.00    +0.000 C 
BRANCH  11  14
ATOM     12  C   UNL     1       6.618   4.255  14.347  0.00  0.00    +0.000 A 
ATOM     13  C   UNL     1       6.046   4.033  15.573  0.00  0.00    +0.000 A 
ATOM     14  N   UNL     1       6.597   4.994  16.370  0.00  0.00    +0.000 N 
ATOM     15  N   UNL     1       7.478   5.746  15.682  0.00  0.00    +0.000 NA
ATOM     16  N   UNL     1       7.491   5.302  14.432  0.00  0.00    +0.000 NA
ENDBRANCH  11  14
ENDBRANCH   1  11
TORSDOF 3
ENDMDL
MODEL 3
REMARK VINA RESULT:      -6.6      1.375      1.503
REMARK  Name = 
REMARK  3 active torsions:
REMARK  status: ('A' for Active; 'I' for Inactive)
REMARK    1  A    between atoms: N_3  and  C_4
REMARK    2  A    between atoms: C_4  and  C_5
REMARK    3  A    between atoms: C_8  and  C_9
REMARK                            x       y       z     vdW  Elec       q    Type
REMARK                         _______ _______ _______ _____ _____    ______ ____
ROOT
ATOM      1  C   UNL     1       5.018   5.398  17.898  0.00  0.00    +0.000 A 
ATOM      2  C   UNL     1       4.079   6.395  17.720  0.00  0.00    +0.000 A 
ATOM      3  S   UNL     1       2.558   5.891  18.326  0.00  0.00    +0.000 S 
ATOM      4  C   UNL     1       3.249   4.383  18.794  0.00  0.00    +0.000 A 
ATOM      5  N   UNL     1       4.535   4.257  18.526  0.00  0.00    +0.000 NA
ENDROOT
BRANCH   4   6
ATOM      6  C   UNL     1       2.394   3.354  19.479  0.00  0.00    +0.000 C 
ATOM      7  C   UNL     1       1.317   3.948  20.375  0.00  0.00    +0.000 C 
ATOM      8  C   UNL     1       1.174   2.888  21.438  0.00  0.00    +0.000 C 
ATOM      9  C   UNL     1       2.605   2.429  21.612  0.00  0.00    +0.000 C 
ATOM     10  O   UNL     1       3.237   2.548  20.331  0.00  0.00    +0.000 OA
ENDBRANCH   4   6
BRANCH   1  11
ATOM     11  C   UNL     1       6.459   5.449  17.509  0.00  0.00    +0.000 C 
BRANCH  11  14
ATOM     12  C   UNL     1       6.558   4.340  14.107  0.00  0.00    +0.000 A 
ATOM     13  C   UNL     1       5.955   4.247  15.336  0.00  0.00    +0.000 A 
ATOM     14  N   UNL     1       6.623   5.161  16.098  0.00  0.00    +0.000 N 
ATOM     15  N   UNL     1       7.598   5.763  15.389  0.00  0.00    +0.000 NA
ATOM     16  N   UNL     1       7.560   5.268  14.159  0.00  0.00    +0.000 NA
ENDBRANCH  11  14
ENDBRANCH   1  11
TORSDOF 3
ENDMDL
MODEL 4
REMARK VINA RESULT:      -6.4      2.245      2.949
REMARK  Name = 
REMARK  3 active torsions:
REMARK  status: ('A' for Active; 'I' for Inactive)
REMARK    1  A    between atoms: N_3  and  C_4
REMARK    2  A    between atoms: C_4  and  C_5
REMARK    3  A    between atoms: C_8  and  C_9
REMARK                            x       y       z     vdW  Elec       q    Type
REMARK                         _______ _______ _______ _____ _____    ______ ____
ROOT
ATOM      1  C   UNL     1       5.771   4.270  17.590  0.00  0.00    +0.000 A 
ATOM      2  C   UNL     1       4.817   4.002  16.628  0.00  0.00    +0.000 A 
ATOM      3  S   UNL     1       3.276   3.828  17.355  0.00  0.00    +0.000 S 
ATOM      4  C   UNL     1       3.975   4.130  18.901  0.00  0.00    +0.000 A 
ATOM      5  N   UNL     1       5.275   4.355  18.885  0.00  0.00    +0.000 NA
ENDROOT
BRANCH   4   6
ATOM      6  C   UNL     1       3.099   4.151  20.122  0.00  0.00    +0.000 C 
ATOM      7  C   UNL     1       2.854   2.775  20.726  0.00  0.00    +0.000 C 
ATOM      8  C   UNL     1       1.480   2.937  21.327  0.00  0.00    +0.000 C 
ATOM      9  C   UNL     1       0.796   3.816  20.303  0.00  0.00    +0.000 C 
ATOM     10  O   UNL     1       1.804   4.672  19.752  0.00  0.00    +0.000 OA
ENDBRANCH   4   6
BRANCH   1  11
ATOM     11  C   UNL     1       7.230   4.492  17.363  0.00  0.00    +0.000 C 
BRANCH  11  14
ATOM     12  C   UNL     1       8.100   7.824  18.339  0.00  0.00    +0.000 A 
ATOM     13  C   UNL     1       7.988   6.506  18.701  0.00  0.00    +0.000 A 
ATOM     14  N   UNL     1       7.577   5.885  17.557  0.00  0.00    +0.000 N 
ATOM     15  N   UNL     1       7.418   6.773  16.556  0.00  0.00    +0.000 NA
ATOM     16  N   UNL     1       7.746   7.969  17.027  0.00  0.00    +0.000 NA
ENDBRANCH  11  14
ENDBRANCH   1  11
TORSDOF 3
ENDMDL
MODEL 5
REMARK VINA RESULT:      -6.3      2.352      3.070
REMARK  Name = 
REMARK  3 active torsions:
REMARK  status: ('A' for Active; 'I' for Inactive)
REMARK    1  A    between atoms: N_3  and  C_4
REMARK    2  A    between atoms: C_4  and  C_5
REMARK    3  A    between atoms: C_8  and  C_9
REMARK                            x       y       z     vdW  Elec       q    Type
REMARK                         _______ _______ _______ _____ _____    ______ ____
ROOT
ATOM      1  C   UNL     1       5.540   4.856  18.366  0.00  0.00    +0.000 A 
ATOM      2  C   UNL     1       4.974   3.937  19.227  0.00  0.00    +0.000 A 
ATOM      3  S   UNL     1       3.374   4.401  19.623  0.00  0.00    +0.000 S 
ATOM      4  C   UNL     1       3.532   5.790  18.615  0.00  0.00    +0.000 A 
ATOM      5  N   UNL     1       4.700   5.905  18.011  0.00  0.00    +0.000 NA
ENDROOT
BRANCH   4   6
ATOM      6  C   UNL     1       2.373   6.734  18.462  0.00  0.00    +0.000 C 
ATOM      7  C   UNL     1       2.726   8.032  17.750  0.00  0.00    +0.000 C 
ATOM      8  C   UNL     1       1.764   9.008  18.381  0.00  0.00    +0.000 C 
ATOM      9  C   UNL     1       1.728   8.525  19.814  0.00  0.00    +0.000 C 
ATOM     10  O   UNL     1       1.903   7.103  19.778  0.00  0.00    +0.000 OA
ENDBRANCH   4   6
BRANCH   1  11
ATOM     11  C   UNL     1       6.914   4.810  17.786  0.00  0.00    +0.000 C 
BRANCH  11  14
ATOM     12  C   UNL     1       6.581   4.304  14.258  0.00  0.00    +0.000 A 
ATOM     13  C   UNL     1       6.245   3.890  15.522  0.00  0.00    +0.000 A 
ATOM     14  N   UNL     1       6.864   4.792  16.337  0.00  0.00    +0.000 N 
ATOM     15  N   UNL     1       7.563   5.693  15.620  0.00  0.00    +0.000 NA
ATOM     16  N   UNL     1       7.387   5.404  14.337  0.00  0.00    +0.000 NA
ENDBRANCH  11  14
ENDBRANCH   1  11
TORSDOF 3
ENDMDL
MODEL 6
REMARK VINA RESULT:      -6.2      2.832      6.336
REMARK  Name = 
REMARK  3 active torsions:
REMARK  status: ('A' for Active; 'I' for Inactive)
REMARK    1  A    between atoms: N_3  and  C_4
REMARK    2  A    between atoms: C_4  and  C_5
REMARK    3  A    between atoms: C_8  and  C_9
REMARK                            x       y       z     vdW  Elec       q    Type
REMARK                         _______ _______ _______ _____ _____    ______ ____
ROOT
ATOM      1  C   UNL     1       4.746   3.792  18.964  0.00  0.00    +0.000 A 
ATOM      2  C   UNL     1       4.873   5.108  19.362  0.00  0.00    +0.000 A 
ATOM      3  S   UNL     1       5.178   6.111  18.008  0.00  0.00    +0.000 S 
ATOM      4  C   UNL     1       5.111   4.731  16.976  0.00  0.00    +0.000 A 
ATOM      5  N   UNL     1       4.870   3.590  17.594  0.00  0.00    +0.000 NA
ENDROOT
BRANCH   4   6
ATOM      6  C   UNL     1       5.292   4.901  15.494  0.00  0.00    +0.000 C 
ATOM      7  C   UNL     1       5.469   3.589  14.743  0.00  0.00    +0.000 C 
ATOM      8  C   UNL     1       6.347   4.006  13.588  0.00  0.00    +0.000 C 
ATOM      9  C   UNL     1       7.260   5.019  14.243  0.00  0.00    +0.000 C 
ATOM     10  O   UNL     1       6.492   5.671  15.262  0.00  0.00    +0.000 OA
ENDBRANCH   4   6
BRANCH   1  11
ATOM     11  C   UNL     1       4.473   2.615  19.841  0.00  0.00    +0.000 C 
BRANCH  11  14
ATOM     12  C   UNL     1       1.067   3.060  20.847  0.00  0.00    +0.000 A 
ATOM     13  C   UNL     1       1.985   3.093  19.828  0.00  0.00    +0.000 A 
ATOM     14  N   UNL     1       3.149   2.701  20.423  0.00  0.00    +0.000 N 
ATOM     15  N   UNL     1       2.965   2.466  21.737  0.00  0.00    +0.000 NA
ATOM     16  N   UNL     1       1.684   2.677  22.005  0.00  0.00    +0.000 NA
ENDBRANCH  11  14
ENDBRANCH   1  11
TORSDOF 3
ENDMDL
MODEL 7
REMARK VINA RESULT:      -6.2      3.237      6.380
REMARK  Name = 
REMARK  3 active torsions:
REMARK  status: ('A' for Active; 'I' for Inactive)
REMARK    1  A    between atoms: N_3  and  C_4
REMARK    2  A    between atoms: C_4  and  C_5
REMARK    3  A    between atoms: C_8  and  C_9
REMARK                            x       y       z     vdW  Elec       q    Type
REMARK                         _______ _______ _______ _____ _____    ______ ____
ROOT
ATOM      1  C   UNL     1       4.648   3.379  18.431  0.00  0.00    +0.000 A 
ATOM      2  C   UNL     1       4.181   3.478  17.136  0.00  0.00    +0.000 A 
ATOM      3  S   UNL     1       5.155   4.560  16.235  0.00  0.00    +0.000 S 
ATOM      4  C   UNL     1       6.142   4.821  17.624  0.00  0.00    +0.000 A 
ATOM      5  N   UNL     1       5.779   4.142  18.695  0.00  0.00    +0.000 NA
ENDROOT
BRANCH   4   6
ATOM      6  C   UNL     1       7.326   5.743  17.532  0.00  0.00    +0.000 C 
ATOM      7  C   UNL     1       7.799   6.270  18.879  0.00  0.00    +0.000 C 
ATOM      8  C   UNL     1       8.358   7.621  18.508  0.00  0.00    +0.000 C 
ATOM      9  C   UNL     1       7.388   8.075  17.439  0.00  0.00    +0.000 C 
ATOM     10  O   UNL     1       6.951   6.897  16.749  0.00  0.00    +0.000 OA
ENDBRANCH   4   6
BRANCH   1  11
ATOM     11  C   UNL     1       4.078   2.537  19.525  0.00  0.00    +0.000 C 
BRANCH  11  14
ATOM     12  C   UNL     1       0.676   3.378  20.251  0.00  0.00    +0.000 A 
ATOM     13  C   UNL     1       1.555   2.457  19.742  0.00  0.00    +0.000 A 
ATOM     14  N   UNL     1       2.778   3.031  19.933  0.00  0.00    +0.000 N 
ATOM     15  N   UNL     1       2.659   4.247  20.501  0.00  0.00    +0.000 NA
ATOM     16  N   UNL     1       1.367   4.465  20.708  0.00  0.00    +0.000 NA
ENDBRANCH  11  14
ENDBRANCH   1  11
TORSDOF 3
ENDMDL
MODEL 8
REMARK VINA RESULT:      -6.2      2.090      2.822
REMARK  Name = 
REMARK  3 active torsions:
REMARK  status: ('A' for Active; 'I' for Inactive)
REMARK    1  A    between atoms: N_3  and  C_4
REMARK    2  A    between atoms: C_4  and  C_5
REMARK    3  A    between atoms: C_8  and  C_9
REMARK                            x       y       z     vdW  Elec       q    Type
REMARK                         _______ _______ _______ _____ _____    ______ ____
ROOT
ATOM      1  C   UNL     1       4.905   4.907  17.528  0.00  0.00    +0.000 A 
ATOM      2  C   UNL     1       4.025   5.965  17.418  0.00  0.00    +0.000 A 
ATOM      3  S   UNL     1       2.545   5.589  18.192  0.00  0.00    +0.000 S 
ATOM      4  C   UNL     1       3.173   4.045  18.633  0.00  0.00    +0.000 A 
ATOM      5  N   UNL     1       4.412   3.818  18.237  0.00  0.00    +0.000 NA
ENDROOT
BRANCH   4   6
ATOM      6  C   UNL     1       2.324   3.098  19.433  0.00  0.00    +0.000 C 
ATOM      7  C   UNL     1       1.259   3.787  20.274  0.00  0.00    +0.000 C 
ATOM      8  C   UNL     1       1.127   2.847  21.446  0.00  0.00    +0.000 C 
ATOM      9  C   UNL     1       2.559   2.404  21.650  0.00  0.00    +0.000 C 
ATOM     10  O   UNL     1       3.176   2.383  20.356  0.00  0.00    +0.000 OA
ENDBRANCH   4   6
BRANCH   1  11
ATOM     11  C   UNL     1       6.297   4.842  16.990  0.00  0.00    +0.000 C 
BRANCH  11  14
ATOM     12  C   UNL     1       8.199   7.469  18.504  0.00  0.00    +0.000 A 
ATOM     13  C   UNL     1       7.694   6.199  18.611  0.00  0.00    +0.000 A 
ATOM     14  N   UNL     1       7.069   5.992  17.416  0.00  0.00    +0.000 N 
ATOM     15  N   UNL     1       7.159   7.082  16.629  0.00  0.00    +0.000 NA
ATOM     16  N   UNL     1       7.861   7.994  17.288  0.00  0.00    +0.000 NA
ENDBRANCH  11  14
ENDBRANCH   1  11
TORSDOF 3
ENDMDL
MODEL 9
REMARK VINA RESULT:      -6.1      3.191      6.529
REMARK  Name = 
REMARK  3 active torsions:
REMARK  status: ('A' for Active; 'I' for Inactive)
REMARK    1  A    between atoms: N_3  and  C_4
REMARK    2  A    between atoms: C_4  and  C_5
REMARK    3  A    between atoms: C_8  and  C_9
REMARK                            x       y       z     vdW  Elec       q    Type
REMARK                         _______ _______ _______ _____ _____    ______ ____
ROOT
ATOM      1  C   UNL     1       3.302   4.845  18.067  0.00  0.00    +0.000 A 
ATOM      2  C   UNL     1       3.450   3.841  17.130  0.00  0.00    +0.000 A 
ATOM      3  S   UNL     1       5.022   3.889  16.453  0.00  0.00    +0.000 S 
ATOM      4  C   UNL     1       5.409   5.237  17.457  0.00  0.00    +0.000 A 
ATOM      5  N   UNL     1       4.434   5.628  18.256  0.00  0.00    +0.000 NA
ENDROOT
BRANCH   4   6
ATOM      6  C   UNL     1       6.782   5.843  17.391  0.00  0.00    +0.000 C 
ATOM      7  C   UNL     1       7.420   6.070  18.754  0.00  0.00    +0.000 C 
ATOM      8  C   UNL     1       8.288   7.276  18.497  0.00  0.00    +0.000 C 
ATOM      9  C   UNL     1       7.426   8.081  17.549  0.00  0.00    +0.000 C 
ATOM     10  O   UNL     1       6.683   7.140  16.764  0.00  0.00    +0.000 OA
ENDBRANCH   4   6
BRANCH   1  11
ATOM     11  C   UNL     1       2.085   5.135  18.881  0.00  0.00    +0.000 C 
BRANCH  11  14
ATOM     12  C   UNL     1       1.401   2.572  21.285  0.00  0.00    +0.000 A 
ATOM     13  C   UNL     1       1.239   3.025  20.001  0.00  0.00    +0.000 A 
ATOM     14  N   UNL     1       1.953   4.187  19.970  0.00  0.00    +0.000 N 
ATOM     15  N   UNL     1       2.502   4.450  21.172  0.00  0.00    +0.000 NA
ATOM     16  N   UNL     1       2.173   3.456  21.987  0.00  0.00    +0.000 NA
ENDBRANCH  11  14
ENDBRANCH   1  11
TORSDOF 3
ENDMDL
