MODEL 1
REMARK VINA RESULT:      -8.4      0.000      0.000
REMARK  Name = 
REMARK  3 active torsions:
REMARK  status: ('A' for Active; 'I' for Inactive)
REMARK    1  A    between atoms: C_1  and  C_2
REMARK    2  A    between atoms: C_21  and  C_22
REMARK    3  A    between atoms: C_22  and  C_23
REMARK                            x       y       z     vdW  Elec       q    Type
REMARK                         _______ _______ _______ _____ _____    ______ ____
ROOT
ATOM      1  C   UNL     1       2.107  13.311  20.338  0.00  0.00    +0.000 C 
ATOM      2  C   UNL     1       0.922  14.252  20.519  0.00  0.00    +0.000 C 
ATOM      3  N   UNL     1       0.904  15.624  19.972  0.00  0.00    +0.000 N 
ATOM      4  C   UNL     1       1.350  16.028  18.746  0.00  0.00    +0.000 C 
ATOM      5  O   UNL     1       2.214  15.397  18.138  0.00  0.00    +0.000 OA
ATOM      6  C   UNL     1       0.824  17.374  18.193  0.00  0.00    +0.000 C 
ATOM      7  C   UNL     1      -0.659  17.847  18.227  0.00  0.00    +0.000 C 
ATOM      8  C   UNL     1      -1.651  17.100  19.059  0.00  0.00    +0.000 C 
ATOM      9  C   UNL     1      -2.667  17.582  19.810  0.00  0.00    +0.000 C 
ATOM     10  C   UNL     1      -3.352  16.622  20.739  0.00  0.00    +0.000 C 
ATOM     11  C   UNL     1      -4.819  16.676  21.210  0.00  0.00    +0.000 C 
ATOM     12  C   UNL     1      -4.988  15.411  22.081  0.00  0.00    +0.000 C 
ATOM     13  O   UNL     1      -6.166  15.243  22.864  0.00  0.00    +0.000 OA
ATOM     14  C   UNL     1      -6.423  14.130  23.612  0.00  0.00    +0.000 C 
ATOM     15  O   UNL     1      -7.552  14.038  24.115  0.00  0.00    +0.000 OA
ATOM     16  C   UNL     1      -5.445  12.960  23.846  0.00  0.00    +0.000 C 
ATOM     17  C   UNL     1      -3.951  13.127  23.619  0.00  0.00    +0.000 C 
ATOM     18  N   UNL     1      -3.118  11.942  23.647  0.00  0.00    +0.000 N 
ATOM     19  C   UNL     1      -1.947  11.679  22.975  0.00  0.00    +0.000 C 
ATOM     20  O   UNL     1      -1.319  10.683  23.371  0.00  0.00    +0.000 OA
ATOM     21  C   UNL     1      -1.292  12.603  21.891  0.00  0.00    +0.000 C 
ATOM     22  N   UNL     1      -0.395  13.560  22.572  0.00  0.00    +0.000 N 
ATOM     23  C   UNL     1       0.553  14.378  22.021  0.00  0.00    +0.000 C 
ATOM     24  O   UNL     1       1.039  15.250  22.728  0.00  0.00    +0.000 OA
ATOM     25  H   UNL     1       0.304  16.273  20.468  0.00  0.00    +0.000 HD
ATOM     26  H   UNL     1      -3.270  11.271  24.396  0.00  0.00    +0.000 HD
ATOM     27  H   UNL     1      -0.548  13.747  23.559  0.00  0.00    +0.000 HD
ENDROOT
BRANCH  21  28
ATOM     28  C   UNL     1      -2.193  13.359  20.926  0.00  0.00    +0.000 C 
BRANCH  28  29
ATOM     29  C   UNL     1      -3.077  12.636  19.973  0.00  0.00    +0.000 A 
ATOM     30  C   UNL     1      -4.406  12.866  19.699  0.00  0.00    +0.000 A 
ATOM     31  N   UNL     1      -4.747  12.152  18.580  0.00  0.00    +0.000 N 
ATOM     32  C   UNL     1      -3.666  11.441  18.125  0.00  0.00    +0.000 A 
ATOM     33  C   UNL     1      -3.527  10.637  16.983  0.00  0.00    +0.000 A 
ATOM     34  C   UNL     1      -2.294  10.017  16.765  0.00  0.00    +0.000 A 
ATOM     35  C   UNL     1      -1.248  10.172  17.666  0.00  0.00    +0.000 A 
ATOM     36  C   UNL     1      -1.406  10.977  18.801  0.00  0.00    +0.000 A 
ATOM     37  C   UNL     1      -2.625  11.653  19.020  0.00  0.00    +0.000 A 
ATOM     38  H   UNL     1      -5.647  12.178  18.120  0.00  0.00    +0.000 HD
ENDBRANCH  28  29
ENDBRANCH  21  28
TORSDOF 2
ENDMDL
MODEL 2
REMARK VINA RESULT:      -8.0      1.064      1.601
REMARK  Name = 
REMARK  3 active torsions:
REMARK  status: ('A' for Active; 'I' for Inactive)
REMARK    1  A    between atoms: C_1  and  C_2
REMARK    2  A    between atoms: C_21  and  C_22
REMARK    3  A    between atoms: C_22  and  C_23
REMARK                            x       y       z     vdW  Elec       q    Type
REMARK                         _______ _______ _______ _____ _____    ______ ____
ROOT
ATOM      1  C   UNL     1       2.838  13.734  20.152  0.00  0.00    +0.000 C 
ATOM      2  C   UNL     1       1.582  14.586  20.288  0.00  0.00    +0.000 C 
ATOM      3  N   UNL     1       1.472  15.941  19.709  0.00  0.00    +0.000 N 
ATOM      4  C   UNL     1       1.911  16.350  18.482  0.00  0.00    +0.000 C 
ATOM      5  O   UNL     1       2.832  15.773  17.905  0.00  0.00    +0.000 OA
ATOM      6  C   UNL     1       1.296  17.640  17.888  0.00  0.00    +0.000 C 
ATOM      7  C   UNL     1      -0.219  18.000  17.883  0.00  0.00    +0.000 C 
ATOM      8  C   UNL     1      -1.168  17.199  18.714  0.00  0.00    +0.000 C 
ATOM      9  C   UNL     1      -2.232  17.618  19.434  0.00  0.00    +0.000 C 
ATOM     10  C   UNL     1      -2.863  16.630  20.373  0.00  0.00    +0.000 C 
ATOM     11  C   UNL     1      -4.338  16.583  20.815  0.00  0.00    +0.000 C 
ATOM     12  C   UNL     1      -4.429  15.328  21.712  0.00  0.00    +0.000 C 
ATOM     13  O   UNL     1      -5.606  15.088  22.478  0.00  0.00    +0.000 OA
ATOM     14  C   UNL     1      -5.794  13.976  23.247  0.00  0.00    +0.000 C 
ATOM     15  O   UNL     1      -6.923  13.810  23.730  0.00  0.00    +0.000 OA
ATOM     16  C   UNL     1      -4.735  12.889  23.526  0.00  0.00    +0.000 C 
ATOM     17  C   UNL     1      -3.254  13.164  23.323  0.00  0.00    +0.000 C 
ATOM     18  N   UNL     1      -2.335  12.047  23.395  0.00  0.00    +0.000 N 
ATOM     19  C   UNL     1      -1.134  11.858  22.750  0.00  0.00    +0.000 C 
ATOM     20  O   UNL     1      -0.441  10.922  23.182  0.00  0.00    +0.000 OA
ATOM     21  C   UNL     1      -0.529  12.806  21.658  0.00  0.00    +0.000 C 
ATOM     22  N   UNL     1       0.280  13.842  22.332  0.00  0.00    +0.000 N 
ATOM     23  C   UNL     1       1.175  14.718  21.780  0.00  0.00    +0.000 C 
ATOM     24  O   UNL     1       1.579  15.639  22.475  0.00  0.00    +0.000 OA
ATOM     25  H   UNL     1       0.815  16.553  20.178  0.00  0.00    +0.000 HD
ATOM     26  H   UNL     1      -2.451  11.383  24.156  0.00  0.00    +0.000 HD
ATOM     27  H   UNL     1       0.093  14.039  23.312  0.00  0.00    +0.000 HD
ENDROOT
BRANCH  21  28
ATOM     28  C   UNL     1      -1.464  13.470  20.658  0.00  0.00    +0.000 C 
BRANCH  28  29
ATOM     29  C   UNL     1      -1.816  12.804  19.375  0.00  0.00    +0.000 A 
ATOM     30  C   UNL     1      -0.975  12.394  18.366  0.00  0.00    +0.000 A 
ATOM     31  N   UNL     1      -1.687  11.601  17.505  0.00  0.00    +0.000 N 
ATOM     32  C   UNL     1      -2.989  11.498  17.922  0.00  0.00    +0.000 A 
ATOM     33  C   UNL     1      -4.050  10.741  17.400  0.00  0.00    +0.000 A 
ATOM     34  C   UNL     1      -5.292  10.833  18.033  0.00  0.00    +0.000 A 
ATOM     35  C   UNL     1      -5.475  11.668  19.129  0.00  0.00    +0.000 A 
ATOM     36  C   UNL     1      -4.406  12.416  19.634  0.00  0.00    +0.000 A 
ATOM     37  C   UNL     1      -3.129  12.306  19.044  0.00  0.00    +0.000 A 
ATOM     38  H   UNL     1      -1.305  11.117  16.703  0.00  0.00    +0.000 HD
ENDBRANCH  28  29
ENDBRANCH  21  28
TORSDOF 2
ENDMDL
MODEL 3
REMARK VINA RESULT:      -7.8      3.105      5.853
REMARK  Name = 
REMARK  3 active torsions:
REMARK  status: ('A' for Active; 'I' for Inactive)
REMARK    1  A    between atoms: C_1  and  C_2
REMARK    2  A    between atoms: C_21  and  C_22
REMARK    3  A    between atoms: C_22  and  C_23
REMARK                            x       y       z     vdW  Elec       q    Type
REMARK                         _______ _______ _______ _____ _____    ______ ____
ROOT
ATOM      1  C   UNL     1      -4.778  12.284  24.945  0.00  0.00    +0.000 C 
ATOM      2  C   UNL     1      -4.994  13.458  23.998  0.00  0.00    +0.000 C 
ATOM      3  N   UNL     1      -4.638  14.847  24.357  0.00  0.00    +0.000 N 
ATOM      4  C   UNL     1      -3.516  15.266  25.013  0.00  0.00    +0.000 C 
ATOM      5  O   UNL     1      -2.895  14.517  25.766  0.00  0.00    +0.000 OA
ATOM      6  C   UNL     1      -3.112  16.753  24.875  0.00  0.00    +0.000 C 
ATOM      7  C   UNL     1      -3.096  17.566  23.546  0.00  0.00    +0.000 C 
ATOM      8  C   UNL     1      -3.741  16.994  22.326  0.00  0.00    +0.000 C 
ATOM      9  C   UNL     1      -4.470  17.619  21.375  0.00  0.00    +0.000 C 
ATOM     10  C   UNL     1      -5.206  16.756  20.391  0.00  0.00    +0.000 C 
ATOM     11  C   UNL     1      -5.566  17.111  18.935  0.00  0.00    +0.000 C 
ATOM     12  C   UNL     1      -6.242  15.835  18.385  0.00  0.00    +0.000 C 
ATOM     13  O   UNL     1      -6.903  15.871  17.124  0.00  0.00    +0.000 OA
ATOM     14  C   UNL     1      -7.471  14.776  16.538  0.00  0.00    +0.000 C 
ATOM     15  O   UNL     1      -7.869  14.906  15.372  0.00  0.00    +0.000 OA
ATOM     16  C   UNL     1      -7.618  13.385  17.188  0.00  0.00    +0.000 C 
ATOM     17  C   UNL     1      -7.532  13.209  18.695  0.00  0.00    +0.000 C 
ATOM     18  N   UNL     1      -7.462  11.862  19.223  0.00  0.00    +0.000 N 
ATOM     19  C   UNL     1      -6.852  11.399  20.366  0.00  0.00    +0.000 C 
ATOM     20  O   UNL     1      -7.156  10.242  20.700  0.00  0.00    +0.000 OA
ATOM     21  C   UNL     1      -5.956  12.253  21.329  0.00  0.00    +0.000 C 
ATOM     22  N   UNL     1      -6.827  12.879  22.346  0.00  0.00    +0.000 N 
ATOM     23  C   UNL     1      -6.467  13.499  23.511  0.00  0.00    +0.000 C 
ATOM     24  O   UNL     1      -7.320  14.141  24.108  0.00  0.00    +0.000 OA
ATOM     25  H   UNL     1      -5.170  15.561  23.875  0.00  0.00    +0.000 HD
ATOM     26  H   UNL     1      -8.099  11.167  18.841  0.00  0.00    +0.000 HD
ATOM     27  H   UNL     1      -7.816  12.985  22.136  0.00  0.00    +0.000 HD
ENDROOT
BRANCH  21  28
ATOM     28  C   UNL     1      -5.037  13.310  20.737  0.00  0.00    +0.000 C 
BRANCH  28  29
ATOM     29  C   UNL     1      -3.718  12.942  20.153  0.00  0.00    +0.000 A 
ATOM     30  C   UNL     1      -3.460  12.281  18.975  0.00  0.00    +0.000 A 
ATOM     31  N   UNL     1      -2.121  12.391  18.702  0.00  0.00    +0.000 N 
ATOM     32  C   UNL     1      -1.492  13.098  19.694  0.00  0.00    +0.000 A 
ATOM     33  C   UNL     1      -0.156  13.513  19.801  0.00  0.00    +0.000 A 
ATOM     34  C   UNL     1       0.218  14.228  20.943  0.00  0.00    +0.000 A 
ATOM     35  C   UNL     1      -0.700  14.494  21.950  0.00  0.00    +0.000 A 
ATOM     36  C   UNL     1      -2.029  14.070  21.827  0.00  0.00    +0.000 A 
ATOM     37  C   UNL     1      -2.444  13.389  20.663  0.00  0.00    +0.000 A 
ATOM     38  H   UNL     1      -1.663  12.046  17.868  0.00  0.00    +0.000 HD
ENDBRANCH  28  29
ENDBRANCH  21  28
TORSDOF 2
ENDMDL
MODEL 4
REMARK VINA RESULT:      -7.8      1.847      3.011
REMARK  Name = 
REMARK  3 active torsions:
REMARK  status: ('A' for Active; 'I' for Inactive)
REMARK    1  A    between atoms: C_1  and  C_2
REMARK    2  A    between atoms: C_21  and  C_22
REMARK    3  A    between atoms: C_22  and  C_23
REMARK                            x       y       z     vdW  Elec       q    Type
REMARK                         _______ _______ _______ _____ _____    ______ ____
ROOT
ATOM      1  C   UNL     1      -0.810  10.887  22.862  0.00  0.00    +0.000 C 
ATOM      2  C   UNL     1      -1.036  12.283  22.294  0.00  0.00    +0.000 C 
ATOM      3  N   UNL     1       0.014  13.028  21.568  0.00  0.00    +0.000 N 
ATOM      4  C   UNL     1       0.888  12.529  20.645  0.00  0.00    +0.000 C 
ATOM      5  O   UNL     1       1.203  11.339  20.637  0.00  0.00    +0.000 OA
ATOM      6  C   UNL     1       1.568  13.529  19.680  0.00  0.00    +0.000 C 
ATOM      7  C   UNL     1       0.852  14.690  18.929  0.00  0.00    +0.000 C 
ATOM      8  C   UNL     1      -0.541  15.068  19.317  0.00  0.00    +0.000 C 
ATOM      9  C   UNL     1      -1.097  16.297  19.403  0.00  0.00    +0.000 C 
ATOM     10  C   UNL     1      -2.445  16.400  20.057  0.00  0.00    +0.000 C 
ATOM     11  C   UNL     1      -3.538  17.446  19.766  0.00  0.00    +0.000 C 
ATOM     12  C   UNL     1      -4.722  17.024  20.665  0.00  0.00    +0.000 C 
ATOM     13  O   UNL     1      -5.839  17.894  20.821  0.00  0.00    +0.000 OA
ATOM     14  C   UNL     1      -6.951  17.573  21.545  0.00  0.00    +0.000 C 
ATOM     15  O   UNL     1      -7.916  18.346  21.466  0.00  0.00    +0.000 OA
ATOM     16  C   UNL     1      -7.122  16.310  22.415  0.00  0.00    +0.000 C 
ATOM     17  C   UNL     1      -5.917  15.515  22.890  0.00  0.00    +0.000 C 
ATOM     18  N   UNL     1      -6.151  14.229  23.516  0.00  0.00    +0.000 N 
ATOM     19  C   UNL     1      -5.358  13.105  23.531  0.00  0.00    +0.000 C 
ATOM     20  O   UNL     1      -5.692  12.229  24.346  0.00  0.00    +0.000 OA
ATOM     21  C   UNL     1      -4.018  12.926  22.736  0.00  0.00    +0.000 C 
ATOM     22  N   UNL     1      -2.906  13.417  23.575  0.00  0.00    +0.000 N 
ATOM     23  C   UNL     1      -1.561  13.239  23.398  0.00  0.00    +0.000 C 
ATOM     24  O   UNL     1      -0.799  13.907  24.082  0.00  0.00    +0.000 OA
ATOM     25  H   UNL     1      -0.079  14.035  21.600  0.00  0.00    +0.000 HD
ATOM     26  H   UNL     1      -6.890  14.165  24.212  0.00  0.00    +0.000 HD
ATOM     27  H   UNL     1      -3.119  14.072  24.324  0.00  0.00    +0.000 HD
ENDROOT
BRANCH  21  28
ATOM     28  C   UNL     1      -3.901  13.528  21.344  0.00  0.00    +0.000 C 
BRANCH  28  29
ATOM     29  C   UNL     1      -4.466  12.833  20.156  0.00  0.00    +0.000 A 
ATOM     30  C   UNL     1      -5.765  12.838  19.701  0.00  0.00    +0.000 A 
ATOM     31  N   UNL     1      -5.784  12.293  18.443  0.00  0.00    +0.000 N 
ATOM     32  C   UNL     1      -4.520  11.911  18.073  0.00  0.00    +0.000 A 
ATOM     33  C   UNL     1      -4.054  11.380  16.860  0.00  0.00    +0.000 A 
ATOM     34  C   UNL     1      -2.694  11.073  16.760  0.00  0.00    +0.000 A 
ATOM     35  C   UNL     1      -1.838  11.264  17.837  0.00  0.00    +0.000 A 
ATOM     36  C   UNL     1      -2.322  11.794  19.039  0.00  0.00    +0.000 A 
ATOM     37  C   UNL     1      -3.681  12.157  19.152  0.00  0.00    +0.000 A 
ATOM     38  H   UNL     1      -6.599  12.222  17.848  0.00  0.00    +0.000 HD
ENDBRANCH  28  29
ENDBRANCH  21  28
TORSDOF 2
ENDMDL
MODEL 5
REMARK VINA RESULT:      -7.4      2.530      6.222
REMARK  Name = 
REMARK  3 active torsions:
REMARK  status: ('A' for Active; 'I' for Inactive)
REMARK    1  A    between atoms: C_1  and  C_2
REMARK    2  A    between atoms: C_21  and  C_22
REMARK    3  A    between atoms: C_22  and  C_23
REMARK                            x       y       z     vdW  Elec       q    Type
REMARK                         _______ _______ _______ _____ _____    ______ ____
ROOT
ATOM      1  C   UNL     1      -2.559  14.639  24.978  0.00  0.00    +0.000 C 
ATOM      2  C   UNL     1      -3.434  14.173  23.820  0.00  0.00    +0.000 C 
ATOM      3  N   UNL     1      -4.874  14.492  23.731  0.00  0.00    +0.000 N 
ATOM      4  C   UNL     1      -5.473  15.683  24.025  0.00  0.00    +0.000 C 
ATOM      5  O   UNL     1      -4.964  16.481  24.812  0.00  0.00    +0.000 OA
ATOM      6  C   UNL     1      -6.877  15.951  23.431  0.00  0.00    +0.000 C 
ATOM      7  C   UNL     1      -7.305  15.669  21.961  0.00  0.00    +0.000 C 
ATOM      8  C   UNL     1      -6.416  14.853  21.079  0.00  0.00    +0.000 C 
ATOM      9  C   UNL     1      -6.751  13.921  20.159  0.00  0.00    +0.000 C 
ATOM     10  C   UNL     1      -5.643  13.080  19.594  0.00  0.00    +0.000 C 
ATOM     11  C   UNL     1      -5.589  12.437  18.195  0.00  0.00    +0.000 C 
ATOM     12  C   UNL     1      -4.200  11.762  18.136  0.00  0.00    +0.000 C 
ATOM     13  O   UNL     1      -3.886  10.881  17.062  0.00  0.00    +0.000 OA
ATOM     14  C   UNL     1      -2.664  10.293  16.901  0.00  0.00    +0.000 C 
ATOM     15  O   UNL     1      -2.470   9.681  15.841  0.00  0.00    +0.000 OA
ATOM     16  C   UNL     1      -1.495  10.363  17.905  0.00  0.00    +0.000 C 
ATOM     17  C   UNL     1      -1.730  10.735  19.359  0.00  0.00    +0.000 C 
ATOM     18  N   UNL     1      -0.574  10.992  20.194  0.00  0.00    +0.000 N 
ATOM     19  C   UNL     1      -0.445  11.832  21.277  0.00  0.00    +0.000 C 
ATOM     20  O   UNL     1       0.586  11.674  21.952  0.00  0.00    +0.000 OA
ATOM     21  C   UNL     1      -1.542  12.826  21.794  0.00  0.00    +0.000 C 
ATOM     22  N   UNL     1      -2.400  12.114  22.763  0.00  0.00    +0.000 N 
ATOM     23  C   UNL     1      -3.316  12.637  23.634  0.00  0.00    +0.000 C 
ATOM     24  O   UNL     1      -4.078  11.865  24.198  0.00  0.00    +0.000 OA
ATOM     25  H   UNL     1      -5.423  13.833  23.193  0.00  0.00    +0.000 HD
ATOM     26  H   UNL     1       0.209  10.346  20.137  0.00  0.00    +0.000 HD
ATOM     27  H   UNL     1      -2.428  11.098  22.728  0.00  0.00    +0.000 HD
ENDROOT
BRANCH  21  28
ATOM     28  C   UNL     1      -2.418  13.547  20.781  0.00  0.00    +0.000 C 
BRANCH  28  29
ATOM     29  C   UNL     1      -2.169  14.969  20.422  0.00  0.00    +0.000 A 
ATOM     30  C   UNL     1      -2.908  16.078  20.763  0.00  0.00    +0.000 A 
ATOM     31  N   UNL     1      -2.180  17.197  20.450  0.00  0.00    +0.000 N 
ATOM     32  C   UNL     1      -0.979  16.839  19.892  0.00  0.00    +0.000 A 
ATOM     33  C   UNL     1       0.104  17.635  19.488  0.00  0.00    +0.000 A 
ATOM     34  C   UNL     1       1.217  16.994  18.937  0.00  0.00    +0.000 A 
ATOM     35  C   UNL     1       1.236  15.616  18.769  0.00  0.00    +0.000 A 
ATOM     36  C   UNL     1       0.146  14.838  19.176  0.00  0.00    +0.000 A 
ATOM     37  C   UNL     1      -0.971  15.455  19.780  0.00  0.00    +0.000 A 
ATOM     38  H   UNL     1      -2.457  18.150  20.645  0.00  0.00    +0.000 HD
ENDBRANCH  28  29
ENDBRANCH  21  28
TORSDOF 2
ENDMDL
MODEL 6
REMARK VINA RESULT:      -7.4      2.645      6.581
REMARK  Name = 
REMARK  3 active torsions:
REMARK  status: ('A' for Active; 'I' for Inactive)
REMARK    1  A    between atoms: C_1  and  C_2
REMARK    2  A    between atoms: C_21  and  C_22
REMARK    3  A    between atoms: C_22  and  C_23
REMARK                            x       y       z     vdW  Elec       q    Type
REMARK                         _______ _______ _______ _____ _____    ______ ____
ROOT
ATOM      1  C   UNL     1      -0.677  16.566  20.913  0.00  0.00    +0.000 C 
ATOM      2  C   UNL     1      -0.567  15.121  21.383  0.00  0.00    +0.000 C 
ATOM      3  N   UNL     1      -1.134  14.655  22.666  0.00  0.00    +0.000 N 
ATOM      4  C   UNL     1      -2.342  14.994  23.203  0.00  0.00    +0.000 C 
ATOM      5  O   UNL     1      -2.900  16.052  22.913  0.00  0.00    +0.000 OA
ATOM      6  C   UNL     1      -2.939  14.061  24.284  0.00  0.00    +0.000 C 
ATOM      7  C   UNL     1      -2.983  12.506  24.213  0.00  0.00    +0.000 C 
ATOM      8  C   UNL     1      -2.189  11.795  23.165  0.00  0.00    +0.000 C 
ATOM      9  C   UNL     1      -1.495  10.640  23.261  0.00  0.00    +0.000 C 
ATOM     10  C   UNL     1      -0.585  10.284  22.120  0.00  0.00    +0.000 C 
ATOM     11  C   UNL     1      -0.186   8.869  21.660  0.00  0.00    +0.000 C 
ATOM     12  C   UNL     1       0.693   9.106  20.412  0.00  0.00    +0.000 C 
ATOM     13  O   UNL     1       1.422   8.022  19.843  0.00  0.00    +0.000 OA
ATOM     14  C   UNL     1       2.173   8.131  18.707  0.00  0.00    +0.000 C 
ATOM     15  O   UNL     1       2.622   7.080  18.227  0.00  0.00    +0.000 OA
ATOM     16  C   UNL     1       2.470   9.441  17.949  0.00  0.00    +0.000 C 
ATOM     17  C   UNL     1       2.313  10.793  18.626  0.00  0.00    +0.000 C 
ATOM     18  N   UNL     1       2.397  11.983  17.804  0.00  0.00    +0.000 N 
ATOM     19  C   UNL     1       1.785  13.205  17.965  0.00  0.00    +0.000 C 
ATOM     20  O   UNL     1       2.225  14.119  17.249  0.00  0.00    +0.000 OA
ATOM     21  C   UNL     1       0.721  13.551  19.064  0.00  0.00    +0.000 C 
ATOM     22  N   UNL     1       1.430  14.026  20.270  0.00  0.00    +0.000 N 
ATOM     23  C   UNL     1       0.914  14.657  21.368  0.00  0.00    +0.000 C 
ATOM     24  O   UNL     1       1.631  14.774  22.353  0.00  0.00    +0.000 OA
ATOM     25  H   UNL     1      -0.677  13.844  23.064  0.00  0.00    +0.000 HD
ATOM     26  H   UNL     1       3.147  12.037  17.119  0.00  0.00    +0.000 HD
ATOM     27  H   UNL     1       2.406  13.768  20.389  0.00  0.00    +0.000 HD
ENDROOT
BRANCH  21  28
ATOM     28  C   UNL     1      -0.297  12.494  19.463  0.00  0.00    +0.000 C 
BRANCH  28  29
ATOM     29  C   UNL     1      -1.519  12.256  18.648  0.00  0.00    +0.000 A 
ATOM     30  C   UNL     1      -1.610  11.741  17.375  0.00  0.00    +0.000 A 
ATOM     31  N   UNL     1      -2.924  11.449  17.119  0.00  0.00    +0.000 N 
ATOM     32  C   UNL     1      -3.702  11.783  18.199  0.00  0.00    +0.000 A 
ATOM     33  C   UNL     1      -5.076  11.599  18.415  0.00  0.00    +0.000 A 
ATOM     34  C   UNL     1      -5.614  12.047  19.625  0.00  0.00    +0.000 A 
ATOM     35  C   UNL     1      -4.815  12.678  20.571  0.00  0.00    +0.000 A 
ATOM     36  C   UNL     1      -3.447  12.854  20.336  0.00  0.00    +0.000 A 
ATOM     37  C   UNL     1      -2.869  12.368  19.144  0.00  0.00    +0.000 A 
ATOM     38  H   UNL     1      -3.274  11.007  16.280  0.00  0.00    +0.000 HD
ENDBRANCH  28  29
ENDBRANCH  21  28
TORSDOF 2
ENDMDL
MODEL 7
REMARK VINA RESULT:      -7.4      2.468      6.281
REMARK  Name = 
REMARK  3 active torsions:
REMARK  status: ('A' for Active; 'I' for Inactive)
REMARK    1  A    between atoms: C_1  and  C_2
REMARK    2  A    between atoms: C_21  and  C_22
REMARK    3  A    between atoms: C_22  and  C_23
REMARK                            x       y       z     vdW  Elec       q    Type
REMARK                         _______ _______ _______ _____ _____    ______ ____
ROOT
ATOM      1  C   UNL     1      -2.143  14.490  25.010  0.00  0.00    +0.000 C 
ATOM      2  C   UNL     1      -3.050  14.090  23.854  0.00  0.00    +0.000 C 
ATOM      3  N   UNL     1      -4.467  14.501  23.773  0.00  0.00    +0.000 N 
ATOM      4  C   UNL     1      -4.987  15.727  24.077  0.00  0.00    +0.000 C 
ATOM      5  O   UNL     1      -4.423  16.486  24.865  0.00  0.00    +0.000 OA
ATOM      6  C   UNL     1      -6.372  16.090  23.491  0.00  0.00    +0.000 C 
ATOM      7  C   UNL     1      -6.824  15.845  22.021  0.00  0.00    +0.000 C 
ATOM      8  C   UNL     1      -5.993  14.978  21.131  0.00  0.00    +0.000 C 
ATOM      9  C   UNL     1      -6.393  14.076  20.207  0.00  0.00    +0.000 C 
ATOM     10  C   UNL     1      -5.345  13.167  19.632  0.00  0.00    +0.000 C 
ATOM     11  C   UNL     1      -5.339  12.531  18.228  0.00  0.00    +0.000 C 
ATOM     12  C   UNL     1      -3.997  11.767  18.160  0.00  0.00    +0.000 C 
ATOM     13  O   UNL     1      -3.746  10.874  17.079  0.00  0.00    +0.000 OA
ATOM     14  C   UNL     1      -2.566  10.208  16.909  0.00  0.00    +0.000 C 
ATOM     15  O   UNL     1      -2.416   9.591  15.844  0.00  0.00    +0.000 OA
ATOM     16  C   UNL     1      -1.390  10.196  17.907  0.00  0.00    +0.000 C 
ATOM     17  C   UNL     1      -1.594  10.574  19.365  0.00  0.00    +0.000 C 
ATOM     18  N   UNL     1      -0.420  10.750  20.196  0.00  0.00    +0.000 N 
ATOM     19  C   UNL     1      -0.232  11.573  21.283  0.00  0.00    +0.000 C 
ATOM     20  O   UNL     1       0.789  11.344  21.953  0.00  0.00    +0.000 OA
ATOM     21  C   UNL     1      -1.259  12.634  21.811  0.00  0.00    +0.000 C 
ATOM     22  N   UNL     1      -2.158  11.974  22.780  0.00  0.00    +0.000 N 
ATOM     23  C   UNL     1      -3.034  12.550  23.659  0.00  0.00    +0.000 C 
ATOM     24  O   UNL     1      -3.843  11.825  24.222  0.00  0.00    +0.000 OA
ATOM     25  H   UNL     1      -5.061  13.883  23.234  0.00  0.00    +0.000 HD
ATOM     26  H   UNL     1       0.319  10.055  20.131  0.00  0.00    +0.000 HD
ATOM     27  H   UNL     1      -2.253  10.962  22.739  0.00  0.00    +0.000 HD
ENDROOT
BRANCH  21  28
ATOM     28  C   UNL     1      -2.091  13.416  20.806  0.00  0.00    +0.000 C 
BRANCH  28  29
ATOM     29  C   UNL     1      -1.539  14.615  20.118  0.00  0.00    +0.000 A 
ATOM     30  C   UNL     1      -0.606  14.666  19.108  0.00  0.00    +0.000 A 
ATOM     31  N   UNL     1      -0.590  15.938  18.598  0.00  0.00    +0.000 N 
ATOM     32  C   UNL     1      -1.486  16.729  19.271  0.00  0.00    +0.000 A 
ATOM     33  C   UNL     1      -1.857  18.065  19.051  0.00  0.00    +0.000 A 
ATOM     34  C   UNL     1      -2.806  18.630  19.908  0.00  0.00    +0.000 A 
ATOM     35  C   UNL     1      -3.343  17.898  20.959  0.00  0.00    +0.000 A 
ATOM     36  C   UNL     1      -2.959  16.568  21.164  0.00  0.00    +0.000 A 
ATOM     37  C   UNL     1      -2.039  15.958  20.285  0.00  0.00    +0.000 A 
ATOM     38  H   UNL     1      -0.038  16.246  17.809  0.00  0.00    +0.000 HD
ENDBRANCH  28  29
ENDBRANCH  21  28
TORSDOF 2
ENDMDL
MODEL 8
REMARK VINA RESULT:      -7.2      2.357      6.635
REMARK  Name = 
REMARK  3 active torsions:
REMARK  status: ('A' for Active; 'I' for Inactive)
REMARK    1  A    between atoms: C_1  and  C_2
REMARK    2  A    between atoms: C_21  and  C_22
REMARK    3  A    between atoms: C_22  and  C_23
REMARK                            x       y       z     vdW  Elec       q    Type
REMARK                         _______ _______ _______ _____ _____    ______ ____
ROOT
ATOM      1  C   UNL     1      -6.750  11.250  20.513  0.00  0.00    +0.000 C 
ATOM      2  C   UNL     1      -5.920  12.521  20.649  0.00  0.00    +0.000 C 
ATOM      3  N   UNL     1      -6.400  13.712  21.380  0.00  0.00    +0.000 N 
ATOM      4  C   UNL     1      -7.073  13.732  22.568  0.00  0.00    +0.000 C 
ATOM      5  O   UNL     1      -7.743  12.771  22.943  0.00  0.00    +0.000 OA
ATOM      6  C   UNL     1      -7.066  15.050  23.379  0.00  0.00    +0.000 C 
ATOM      7  C   UNL     1      -5.819  15.946  23.639  0.00  0.00    +0.000 C 
ATOM      8  C   UNL     1      -4.562  15.697  22.870  0.00  0.00    +0.000 C 
ATOM      9  C   UNL     1      -3.685  16.590  22.359  0.00  0.00    +0.000 C 
ATOM     10  C   UNL     1      -2.638  16.067  21.418  0.00  0.00    +0.000 C 
ATOM     11  C   UNL     1      -1.227  16.644  21.189  0.00  0.00    +0.000 C 
ATOM     12  C   UNL     1      -0.573  15.669  20.184  0.00  0.00    +0.000 C 
ATOM     13  O   UNL     1       0.668  16.009  19.573  0.00  0.00    +0.000 OA
ATOM     14  C   UNL     1       1.344  15.180  18.724  0.00  0.00    +0.000 C 
ATOM     15  O   UNL     1       2.486  15.526  18.391  0.00  0.00    +0.000 OA
ATOM     16  C   UNL     1       0.823  13.833  18.182  0.00  0.00    +0.000 C 
ATOM     17  C   UNL     1      -0.659  13.499  18.199  0.00  0.00    +0.000 C 
ATOM     18  N   UNL     1      -1.059  12.144  17.878  0.00  0.00    +0.000 N 
ATOM     19  C   UNL     1      -2.144  11.422  18.321  0.00  0.00    +0.000 C 
ATOM     20  O   UNL     1      -2.374  10.373  17.697  0.00  0.00    +0.000 OA
ATOM     21  C   UNL     1      -3.167  11.894  19.411  0.00  0.00    +0.000 C 
ATOM     22  N   UNL     1      -4.252  12.642  18.744  0.00  0.00    +0.000 N 
ATOM     23  C   UNL     1      -5.463  13.023  19.253  0.00  0.00    +0.000 C 
ATOM     24  O   UNL     1      -6.131  13.821  18.611  0.00  0.00    +0.000 OA
ATOM     25  H   UNL     1      -5.994  14.589  21.078  0.00  0.00    +0.000 HD
ATOM     26  H   UNL     1      -0.625  11.697  17.075  0.00  0.00    +0.000 HD
ATOM     27  H   UNL     1      -4.069  13.044  17.828  0.00  0.00    +0.000 HD
ENDROOT
BRANCH  21  28
ATOM     28  C   UNL     1      -2.659  12.697  20.599  0.00  0.00    +0.000 C 
BRANCH  28  29
ATOM     29  C   UNL     1      -2.097  12.023  21.800  0.00  0.00    +0.000 A 
ATOM     30  C   UNL     1      -2.640  11.932  23.062  0.00  0.00    +0.000 A 
ATOM     31  N   UNL     1      -1.924  11.007  23.775  0.00  0.00    +0.000 N 
ATOM     32  C   UNL     1      -0.906  10.502  23.008  0.00  0.00    +0.000 A 
ATOM     33  C   UNL     1       0.027   9.492  23.293  0.00  0.00    +0.000 A 
ATOM     34  C   UNL     1       0.972   9.179  22.312  0.00  0.00    +0.000 A 
ATOM     35  C   UNL     1       1.002   9.866  21.105  0.00  0.00    +0.000 A 
ATOM     36  C   UNL     1       0.065  10.871  20.840  0.00  0.00    +0.000 A 
ATOM     37  C   UNL     1      -0.930  11.174  21.793  0.00  0.00    +0.000 A 
ATOM     38  H   UNL     1      -2.137  10.699  24.715  0.00  0.00    +0.000 HD
ENDBRANCH  28  29
ENDBRANCH  21  28
TORSDOF 2
ENDMDL
MODEL 9
REMARK VINA RESULT:      -7.2      9.119     12.469
REMARK  Name = 
REMARK  3 active torsions:
REMARK  status: ('A' for Active; 'I' for Inactive)
REMARK    1  A    between atoms: C_1  and  C_2
REMARK    2  A    between atoms: C_21  and  C_22
REMARK    3  A    between atoms: C_22  and  C_23
REMARK                            x       y       z     vdW  Elec       q    Type
REMARK                         _______ _______ _______ _____ _____    ______ ____
ROOT
ATOM      1  C   UNL     1       9.185  16.531  17.174  0.00  0.00    +0.000 C 
ATOM      2  C   UNL     1       9.001  15.319  18.079  0.00  0.00    +0.000 C 
ATOM      3  N   UNL     1       9.606  14.004  17.782  0.00  0.00    +0.000 N 
ATOM      4  C   UNL     1      10.864  13.764  17.309  0.00  0.00    +0.000 C 
ATOM      5  O   UNL     1      11.477  14.610  16.659  0.00  0.00    +0.000 OA
ATOM      6  C   UNL     1      11.455  12.348  17.511  0.00  0.00    +0.000 C 
ATOM      7  C   UNL     1      11.386  11.519  18.827  0.00  0.00    +0.000 C 
ATOM      8  C   UNL     1      10.484  11.967  19.932  0.00  0.00    +0.000 C 
ATOM      9  C   UNL     1       9.718  11.224  20.760  0.00  0.00    +0.000 C 
ATOM     10  C   UNL     1       8.722  11.951  21.617  0.00  0.00    +0.000 C 
ATOM     11  C   UNL     1       8.199  11.518  23.000  0.00  0.00    +0.000 C 
ATOM     12  C   UNL     1       7.268  12.672  23.437  0.00  0.00    +0.000 C 
ATOM     13  O   UNL     1       6.434  12.515  24.580  0.00  0.00    +0.000 OA
ATOM     14  C   UNL     1       5.629  13.504  25.070  0.00  0.00    +0.000 C 
ATOM     15  O   UNL     1       5.081  13.295  26.161  0.00  0.00    +0.000 OA
ATOM     16  C   UNL     1       5.382  14.873  24.402  0.00  0.00    +0.000 C 
ATOM     17  C   UNL     1       5.672  15.090  22.926  0.00  0.00    +0.000 C 
ATOM     18  N   UNL     1       5.624  16.444  22.412  0.00  0.00    +0.000 N 
ATOM     19  C   UNL     1       6.329  17.013  21.376  0.00  0.00    +0.000 C 
ATOM     20  O   UNL     1       5.914  18.120  20.996  0.00  0.00    +0.000 OA
ATOM     21  C   UNL     1       7.476  16.317  20.564  0.00  0.00    +0.000 C 
ATOM     22  N   UNL     1       6.872  15.593  19.427  0.00  0.00    +0.000 N 
ATOM     23  C   UNL     1       7.493  15.056  18.333  0.00  0.00    +0.000 C 
ATOM     24  O   UNL     1       6.843  14.310  17.613  0.00  0.00    +0.000 OA
ATOM     25  H   UNL     1       9.116  13.210  18.178  0.00  0.00    +0.000 HD
ATOM     26  H   UNL     1       4.843  17.032  22.689  0.00  0.00    +0.000 HD
ATOM     27  H   UNL     1       5.888  15.341  19.482  0.00  0.00    +0.000 HD
ENDROOT
BRANCH  21  28
ATOM     28  C   UNL     1       8.438  15.392  21.294  0.00  0.00    +0.000 C 
BRANCH  28  29
ATOM     29  C   UNL     1       9.754  15.883  21.785  0.00  0.00    +0.000 A 
ATOM     30  C   UNL     1      10.776  16.455  21.062  0.00  0.00    +0.000 A 
ATOM     31  N   UNL     1      11.679  16.994  21.941  0.00  0.00    +0.000 N 
ATOM     32  C   UNL     1      11.275  16.769  23.232  0.00  0.00    +0.000 A 
ATOM     33  C   UNL     1      11.840  17.195  24.444  0.00  0.00    +0.000 A 
ATOM     34  C   UNL     1      11.211  16.808  25.631  0.00  0.00    +0.000 A 
ATOM     35  C   UNL     1      10.078  16.005  25.609  0.00  0.00    +0.000 A 
ATOM     36  C   UNL     1       9.530  15.587  24.390  0.00  0.00    +0.000 A 
ATOM     37  C   UNL     1      10.117  16.004  23.176  0.00  0.00    +0.000 A 
ATOM     38  H   UNL     1      12.500  17.525  21.684  0.00  0.00    +0.000 HD
ENDBRANCH  28  29
ENDBRANCH  21  28
TORSDOF 2
ENDMDL
