MODEL 1
REMARK VINA RESULT:      -6.5      0.000      0.000
REMARK  Name = 
REMARK  7 active torsions:
REMARK  status: ('A' for Active; 'I' for Inactive)
REMARK    1  A    between atoms: CB_1  and  CA_2
REMARK    2  A    between atoms: CA_2  and  C_3
REMARK    3  A    between atoms: CA_2  and  N_5
REMARK    4  A    between atoms: C_3  and  O_4
REMARK    5  A    between atoms: N_5  and  C_6
REMARK    6  A    between atoms: C_7  and  CA_9
REMARK    7  A    between atoms: N_11  and  C_12
REMARK                            x       y       z     vdW  Elec       q    Type
REMARK                         _______ _______ _______ _____ _____    ______ ____
ROOT
ATOM      1  CA  UNL     1       2.966   6.670  19.135  0.00  0.00    +0.000 A 
ATOM      2  C   UNL     1       2.231   7.144  20.207  0.00  0.00    +0.000 A 
ATOM      3  N   UNL     1       1.634   8.318  19.803  0.00  0.00    +0.000 N 
ATOM      4  C   UNL     1       2.021   8.486  18.491  0.00  0.00    +0.000 A 
ATOM      5  N   UNL     1       2.807   7.524  18.064  0.00  0.00    +0.000 NA
ENDROOT
BRANCH   3   6
ATOM      6  C   UNL     1       0.800   9.181  20.572  0.00  0.00    +0.000 A 
ATOM      7  C   UNL     1       0.102  10.232  19.957  0.00  0.00    +0.000 A 
ATOM      8  C   UNL     1      -0.717  11.076  20.715  0.00  0.00    +0.000 A 
ATOM      9  C   UNL     1      -0.843  10.877  22.087  0.00  0.00    +0.000 A 
ATOM     10 BR   UNL     1      -1.944  12.023  23.109  0.00  0.00    +0.000 Br
ATOM     11  C   UNL     1      -0.159   9.838  22.711  0.00  0.00    +0.000 A 
ATOM     12  C   UNL     1       0.660   8.990  21.957  0.00  0.00    +0.000 A 
ENDBRANCH   3   6
BRANCH   1  15
ATOM     13  N   UNL     1       3.123   4.195  19.042  0.00  0.00    +0.000 N 
ATOM     14  C   UNL     1       1.704   4.092  18.717  0.00  0.00    +0.000 C 
ATOM     15  C   UNL     1       3.776   5.438  19.134  0.00  0.00    +0.000 C 
ATOM     16  O   UNL     1       5.007   5.509  19.191  0.00  0.00    +0.000 OA
BRANCH  13  18
ATOM     17  CB  UNL     1       4.079   2.320  20.447  0.00  0.00    +0.000 C 
ATOM     18  CA  UNL     1       3.957   2.979  19.065  0.00  0.00    +0.000 C 
BRANCH  18  19
ATOM     19  C   UNL     1       3.495   1.956  18.006  0.00  0.00    +0.000 C 
BRANCH  19  20
ATOM     20  O   UNL     1       3.985   0.649  18.297  0.00  0.00    +0.000 OA
ATOM     21  H   UNL     1       3.329   0.018  17.947  0.00  0.00    +0.000 HD
ENDBRANCH  19  20
ENDBRANCH  18  19
ENDBRANCH  13  18
ENDBRANCH   1  15
TORSDOF 5
ENDMDL
MODEL 2
REMARK VINA RESULT:      -6.2      1.063      1.099
REMARK  Name = 
REMARK  7 active torsions:
REMARK  status: ('A' for Active; 'I' for Inactive)
REMARK    1  A    between atoms: CB_1  and  CA_2
REMARK    2  A    between atoms: CA_2  and  C_3
REMARK    3  A    between atoms: CA_2  and  N_5
REMARK    4  A    between atoms: C_3  and  O_4
REMARK    5  A    between atoms: N_5  and  C_6
REMARK    6  A    between atoms: C_7  and  CA_9
REMARK    7  A    between atoms: N_11  and  C_12
REMARK                            x       y       z     vdW  Elec       q    Type
REMARK                         _______ _______ _______ _____ _____    ______ ____
ROOT
ATOM      1  CA  UNL     1       2.694   6.891  19.149  0.00  0.00    +0.000 A 
ATOM      2  C   UNL     1       1.940   7.334  20.221  0.00  0.00    +0.000 A 
ATOM      3  N   UNL     1       1.414   8.557  19.868  0.00  0.00    +0.000 N 
ATOM      4  C   UNL     1       1.859   8.785  18.584  0.00  0.00    +0.000 A 
ATOM      5  N   UNL     1       2.616   7.813  18.128  0.00  0.00    +0.000 NA
ENDROOT
BRANCH   3   6
ATOM      6  C   UNL     1       0.590   9.412  20.657  0.00  0.00    +0.000 A 
ATOM      7  C   UNL     1      -0.053  10.517  20.078  0.00  0.00    +0.000 A 
ATOM      8  C   UNL     1      -0.862  11.353  20.856  0.00  0.00    +0.000 A 
ATOM      9  C   UNL     1      -1.033  11.092  22.213  0.00  0.00    +0.000 A 
ATOM     10 BR   UNL     1      -2.120  12.226  23.262  0.00  0.00    +0.000 Br
ATOM     11  C   UNL     1      -0.404   9.999  22.801  0.00  0.00    +0.000 A 
ATOM     12  C   UNL     1       0.404   9.158  22.027  0.00  0.00    +0.000 A 
ENDBRANCH   3   6
BRANCH   1  15
ATOM     13  N   UNL     1       2.833   4.488  18.545  0.00  0.00    +0.000 N 
ATOM     14  C   UNL     1       1.577   4.575  17.808  0.00  0.00    +0.000 C 
ATOM     15  C   UNL     1       3.448   5.624  19.103  0.00  0.00    +0.000 C 
ATOM     16  O   UNL     1       4.605   5.579  19.529  0.00  0.00    +0.000 OA
BRANCH  13  18
ATOM     17  CB  UNL     1       2.766   1.971  18.803  0.00  0.00    +0.000 C 
ATOM     18  CA  UNL     1       3.603   3.230  18.531  0.00  0.00    +0.000 C 
BRANCH  18  19
ATOM     19  C   UNL     1       4.416   3.079  17.228  0.00  0.00    +0.000 C 
BRANCH  19  20
ATOM     20  O   UNL     1       5.694   3.701  17.337  0.00  0.00    +0.000 OA
ATOM     21  H   UNL     1       5.553   4.659  17.218  0.00  0.00    +0.000 HD
ENDBRANCH  19  20
ENDBRANCH  18  19
ENDBRANCH  13  18
ENDBRANCH   1  15
TORSDOF 5
ENDMDL
MODEL 3
REMARK VINA RESULT:      -6.2      0.996      1.175
REMARK  Name = 
REMARK  7 active torsions:
REMARK  status: ('A' for Active; 'I' for Inactive)
REMARK    1  A    between atoms: CB_1  and  CA_2
REMARK    2  A    between atoms: CA_2  and  C_3
REMARK    3  A    between atoms: CA_2  and  N_5
REMARK    4  A    between atoms: C_3  and  O_4
REMARK    5  A    between atoms: N_5  and  C_6
REMARK    6  A    between atoms: C_7  and  CA_9
REMARK    7  A    between atoms: N_11  and  C_12
REMARK                            x       y       z     vdW  Elec       q    Type
REMARK                         _______ _______ _______ _____ _____    ______ ____
ROOT
ATOM      1  CA  UNL     1       3.080   6.729  18.847  0.00  0.00    +0.000 A 
ATOM      2  C   UNL     1       2.119   7.365  19.614  0.00  0.00    +0.000 A 
ATOM      3  N   UNL     1       1.784   8.529  18.958  0.00  0.00    +0.000 N 
ATOM      4  C   UNL     1       2.545   8.529  17.810  0.00  0.00    +0.000 A 
ATOM      5  N   UNL     1       3.321   7.473  17.712  0.00  0.00    +0.000 NA
ENDROOT
BRANCH   3   6
ATOM      6  C   UNL     1       0.854   9.526  19.375  0.00  0.00    +0.000 A 
ATOM      7  C   UNL     1       0.010  10.148  18.442  0.00  0.00    +0.000 A 
ATOM      8  C   UNL     1      -0.902  11.126  18.855  0.00  0.00    +0.000 A 
ATOM      9  C   UNL     1      -0.976  11.488  20.197  0.00  0.00    +0.000 A 
ATOM     10 BR   UNL     1      -2.204  12.813  20.751  0.00  0.00    +0.000 Br
ATOM     11  C   UNL     1      -0.147  10.879  21.135  0.00  0.00    +0.000 A 
ATOM     12  C   UNL     1       0.765   9.898  20.727  0.00  0.00    +0.000 A 
ENDBRANCH   3   6
BRANCH   1  15
ATOM     13  N   UNL     1       3.072   4.247  18.864  0.00  0.00    +0.000 N 
ATOM     14  C   UNL     1       1.889   4.220  18.010  0.00  0.00    +0.000 C 
ATOM     15  C   UNL     1       3.730   5.449  19.185  0.00  0.00    +0.000 C 
ATOM     16  O   UNL     1       4.843   5.444  19.719  0.00  0.00    +0.000 OA
BRANCH  13  18
ATOM     17  CB  UNL     1       3.360   2.451  20.624  0.00  0.00    +0.000 C 
ATOM     18  CA  UNL     1       3.737   2.983  19.233  0.00  0.00    +0.000 C 
BRANCH  18  19
ATOM     19  C   UNL     1       3.528   1.899  18.154  0.00  0.00    +0.000 C 
BRANCH  19  20
ATOM     20  O   UNL     1       4.257   0.713  18.460  0.00  0.00    +0.000 OA
ATOM     21  H   UNL     1       3.999   0.449  19.362  0.00  0.00    +0.000 HD
ENDBRANCH  19  20
ENDBRANCH  18  19
ENDBRANCH  13  18
ENDBRANCH   1  15
TORSDOF 5
ENDMDL
MODEL 4
REMARK VINA RESULT:      -6.2      1.941      2.506
REMARK  Name = 
REMARK  7 active torsions:
REMARK  status: ('A' for Active; 'I' for Inactive)
REMARK    1  A    between atoms: CB_1  and  CA_2
REMARK    2  A    between atoms: CA_2  and  C_3
REMARK    3  A    between atoms: CA_2  and  N_5
REMARK    4  A    between atoms: C_3  and  O_4
REMARK    5  A    between atoms: N_5  and  C_6
REMARK    6  A    between atoms: C_7  and  CA_9
REMARK    7  A    between atoms: N_11  and  C_12
REMARK                            x       y       z     vdW  Elec       q    Type
REMARK                         _______ _______ _______ _____ _____    ______ ____
ROOT
ATOM      1  CA  UNL     1       2.986   6.877  18.467  0.00  0.00    +0.000 A 
ATOM      2  C   UNL     1       2.295   7.236  19.611  0.00  0.00    +0.000 A 
ATOM      3  N   UNL     1       1.694   8.450  19.358  0.00  0.00    +0.000 N 
ATOM      4  C   UNL     1       2.034   8.757  18.059  0.00  0.00    +0.000 A 
ATOM      5  N   UNL     1       2.796   7.843  17.501  0.00  0.00    +0.000 NA
ENDROOT
BRANCH   3   6
ATOM      6  C   UNL     1       0.896   9.228  20.246  0.00  0.00    +0.000 A 
ATOM      7  C   UNL     1       0.218  10.367  19.783  0.00  0.00    +0.000 A 
ATOM      8  C   UNL     1      -0.565  11.128  20.658  0.00  0.00    +0.000 A 
ATOM      9  C   UNL     1      -0.676  10.759  21.995  0.00  0.00    +0.000 A 
ATOM     10 BR   UNL     1      -1.729  11.793  23.175  0.00  0.00    +0.000 Br
ATOM     11  C   UNL     1      -0.012   9.631  22.469  0.00  0.00    +0.000 A 
ATOM     12  C   UNL     1       0.771   8.865  21.598  0.00  0.00    +0.000 A 
ENDBRANCH   3   6
BRANCH   1  15
ATOM     13  N   UNL     1       4.989   5.713  17.576  0.00  0.00    +0.000 N 
ATOM     14  C   UNL     1       5.583   6.985  17.180  0.00  0.00    +0.000 C 
ATOM     15  C   UNL     1       3.785   5.649  18.304  0.00  0.00    +0.000 C 
ATOM     16  O   UNL     1       3.408   4.594  18.821  0.00  0.00    +0.000 OA
BRANCH  13  18
ATOM     17  CB  UNL     1       5.746   3.898  15.985  0.00  0.00    +0.000 C 
ATOM     18  CA  UNL     1       5.756   4.465  17.412  0.00  0.00    +0.000 C 
BRANCH  18  19
ATOM     19  C   UNL     1       7.201   4.617  17.933  0.00  0.00    +0.000 C 
BRANCH  19  20
ATOM     20  O   UNL     1       8.149   4.115  16.994  0.00  0.00    +0.000 OA
ATOM     21  H   UNL     1       8.784   4.835  16.822  0.00  0.00    +0.000 HD
ENDBRANCH  19  20
ENDBRANCH  18  19
ENDBRANCH  13  18
ENDBRANCH   1  15
TORSDOF 5
ENDMDL
MODEL 5
REMARK VINA RESULT:      -6.2      1.195      1.685
REMARK  Name = 
REMARK  7 active torsions:
REMARK  status: ('A' for Active; 'I' for Inactive)
REMARK    1  A    between atoms: CB_1  and  CA_2
REMARK    2  A    between atoms: CA_2  and  C_3
REMARK    3  A    between atoms: CA_2  and  N_5
REMARK    4  A    between atoms: C_3  and  O_4
REMARK    5  A    between atoms: N_5  and  C_6
REMARK    6  A    between atoms: C_7  and  CA_9
REMARK    7  A    between atoms: N_11  and  C_12
REMARK                            x       y       z     vdW  Elec       q    Type
REMARK                         _______ _______ _______ _____ _____    ______ ____
ROOT
ATOM      1  CA  UNL     1       2.931   7.024  18.609  0.00  0.00    +0.000 A 
ATOM      2  C   UNL     1       2.220   7.379  19.742  0.00  0.00    +0.000 A 
ATOM      3  N   UNL     1       1.593   8.575  19.469  0.00  0.00    +0.000 N 
ATOM      4  C   UNL     1       1.938   8.874  18.169  0.00  0.00    +0.000 A 
ATOM      5  N   UNL     1       2.726   7.972  17.630  0.00  0.00    +0.000 NA
ENDROOT
BRANCH   3   6
ATOM      6  C   UNL     1       0.768   9.344  20.340  0.00  0.00    +0.000 A 
ATOM      7  C   UNL     1       0.564   8.943  21.669  0.00  0.00    +0.000 A 
ATOM      8  C   UNL     1      -0.246   9.702  22.521  0.00  0.00    +0.000 A 
ATOM      9  C   UNL     1      -0.856  10.863  22.052  0.00  0.00    +0.000 A 
ATOM     10 BR   UNL     1      -1.955  11.882  23.202  0.00  0.00    +0.000 Br
ATOM     11  C   UNL     1      -0.663  11.275  20.736  0.00  0.00    +0.000 A 
ATOM     12  C   UNL     1       0.149  10.520  19.881  0.00  0.00    +0.000 A 
ENDBRANCH   3   6
BRANCH   1  15
ATOM     13  N   UNL     1       3.138   4.598  18.127  0.00  0.00    +0.000 N 
ATOM     14  C   UNL     1       1.748   4.541  17.686  0.00  0.00    +0.000 C 
ATOM     15  C   UNL     1       3.761   5.813  18.468  0.00  0.00    +0.000 C 
ATOM     16  O   UNL     1       4.983   5.881  18.626  0.00  0.00    +0.000 OA
BRANCH  13  18
ATOM     17  CB  UNL     1       3.255   2.073  18.254  0.00  0.00    +0.000 C 
ATOM     18  CA  UNL     1       3.991   3.400  18.014  0.00  0.00    +0.000 C 
BRANCH  18  19
ATOM     19  C   UNL     1       4.751   3.373  16.671  0.00  0.00    +0.000 C 
BRANCH  19  20
ATOM     20  O   UNL     1       6.113   3.763  16.835  0.00  0.00    +0.000 OA
ATOM     21  H   UNL     1       6.478   3.213  17.553  0.00  0.00    +0.000 HD
ENDBRANCH  19  20
ENDBRANCH  18  19
ENDBRANCH  13  18
ENDBRANCH   1  15
TORSDOF 5
ENDMDL
MODEL 6
REMARK VINA RESULT:      -6.2      1.940      2.732
REMARK  Name = 
REMARK  7 active torsions:
REMARK  status: ('A' for Active; 'I' for Inactive)
REMARK    1  A    between atoms: CB_1  and  CA_2
REMARK    2  A    between atoms: CA_2  and  C_3
REMARK    3  A    between atoms: CA_2  and  N_5
REMARK    4  A    between atoms: C_3  and  O_4
REMARK    5  A    between atoms: N_5  and  C_6
REMARK    6  A    between atoms: C_7  and  CA_9
REMARK    7  A    between atoms: N_11  and  C_12
REMARK                            x       y       z     vdW  Elec       q    Type
REMARK                         _______ _______ _______ _____ _____    ______ ____
ROOT
ATOM      1  CA  UNL     1       2.956   6.925  18.448  0.00  0.00    +0.000 A 
ATOM      2  C   UNL     1       2.259   7.267  19.594  0.00  0.00    +0.000 A 
ATOM      3  N   UNL     1       1.677   8.494  19.364  0.00  0.00    +0.000 N 
ATOM      4  C   UNL     1       2.034   8.827  18.075  0.00  0.00    +0.000 A 
ATOM      5  N   UNL     1       2.787   7.915  17.503  0.00  0.00    +0.000 NA
ENDROOT
BRANCH   3   6
ATOM      6  C   UNL     1       0.882   9.263  20.263  0.00  0.00    +0.000 A 
ATOM      7  C   UNL     1       0.709   8.852  21.593  0.00  0.00    +0.000 A 
ATOM      8  C   UNL     1      -0.072   9.611  22.473  0.00  0.00    +0.000 A 
ATOM      9  C   UNL     1      -0.685  10.779  22.029  0.00  0.00    +0.000 A 
ATOM     10 BR   UNL     1      -1.745  11.797  23.217  0.00  0.00    +0.000 Br
ATOM     11  C   UNL     1      -0.522  11.201  20.713  0.00  0.00    +0.000 A 
ATOM     12  C   UNL     1       0.260  10.447  19.830  0.00  0.00    +0.000 A 
ENDBRANCH   3   6
BRANCH   1  15
ATOM     13  N   UNL     1       4.980   5.765  17.602  0.00  0.00    +0.000 N 
ATOM     14  C   UNL     1       5.617   7.043  17.301  0.00  0.00    +0.000 C 
ATOM     15  C   UNL     1       3.740   5.690  18.263  0.00  0.00    +0.000 C 
ATOM     16  O   UNL     1       3.317   4.619  18.705  0.00  0.00    +0.000 OA
BRANCH  13  18
ATOM     17  CB  UNL     1       5.806   4.029  15.956  0.00  0.00    +0.000 C 
ATOM     18  CA  UNL     1       5.732   4.511  17.413  0.00  0.00    +0.000 C 
BRANCH  18  19
ATOM     19  C   UNL     1       7.141   4.597  18.036  0.00  0.00    +0.000 C 
BRANCH  19  20
ATOM     20  O   UNL     1       8.137   4.099  17.146  0.00  0.00    +0.000 OA
ATOM     21  H   UNL     1       7.678   3.527  16.503  0.00  0.00    +0.000 HD
ENDBRANCH  19  20
ENDBRANCH  18  19
ENDBRANCH  13  18
ENDBRANCH   1  15
TORSDOF 5
ENDMDL
MODEL 7
REMARK VINA RESULT:      -6.1      0.913      1.484
REMARK  Name = 
REMARK  7 active torsions:
REMARK  status: ('A' for Active; 'I' for Inactive)
REMARK    1  A    between atoms: CB_1  and  CA_2
REMARK    2  A    between atoms: CA_2  and  C_3
REMARK    3  A    between atoms: CA_2  and  N_5
REMARK    4  A    between atoms: C_3  and  O_4
REMARK    5  A    between atoms: N_5  and  C_6
REMARK    6  A    between atoms: C_7  and  CA_9
REMARK    7  A    between atoms: N_11  and  C_12
REMARK                            x       y       z     vdW  Elec       q    Type
REMARK                         _______ _______ _______ _____ _____    ______ ____
ROOT
ATOM      1  CA  UNL     1       3.022   6.796  18.834  0.00  0.00    +0.000 A 
ATOM      2  C   UNL     1       2.079   7.407  19.642  0.00  0.00    +0.000 A 
ATOM      3  N   UNL     1       1.725   8.589  19.029  0.00  0.00    +0.000 N 
ATOM      4  C   UNL     1       2.457   8.625  17.863  0.00  0.00    +0.000 A 
ATOM      5  N   UNL     1       3.232   7.574  17.716  0.00  0.00    +0.000 NA
ENDROOT
BRANCH   3   6
ATOM      6  C   UNL     1       0.803   9.571  19.498  0.00  0.00    +0.000 A 
ATOM      7  C   UNL     1       0.753   9.911  20.858  0.00  0.00    +0.000 A 
ATOM      8  C   UNL     1      -0.152  10.876  21.313  0.00  0.00    +0.000 A 
ATOM      9  C   UNL     1      -1.011  11.505  20.416  0.00  0.00    +0.000 A 
ATOM     10 BR   UNL     1      -2.237  12.802  21.035  0.00  0.00    +0.000 Br
ATOM     11  C   UNL     1      -0.972  11.179  19.063  0.00  0.00    +0.000 A 
ATOM     12  C   UNL     1      -0.067  10.217  18.603  0.00  0.00    +0.000 A 
ENDBRANCH   3   6
BRANCH   1  15
ATOM     13  N   UNL     1       2.975   4.315  18.882  0.00  0.00    +0.000 N 
ATOM     14  C   UNL     1       1.710   4.300  18.156  0.00  0.00    +0.000 C 
ATOM     15  C   UNL     1       3.683   5.509  19.118  0.00  0.00    +0.000 C 
ATOM     16  O   UNL     1       4.845   5.490  19.533  0.00  0.00    +0.000 OA
BRANCH  13  18
ATOM     17  CB  UNL     1       3.497   2.584  20.652  0.00  0.00    +0.000 C 
ATOM     18  CA  UNL     1       3.654   3.044  19.196  0.00  0.00    +0.000 C 
BRANCH  18  19
ATOM     19  C   UNL     1       3.238   1.925  18.217  0.00  0.00    +0.000 C 
BRANCH  19  20
ATOM     20  O   UNL     1       4.116   0.805  18.303  0.00  0.00    +0.000 OA
ATOM     21  H   UNL     1       3.805   0.153  17.648  0.00  0.00    +0.000 HD
ENDBRANCH  19  20
ENDBRANCH  18  19
ENDBRANCH  13  18
ENDBRANCH   1  15
TORSDOF 5
ENDMDL
MODEL 8
REMARK VINA RESULT:      -6.1      0.530      1.196
REMARK  Name = 
REMARK  7 active torsions:
REMARK  status: ('A' for Active; 'I' for Inactive)
REMARK    1  A    between atoms: CB_1  and  CA_2
REMARK    2  A    between atoms: CA_2  and  C_3
REMARK    3  A    between atoms: CA_2  and  N_5
REMARK    4  A    between atoms: C_3  and  O_4
REMARK    5  A    between atoms: N_5  and  C_6
REMARK    6  A    between atoms: C_7  and  CA_9
REMARK    7  A    between atoms: N_11  and  C_12
REMARK                            x       y       z     vdW  Elec       q    Type
REMARK                         _______ _______ _______ _____ _____    ______ ____
ROOT
ATOM      1  CA  UNL     1       2.903   7.005  18.695  0.00  0.00    +0.000 A 
ATOM      2  C   UNL     1       2.193   7.414  19.811  0.00  0.00    +0.000 A 
ATOM      3  N   UNL     1       1.572   8.599  19.483  0.00  0.00    +0.000 N 
ATOM      4  C   UNL     1       1.919   8.839  18.172  0.00  0.00    +0.000 A 
ATOM      5  N   UNL     1       2.703   7.909  17.674  0.00  0.00    +0.000 NA
ENDROOT
BRANCH   3   6
ATOM      6  C   UNL     1       0.750   9.412  20.318  0.00  0.00    +0.000 A 
ATOM      7  C   UNL     1       0.492   9.039  21.646  0.00  0.00    +0.000 A 
ATOM      8  C   UNL     1      -0.314   9.840  22.462  0.00  0.00    +0.000 A 
ATOM      9  C   UNL     1      -0.867  11.014  21.959  0.00  0.00    +0.000 A 
ATOM     10 BR   UNL     1      -1.962  12.089  23.061  0.00  0.00    +0.000 Br
ATOM     11  C   UNL     1      -0.620  11.398  20.644  0.00  0.00    +0.000 A 
ATOM     12  C   UNL     1       0.188  10.602  19.825  0.00  0.00    +0.000 A 
ENDBRANCH   3   6
BRANCH   1  15
ATOM     13  N   UNL     1       3.085   4.535  18.527  0.00  0.00    +0.000 N 
ATOM     14  C   UNL     1       1.649   4.421  18.291  0.00  0.00    +0.000 C 
ATOM     15  C   UNL     1       3.727   5.785  18.610  0.00  0.00    +0.000 C 
ATOM     16  O   UNL     1       4.958   5.872  18.589  0.00  0.00    +0.000 OA
BRANCH  13  18
ATOM     17  CB  UNL     1       4.396   2.809  19.832  0.00  0.00    +0.000 C 
ATOM     18  CA  UNL     1       3.935   3.332  18.464  0.00  0.00    +0.000 C 
BRANCH  18  19
ATOM     19  C   UNL     1       3.265   2.209  17.643  0.00  0.00    +0.000 C 
BRANCH  19  20
ATOM     20  O   UNL     1       3.240   0.980  18.365  0.00  0.00    +0.000 OA
ATOM     21  H   UNL     1       3.613   1.164  19.247  0.00  0.00    +0.000 HD
ENDBRANCH  19  20
ENDBRANCH  18  19
ENDBRANCH  13  18
ENDBRANCH   1  15
TORSDOF 5
ENDMDL
MODEL 9
REMARK VINA RESULT:      -6.0      1.382      1.665
REMARK  Name = 
REMARK  7 active torsions:
REMARK  status: ('A' for Active; 'I' for Inactive)
REMARK    1  A    between atoms: CB_1  and  CA_2
REMARK    2  A    between atoms: CA_2  and  C_3
REMARK    3  A    between atoms: CA_2  and  N_5
REMARK    4  A    between atoms: C_3  and  O_4
REMARK    5  A    between atoms: N_5  and  C_6
REMARK    6  A    between atoms: C_7  and  CA_9
REMARK    7  A    between atoms: N_11  and  C_12
REMARK                            x       y       z     vdW  Elec       q    Type
REMARK                         _______ _______ _______ _____ _____    ______ ____
ROOT
ATOM      1  CA  UNL     1       2.786   7.409  18.287  0.00  0.00    +0.000 A 
ATOM      2  C   UNL     1       2.134   7.724  19.466  0.00  0.00    +0.000 A 
ATOM      3  N   UNL     1       1.435   8.890  19.243  0.00  0.00    +0.000 N 
ATOM      4  C   UNL     1       1.681   9.212  17.927  0.00  0.00    +0.000 A 
ATOM      5  N   UNL     1       2.474   8.352  17.331  0.00  0.00    +0.000 NA
ENDROOT
BRANCH   3   6
ATOM      6  C   UNL     1       0.631   9.615  20.171  0.00  0.00    +0.000 A 
ATOM      7  C   UNL     1      -0.035  10.785  19.776  0.00  0.00    +0.000 A 
ATOM      8  C   UNL     1      -0.824  11.494  20.690  0.00  0.00    +0.000 A 
ATOM      9  C   UNL     1      -0.950  11.040  22.000  0.00  0.00    +0.000 A 
ATOM     10 BR   UNL     1      -2.009  12.003  23.233  0.00  0.00    +0.000 Br
ATOM     11  C   UNL     1      -0.296   9.881  22.407  0.00  0.00    +0.000 A 
ATOM     12  C   UNL     1       0.491   9.167  21.496  0.00  0.00    +0.000 A 
ENDBRANCH   3   6
BRANCH   1  15
ATOM     13  N   UNL     1       3.078   4.964  17.975  0.00  0.00    +0.000 N 
ATOM     14  C   UNL     1       1.637   4.786  17.825  0.00  0.00    +0.000 C 
ATOM     15  C   UNL     1       3.662   6.240  18.084  0.00  0.00    +0.000 C 
ATOM     16  O   UNL     1       4.883   6.393  17.989  0.00  0.00    +0.000 OA
BRANCH  13  18
ATOM     17  CB  UNL     1       4.838   3.873  16.521  0.00  0.00    +0.000 C 
ATOM     18  CA  UNL     1       3.980   3.812  17.793  0.00  0.00    +0.000 C 
BRANCH  18  19
ATOM     19  C   UNL     1       4.861   3.582  19.040  0.00  0.00    +0.000 C 
BRANCH  19  20
ATOM     20  O   UNL     1       6.233   3.857  18.766  0.00  0.00    +0.000 OA
ATOM     21  H   UNL     1       6.328   4.827  18.755  0.00  0.00    +0.000 HD
ENDBRANCH  19  20
ENDBRANCH  18  19
ENDBRANCH  13  18
ENDBRANCH   1  15
TORSDOF 5
ENDMDL
