MODEL 1
REMARK VINA RESULT:      -7.5      0.000      0.000
REMARK  Name = 
REMARK  7 active torsions:
REMARK  status: ('A' for Active; 'I' for Inactive)
REMARK    1  A    between atoms: C_1  and  O_2
REMARK    2  A    between atoms: O_2  and  C_3
REMARK    3  A    between atoms: C_3  and  C_5
REMARK    4  A    between atoms: C_10  and  N_11
REMARK    5  A    between atoms: N_11  and  C_12
REMARK    6  A    between atoms: C_12  and  C_13
REMARK    7  A    between atoms: N_18  and  C_19
REMARK                            x       y       z     vdW  Elec       q    Type
REMARK                         _______ _______ _______ _____ _____    ______ ____
ROOT
ATOM      1  C   UNL     1       4.278   5.885  19.263  0.00  0.00    +0.000 C 
ENDROOT
BRANCH   1   2
ATOM      2  C   UNL     1       4.777   5.421  17.897  0.00  0.00    +0.000 C 
ATOM      3  O   UNL     1       4.049   5.411  16.905  0.00  0.00    +0.000 OA
ATOM      4  N   UNL     1       6.106   5.029  17.893  0.00  0.00    +0.000 N 
ATOM      5  C   UNL     1       6.871   4.624  16.831  0.00  0.00    +0.000 C 
ATOM      6  O   UNL     1       8.008   4.203  17.022  0.00  0.00    +0.000 OA
ATOM      7  N   UNL     1       6.292   4.734  15.604  0.00  0.00    +0.000 N 
ATOM      8  H   UNL     1       6.583   4.926  18.779  0.00  0.00    +0.000 HD
ATOM      9  H   UNL     1       5.335   5.079  15.572  0.00  0.00    +0.000 HD
BRANCH   7  10
ATOM     10  C   UNL     1       6.929   4.288  14.389  0.00  0.00    +0.000 C 
ATOM     11  C   UNL     1       5.929   3.726  13.385  0.00  0.00    +0.000 C 
ATOM     12  C   UNL     1       6.695   3.741  12.070  0.00  0.00    +0.000 C 
ATOM     13  C   UNL     1       7.674   4.911  12.174  0.00  0.00    +0.000 C 
ATOM     14  C   UNL     1       7.585   5.422  13.608  0.00  0.00    +0.000 C 
ENDBRANCH   7  10
ENDBRANCH   1   2
BRANCH   1  15
ATOM     15  N   UNL     1       2.812   5.788  19.347  0.00  0.00    +0.000 N 
ATOM     16  H   UNL     1       2.411   6.628  19.784  0.00  0.00    +0.000 HD
BRANCH  15  22
ATOM     17  C   UNL     1       1.801   3.504  19.335  0.00  0.00    +0.000 A 
ATOM     18  C   UNL     1       1.391   2.375  20.076  0.00  0.00    +0.000 A 
ATOM     19  C   UNL     1       1.496   2.339  21.465  0.00  0.00    +0.000 A 
ATOM     20  C   UNL     1       2.039   3.423  22.135  0.00  0.00    +0.000 A 
ATOM     21  C   UNL     1       2.466   4.540  21.414  0.00  0.00    +0.000 A 
ATOM     22  C   UNL     1       2.325   4.632  20.013  0.00  0.00    +0.000 A 
BRANCH  17  23
ATOM     23  C   UNL     1       1.593   3.382  17.856  0.00  0.00    +0.000 C 
ATOM     24  O   UNL     1       1.018   4.239  17.195  0.00  0.00    +0.000 OA
BRANCH  23  26
ATOM     25  C   UNL     1       3.523   2.069  17.656  0.00  0.00    +0.000 C 
ATOM     26  O   UNL     1       2.137   2.250  17.344  0.00  0.00    +0.000 OA
ENDBRANCH  23  26
ENDBRANCH  17  23
ENDBRANCH  15  22
ENDBRANCH   1  15
TORSDOF 6
ENDMDL
MODEL 2
REMARK VINA RESULT:      -7.2      4.047      7.752
REMARK  Name = 
REMARK  7 active torsions:
REMARK  status: ('A' for Active; 'I' for Inactive)
REMARK    1  A    between atoms: C_1  and  O_2
REMARK    2  A    between atoms: O_2  and  C_3
REMARK    3  A    between atoms: C_3  and  C_5
REMARK    4  A    between atoms: C_10  and  N_11
REMARK    5  A    between atoms: N_11  and  C_12
REMARK    6  A    between atoms: C_12  and  C_13
REMARK    7  A    between atoms: N_18  and  C_19
REMARK                            x       y       z     vdW  Elec       q    Type
REMARK                         _______ _______ _______ _____ _____    ______ ____
ROOT
ATOM      1  C   UNL     1       3.559   5.298  19.240  0.00  0.00    +0.000 C 
ENDROOT
BRANCH   1   2
ATOM      2  C   UNL     1       2.874   6.658  19.135  0.00  0.00    +0.000 C 
ATOM      3  O   UNL     1       2.846   7.295  18.084  0.00  0.00    +0.000 OA
ATOM      4  N   UNL     1       2.297   7.083  20.321  0.00  0.00    +0.000 N 
ATOM      5  C   UNL     1       1.560   8.215  20.551  0.00  0.00    +0.000 C 
ATOM      6  O   UNL     1       1.214   8.497  21.694  0.00  0.00    +0.000 OA
ATOM      7  N   UNL     1       1.252   8.958  19.453  0.00  0.00    +0.000 N 
ATOM      8  H   UNL     1       2.498   6.570  21.169  0.00  0.00    +0.000 HD
ATOM      9  H   UNL     1       1.612   8.634  18.557  0.00  0.00    +0.000 HD
BRANCH   7  10
ATOM     10  C   UNL     1       0.545  10.213  19.523  0.00  0.00    +0.000 C 
ATOM     11  C   UNL     1       1.355  11.367  18.944  0.00  0.00    +0.000 C 
ATOM     12  C   UNL     1       0.314  12.450  18.702  0.00  0.00    +0.000 C 
ATOM     13  C   UNL     1      -0.992  11.711  18.407  0.00  0.00    +0.000 C 
ATOM     14  C   UNL     1      -0.722  10.234  18.672  0.00  0.00    +0.000 C 
ENDBRANCH   7  10
ENDBRANCH   1   2
BRANCH   1  15
ATOM     15  N   UNL     1       5.014   5.426  19.053  0.00  0.00    +0.000 N 
ATOM     16  H   UNL     1       5.342   6.356  19.344  0.00  0.00    +0.000 HD
BRANCH  15  22
ATOM     17  C   UNL     1       6.662   5.705  17.198  0.00  0.00    +0.000 A 
ATOM     18  C   UNL     1       7.074   5.334  15.899  0.00  0.00    +0.000 A 
ATOM     19  C   UNL     1       6.341   4.428  15.135  0.00  0.00    +0.000 A 
ATOM     20  C   UNL     1       5.197   3.857  15.668  0.00  0.00    +0.000 A 
ATOM     21  C   UNL     1       4.787   4.200  16.957  0.00  0.00    +0.000 A 
ATOM     22  C   UNL     1       5.475   5.153  17.739  0.00  0.00    +0.000 A 
BRANCH  17  23
ATOM     23  C   UNL     1       7.552   6.708  17.867  0.00  0.00    +0.000 C 
ATOM     24  O   UNL     1       8.070   6.509  18.960  0.00  0.00    +0.000 OA
BRANCH  23  26
ATOM     25  C   UNL     1       8.083   8.990  17.871  0.00  0.00    +0.000 C 
ATOM     26  O   UNL     1       7.738   7.822  17.117  0.00  0.00    +0.000 OA
ENDBRANCH  23  26
ENDBRANCH  17  23
ENDBRANCH  15  22
ENDBRANCH   1  15
TORSDOF 6
ENDMDL
MODEL 3
REMARK VINA RESULT:      -7.1      3.870      7.798
REMARK  Name = 
REMARK  7 active torsions:
REMARK  status: ('A' for Active; 'I' for Inactive)
REMARK    1  A    between atoms: C_1  and  O_2
REMARK    2  A    between atoms: O_2  and  C_3
REMARK    3  A    between atoms: C_3  and  C_5
REMARK    4  A    between atoms: C_10  and  N_11
REMARK    5  A    between atoms: N_11  and  C_12
REMARK    6  A    between atoms: C_12  and  C_13
REMARK    7  A    between atoms: N_18  and  C_19
REMARK                            x       y       z     vdW  Elec       q    Type
REMARK                         _______ _______ _______ _____ _____    ______ ____
ROOT
ATOM      1  C   UNL     1       3.456   5.001  18.978  0.00  0.00    +0.000 C 
ENDROOT
BRANCH   1   2
ATOM      2  C   UNL     1       2.629   6.247  19.281  0.00  0.00    +0.000 C 
ATOM      3  O   UNL     1       1.980   6.364  20.319  0.00  0.00    +0.000 OA
ATOM      4  N   UNL     1       2.691   7.212  18.287  0.00  0.00    +0.000 N 
ATOM      5  C   UNL     1       2.123   8.459  18.274  0.00  0.00    +0.000 C 
ATOM      6  O   UNL     1       2.186   9.147  17.260  0.00  0.00    +0.000 OA
ATOM      7  N   UNL     1       1.521   8.850  19.430  0.00  0.00    +0.000 N 
ATOM      8  H   UNL     1       3.123   6.971  17.405  0.00  0.00    +0.000 HD
ATOM      9  H   UNL     1       1.515   8.184  20.200  0.00  0.00    +0.000 HD
BRANCH   7  10
ATOM     10  C   UNL     1       0.815  10.101  19.567  0.00  0.00    +0.000 C 
ATOM     11  C   UNL     1      -0.537  10.082  18.863  0.00  0.00    +0.000 C 
ATOM     12  C   UNL     1      -1.279  11.258  19.481  0.00  0.00    +0.000 C 
ATOM     13  C   UNL     1      -0.735  11.390  20.904  0.00  0.00    +0.000 C 
ATOM     14  C   UNL     1       0.436  10.418  21.010  0.00  0.00    +0.000 C 
ENDBRANCH   7  10
ENDBRANCH   1   2
BRANCH   1  15
ATOM     15  N   UNL     1       4.877   5.344  18.805  0.00  0.00    +0.000 N 
ATOM     16  H   UNL     1       5.061   6.314  19.093  0.00  0.00    +0.000 HD
BRANCH  15  22
ATOM     17  C   UNL     1       6.612   5.685  17.041  0.00  0.00    +0.000 A 
ATOM     18  C   UNL     1       7.070   5.379  15.741  0.00  0.00    +0.000 A 
ATOM     19  C   UNL     1       6.349   4.539  14.894  0.00  0.00    +0.000 A 
ATOM     20  C   UNL     1       5.169   3.970  15.343  0.00  0.00    +0.000 A 
ATOM     21  C   UNL     1       4.711   4.248  16.632  0.00  0.00    +0.000 A 
ATOM     22  C   UNL     1       5.388   5.135  17.497  0.00  0.00    +0.000 A 
BRANCH  17  23
ATOM     23  C   UNL     1       7.497   6.622  17.805  0.00  0.00    +0.000 C 
ATOM     24  O   UNL     1       7.895   6.381  18.939  0.00  0.00    +0.000 OA
BRANCH  23  26
ATOM     25  C   UNL     1       8.013   8.906  17.884  0.00  0.00    +0.000 C 
ATOM     26  O   UNL     1       7.824   7.728  17.092  0.00  0.00    +0.000 OA
ENDBRANCH  23  26
ENDBRANCH  17  23
ENDBRANCH  15  22
ENDBRANCH   1  15
TORSDOF 6
ENDMDL
MODEL 4
REMARK VINA RESULT:      -7.0      4.269      7.709
REMARK  Name = 
REMARK  7 active torsions:
REMARK  status: ('A' for Active; 'I' for Inactive)
REMARK    1  A    between atoms: C_1  and  O_2
REMARK    2  A    between atoms: O_2  and  C_3
REMARK    3  A    between atoms: C_3  and  C_5
REMARK    4  A    between atoms: C_10  and  N_11
REMARK    5  A    between atoms: N_11  and  C_12
REMARK    6  A    between atoms: C_12  and  C_13
REMARK    7  A    between atoms: N_18  and  C_19
REMARK                            x       y       z     vdW  Elec       q    Type
REMARK                         _______ _______ _______ _____ _____    ______ ____
ROOT
ATOM      1  C   UNL     1       2.894   5.525  19.851  0.00  0.00    +0.000 C 
ENDROOT
BRANCH   1   2
ATOM      2  C   UNL     1       2.364   6.941  19.643  0.00  0.00    +0.000 C 
ATOM      3  O   UNL     1       2.498   7.538  18.577  0.00  0.00    +0.000 OA
ATOM      4  N   UNL     1       1.727   7.465  20.757  0.00  0.00    +0.000 N 
ATOM      5  C   UNL     1       1.091   8.672  20.883  0.00  0.00    +0.000 C 
ATOM      6  O   UNL     1       0.672   9.030  21.980  0.00  0.00    +0.000 OA
ATOM      7  N   UNL     1       0.962   9.400  19.741  0.00  0.00    +0.000 N 
ATOM      8  H   UNL     1       1.796   6.967  21.634  0.00  0.00    +0.000 HD
ATOM      9  H   UNL     1       1.367   9.009  18.893  0.00  0.00    +0.000 HD
BRANCH   7  10
ATOM     10  C   UNL     1       0.382  10.721  19.708  0.00  0.00    +0.000 C 
ATOM     11  C   UNL     1       1.200  11.691  18.863  0.00  0.00    +0.000 C 
ATOM     12  C   UNL     1       0.232  12.834  18.592  0.00  0.00    +0.000 C 
ATOM     13  C   UNL     1      -1.161  12.203  18.581  0.00  0.00    +0.000 C 
ATOM     14  C   UNL     1      -0.984  10.757  19.031  0.00  0.00    +0.000 C 
ENDBRANCH   7  10
ENDBRANCH   1   2
BRANCH   1  15
ATOM     15  N   UNL     1       4.359   5.486  19.706  0.00  0.00    +0.000 N 
ATOM     16  H   UNL     1       4.773   6.410  19.889  0.00  0.00    +0.000 HD
BRANCH  15  22
ATOM     17  C   UNL     1       6.183   5.046  18.057  0.00  0.00    +0.000 A 
ATOM     18  C   UNL     1       6.564   4.489  16.817  0.00  0.00    +0.000 A 
ATOM     19  C   UNL     1       5.633   3.887  15.973  0.00  0.00    +0.000 A 
ATOM     20  C   UNL     1       4.308   3.808  16.368  0.00  0.00    +0.000 A 
ATOM     21  C   UNL     1       3.918   4.337  17.600  0.00  0.00    +0.000 A 
ATOM     22  C   UNL     1       4.824   5.001  18.455  0.00  0.00    +0.000 A 
BRANCH  17  23
ATOM     23  C   UNL     1       7.306   5.675  18.825  0.00  0.00    +0.000 C 
ATOM     24  O   UNL     1       7.447   5.526  20.033  0.00  0.00    +0.000 OA
BRANCH  23  26
ATOM     25  C   UNL     1       7.819   7.774  17.920  0.00  0.00    +0.000 C 
ATOM     26  O   UNL     1       8.146   6.384  18.032  0.00  0.00    +0.000 OA
ENDBRANCH  23  26
ENDBRANCH  17  23
ENDBRANCH  15  22
ENDBRANCH   1  15
TORSDOF 6
ENDMDL
MODEL 5
REMARK VINA RESULT:      -7.0      3.952      7.272
REMARK  Name = 
REMARK  7 active torsions:
REMARK  status: ('A' for Active; 'I' for Inactive)
REMARK    1  A    between atoms: C_1  and  O_2
REMARK    2  A    between atoms: O_2  and  C_3
REMARK    3  A    between atoms: C_3  and  C_5
REMARK    4  A    between atoms: C_10  and  N_11
REMARK    5  A    between atoms: N_11  and  C_12
REMARK    6  A    between atoms: C_12  and  C_13
REMARK    7  A    between atoms: N_18  and  C_19
REMARK                            x       y       z     vdW  Elec       q    Type
REMARK                         _______ _______ _______ _____ _____    ______ ____
ROOT
ATOM      1  C   UNL     1       3.154   5.057  19.302  0.00  0.00    +0.000 C 
ENDROOT
BRANCH   1   2
ATOM      2  C   UNL     1       2.565   6.459  19.183  0.00  0.00    +0.000 C 
ATOM      3  O   UNL     1       2.464   7.035  18.101  0.00  0.00    +0.000 OA
ATOM      4  N   UNL     1       2.160   6.997  20.394  0.00  0.00    +0.000 N 
ATOM      5  C   UNL     1       1.539   8.197  20.627  0.00  0.00    +0.000 C 
ATOM      6  O   UNL     1       1.348   8.571  21.780  0.00  0.00    +0.000 OA
ATOM      7  N   UNL     1       1.164   8.897  19.523  0.00  0.00    +0.000 N 
ATOM      8  H   UNL     1       2.417   6.519  21.247  0.00  0.00    +0.000 HD
ATOM      9  H   UNL     1       1.394   8.494  18.617  0.00  0.00    +0.000 HD
BRANCH   7  10
ATOM     10  C   UNL     1       0.563  10.207  19.587  0.00  0.00    +0.000 C 
ATOM     11  C   UNL     1       1.403  11.264  18.877  0.00  0.00    +0.000 C 
ATOM     12  C   UNL     1       0.429  12.415  18.668  0.00  0.00    +0.000 C 
ATOM     13  C   UNL     1      -0.951  11.771  18.530  0.00  0.00    +0.000 C 
ATOM     14  C   UNL     1      -0.770  10.290  18.850  0.00  0.00    +0.000 C 
ENDBRANCH   7  10
ENDBRANCH   1   2
BRANCH   1  15
ATOM     15  N   UNL     1       3.965   4.726  18.119  0.00  0.00    +0.000 N 
ATOM     16  H   UNL     1       3.983   3.710  17.955  0.00  0.00    +0.000 HD
BRANCH  15  22
ATOM     17  C   UNL     1       5.929   5.818  17.027  0.00  0.00    +0.000 A 
ATOM     18  C   UNL     1       7.236   6.334  17.161  0.00  0.00    +0.000 A 
ATOM     19  C   UNL     1       7.918   6.280  18.375  0.00  0.00    +0.000 A 
ATOM     20  C   UNL     1       7.295   5.731  19.483  0.00  0.00    +0.000 A 
ATOM     21  C   UNL     1       5.996   5.232  19.371  0.00  0.00    +0.000 A 
ATOM     22  C   UNL     1       5.295   5.222  18.146  0.00  0.00    +0.000 A 
BRANCH  17  23
ATOM     23  C   UNL     1       5.354   5.936  15.648  0.00  0.00    +0.000 C 
ATOM     24  O   UNL     1       5.168   7.016  15.099  0.00  0.00    +0.000 OA
BRANCH  23  26
ATOM     25  C   UNL     1       6.241   4.124  14.456  0.00  0.00    +0.000 C 
ATOM     26  O   UNL     1       5.104   4.729  15.083  0.00  0.00    +0.000 OA
ENDBRANCH  23  26
ENDBRANCH  17  23
ENDBRANCH  15  22
ENDBRANCH   1  15
TORSDOF 6
ENDMDL
MODEL 6
REMARK VINA RESULT:      -7.0      4.680      7.903
REMARK  Name = 
REMARK  7 active torsions:
REMARK  status: ('A' for Active; 'I' for Inactive)
REMARK    1  A    between atoms: C_1  and  O_2
REMARK    2  A    between atoms: O_2  and  C_3
REMARK    3  A    between atoms: C_3  and  C_5
REMARK    4  A    between atoms: C_10  and  N_11
REMARK    5  A    between atoms: N_11  and  C_12
REMARK    6  A    between atoms: C_12  and  C_13
REMARK    7  A    between atoms: N_18  and  C_19
REMARK                            x       y       z     vdW  Elec       q    Type
REMARK                         _______ _______ _______ _____ _____    ______ ____
ROOT
ATOM      1  C   UNL     1       2.496   6.242  19.796  0.00  0.00    +0.000 C 
ENDROOT
BRANCH   1   2
ATOM      2  C   UNL     1       2.004   7.676  19.967  0.00  0.00    +0.000 C 
ATOM      3  O   UNL     1       1.865   8.437  19.012  0.00  0.00    +0.000 OA
ATOM      4  N   UNL     1       1.731   8.017  21.283  0.00  0.00    +0.000 N 
ATOM      5  C   UNL     1       1.220   9.192  21.769  0.00  0.00    +0.000 C 
ATOM      6  O   UNL     1       1.144   9.369  22.981  0.00  0.00    +0.000 OA
ATOM      7  N   UNL     1       0.814  10.096  20.836  0.00  0.00    +0.000 N 
ATOM      8  H   UNL     1       2.017   7.383  22.017  0.00  0.00    +0.000 HD
ATOM      9  H   UNL     1       0.946   9.844  19.858  0.00  0.00    +0.000 HD
BRANCH   7  10
ATOM     10  C   UNL     1       0.318  11.408  21.173  0.00  0.00    +0.000 C 
ATOM     11  C   UNL     1       1.082  12.516  20.457  0.00  0.00    +0.000 C 
ATOM     12  C   UNL     1       0.161  13.722  20.578  0.00  0.00    +0.000 C 
ATOM     13  C   UNL     1      -1.259  13.156  20.618  0.00  0.00    +0.000 C 
ATOM     14  C   UNL     1      -1.118  11.640  20.712  0.00  0.00    +0.000 C 
ENDBRANCH   7  10
ENDBRANCH   1   2
BRANCH   1  15
ATOM     15  N   UNL     1       2.246   5.761  18.427  0.00  0.00    +0.000 N 
ATOM     16  H   UNL     1       1.595   4.965  18.428  0.00  0.00    +0.000 HD
BRANCH  15  22
ATOM     17  C   UNL     1       3.715   4.092  17.289  0.00  0.00    +0.000 A 
ATOM     18  C   UNL     1       4.869   3.849  16.513  0.00  0.00    +0.000 A 
ATOM     19  C   UNL     1       5.716   4.884  16.125  0.00  0.00    +0.000 A 
ATOM     20  C   UNL     1       5.410   6.186  16.485  0.00  0.00    +0.000 A 
ATOM     21  C   UNL     1       4.263   6.445  17.237  0.00  0.00    +0.000 A 
ATOM     22  C   UNL     1       3.411   5.416  17.692  0.00  0.00    +0.000 A 
BRANCH  17  23
ATOM     23  C   UNL     1       2.933   2.862  17.637  0.00  0.00    +0.000 C 
ATOM     24  O   UNL     1       3.464   1.785  17.881  0.00  0.00    +0.000 OA
BRANCH  23  26
ATOM     25  C   UNL     1       0.921   2.422  18.754  0.00  0.00    +0.000 C 
ATOM     26  O   UNL     1       1.597   3.090  17.683  0.00  0.00    +0.000 OA
ENDBRANCH  23  26
ENDBRANCH  17  23
ENDBRANCH  15  22
ENDBRANCH   1  15
TORSDOF 6
ENDMDL
MODEL 7
REMARK VINA RESULT:      -7.0      3.989      5.432
REMARK  Name = 
REMARK  7 active torsions:
REMARK  status: ('A' for Active; 'I' for Inactive)
REMARK    1  A    between atoms: C_1  and  O_2
REMARK    2  A    between atoms: O_2  and  C_3
REMARK    3  A    between atoms: C_3  and  C_5
REMARK    4  A    between atoms: C_10  and  N_11
REMARK    5  A    between atoms: N_11  and  C_12
REMARK    6  A    between atoms: C_12  and  C_13
REMARK    7  A    between atoms: N_18  and  C_19
REMARK                            x       y       z     vdW  Elec       q    Type
REMARK                         _______ _______ _______ _____ _____    ______ ____
ROOT
ATOM      1  C   UNL     1       1.663   5.837  20.636  0.00  0.00    +0.000 C 
ENDROOT
BRANCH   1   2
ATOM      2  C   UNL     1       2.592   5.324  19.539  0.00  0.00    +0.000 C 
ATOM      3  O   UNL     1       2.164   4.884  18.474  0.00  0.00    +0.000 OA
ATOM      4  N   UNL     1       3.937   5.413  19.863  0.00  0.00    +0.000 N 
ATOM      5  C   UNL     1       5.021   5.101  19.086  0.00  0.00    +0.000 C 
ATOM      6  O   UNL     1       6.149   5.133  19.570  0.00  0.00    +0.000 OA
ATOM      7  N   UNL     1       4.753   4.777  17.791  0.00  0.00    +0.000 N 
ATOM      8  H   UNL     1       4.192   5.644  20.814  0.00  0.00    +0.000 HD
ATOM      9  H   UNL     1       3.775   4.765  17.509  0.00  0.00    +0.000 HD
BRANCH   7  10
ATOM     10  C   UNL     1       5.768   4.356  16.857  0.00  0.00    +0.000 C 
ATOM     11  C   UNL     1       5.173   3.804  15.566  0.00  0.00    +0.000 C 
ATOM     12  C   UNL     1       6.338   3.846  14.588  0.00  0.00    +0.000 C 
ATOM     13  C   UNL     1       7.210   5.020  15.032  0.00  0.00    +0.000 C 
ATOM     14  C   UNL     1       6.636   5.507  16.359  0.00  0.00    +0.000 C 
ENDBRANCH   7  10
ENDBRANCH   1   2
BRANCH   1  15
ATOM     15  N   UNL     1       1.979   7.233  20.981  0.00  0.00    +0.000 N 
ATOM     16  H   UNL     1       1.636   7.468  21.922  0.00  0.00    +0.000 HD
BRANCH  15  22
ATOM     17  C   UNL     1       0.523   9.168  20.367  0.00  0.00    +0.000 A 
ATOM     18  C   UNL     1       0.156  10.126  19.397  0.00  0.00    +0.000 A 
ATOM     19  C   UNL     1       0.748  10.149  18.136  0.00  0.00    +0.000 A 
ATOM     20  C   UNL     1       1.738   9.229  17.832  0.00  0.00    +0.000 A 
ATOM     21  C   UNL     1       2.125   8.286  18.785  0.00  0.00    +0.000 A 
ATOM     22  C   UNL     1       1.510   8.200  20.053  0.00  0.00    +0.000 A 
BRANCH  17  23
ATOM     23  C   UNL     1      -0.231   9.272  21.657  0.00  0.00    +0.000 C 
ATOM     24  O   UNL     1      -0.727   8.300  22.215  0.00  0.00    +0.000 OA
BRANCH  23  26
ATOM     25  C   UNL     1      -1.202  10.738  23.205  0.00  0.00    +0.000 C 
ATOM     26  O   UNL     1      -0.267  10.539  22.139  0.00  0.00    +0.000 OA
ENDBRANCH  23  26
ENDBRANCH  17  23
ENDBRANCH  15  22
ENDBRANCH   1  15
TORSDOF 6
ENDMDL
MODEL 8
REMARK VINA RESULT:      -7.0      4.544      7.721
REMARK  Name = 
REMARK  7 active torsions:
REMARK  status: ('A' for Active; 'I' for Inactive)
REMARK    1  A    between atoms: C_1  and  O_2
REMARK    2  A    between atoms: O_2  and  C_3
REMARK    3  A    between atoms: C_3  and  C_5
REMARK    4  A    between atoms: C_10  and  N_11
REMARK    5  A    between atoms: N_11  and  C_12
REMARK    6  A    between atoms: C_12  and  C_13
REMARK    7  A    between atoms: N_18  and  C_19
REMARK                            x       y       z     vdW  Elec       q    Type
REMARK                         _______ _______ _______ _____ _____    ______ ____
ROOT
ATOM      1  C   UNL     1       2.565   5.898  19.895  0.00  0.00    +0.000 C 
ENDROOT
BRANCH   1   2
ATOM      2  C   UNL     1       2.109   7.354  19.950  0.00  0.00    +0.000 C 
ATOM      3  O   UNL     1       2.045   8.056  18.943  0.00  0.00    +0.000 OA
ATOM      4  N   UNL     1       1.776   7.784  21.225  0.00  0.00    +0.000 N 
ATOM      5  C   UNL     1       1.276   9.001  21.608  0.00  0.00    +0.000 C 
ATOM      6  O   UNL     1       1.140   9.257  22.801  0.00  0.00    +0.000 OA
ATOM      7  N   UNL     1       0.950   9.855  20.600  0.00  0.00    +0.000 N 
ATOM      8  H   UNL     1       2.002   7.190  22.011  0.00  0.00    +0.000 HD
ATOM      9  H   UNL     1       1.126   9.539  19.648  0.00  0.00    +0.000 HD
BRANCH   7  10
ATOM     10  C   UNL     1       0.477  11.199  20.827  0.00  0.00    +0.000 C 
ATOM     11  C   UNL     1       1.112  12.205  19.873  0.00  0.00    +0.000 C 
ATOM     12  C   UNL     1       0.191  13.413  19.961  0.00  0.00    +0.000 C 
ATOM     13  C   UNL     1      -1.198  12.854  20.271  0.00  0.00    +0.000 C 
ATOM     14  C   UNL     1      -1.013  11.364  20.543  0.00  0.00    +0.000 C 
ENDBRANCH   7  10
ENDBRANCH   1   2
BRANCH   1  15
ATOM     15  N   UNL     1       4.023   5.812  19.710  0.00  0.00    +0.000 N 
ATOM     16  H   UNL     1       4.479   6.702  19.952  0.00  0.00    +0.000 HD
BRANCH  15  22
ATOM     17  C   UNL     1       4.473   4.053  17.994  0.00  0.00    +0.000 A 
ATOM     18  C   UNL     1       4.848   3.745  16.669  0.00  0.00    +0.000 A 
ATOM     19  C   UNL     1       5.180   4.744  15.756  0.00  0.00    +0.000 A 
ATOM     20  C   UNL     1       5.117   6.072  16.147  0.00  0.00    +0.000 A 
ATOM     21  C   UNL     1       4.731   6.394  17.449  0.00  0.00    +0.000 A 
ATOM     22  C   UNL     1       4.439   5.406  18.414  0.00  0.00    +0.000 A 
BRANCH  17  23
ATOM     23  C   UNL     1       4.174   2.858  18.847  0.00  0.00    +0.000 C 
ATOM     24  O   UNL     1       4.697   2.676  19.940  0.00  0.00    +0.000 OA
BRANCH  23  26
ATOM     25  C   UNL     1       1.959   2.096  18.910  0.00  0.00    +0.000 C 
ATOM     26  O   UNL     1       3.248   2.038  18.289  0.00  0.00    +0.000 OA
ENDBRANCH  23  26
ENDBRANCH  17  23
ENDBRANCH  15  22
ENDBRANCH   1  15
TORSDOF 6
ENDMDL
MODEL 9
REMARK VINA RESULT:      -6.9      4.960      8.229
REMARK  Name = 
REMARK  7 active torsions:
REMARK  status: ('A' for Active; 'I' for Inactive)
REMARK    1  A    between atoms: C_1  and  O_2
REMARK    2  A    between atoms: O_2  and  C_3
REMARK    3  A    between atoms: C_3  and  C_5
REMARK    4  A    between atoms: C_10  and  N_11
REMARK    5  A    between atoms: N_11  and  C_12
REMARK    6  A    between atoms: C_12  and  C_13
REMARK    7  A    between atoms: N_18  and  C_19
REMARK                            x       y       z     vdW  Elec       q    Type
REMARK                         _______ _______ _______ _____ _____    ______ ____
ROOT
ATOM      1  C   UNL     1       2.376   7.246  19.159  0.00  0.00    +0.000 C 
ENDROOT
BRANCH   1   2
ATOM      2  C   UNL     1       1.651   8.458  19.737  0.00  0.00    +0.000 C 
ATOM      3  O   UNL     1       1.075   9.276  19.023  0.00  0.00    +0.000 OA
ATOM      4  N   UNL     1       1.706   8.532  21.120  0.00  0.00    +0.000 N 
ATOM      5  C   UNL     1       1.112   9.448  21.948  0.00  0.00    +0.000 C 
ATOM      6  O   UNL     1       1.356   9.433  23.150  0.00  0.00    +0.000 OA
ATOM      7  N   UNL     1       0.263  10.328  21.350  0.00  0.00    +0.000 N 
ATOM      8  H   UNL     1       2.326   7.904  21.615  0.00  0.00    +0.000 HD
ATOM      9  H   UNL     1       0.156  10.256  20.340  0.00  0.00    +0.000 HD
BRANCH   7  10
ATOM     10  C   UNL     1      -0.390  11.400  22.060  0.00  0.00    +0.000 C 
ATOM     11  C   UNL     1      -1.225  12.281  21.137  0.00  0.00    +0.000 C 
ATOM     12  C   UNL     1      -2.147  13.026  22.091  0.00  0.00    +0.000 C 
ATOM     13  C   UNL     1      -2.366  12.085  23.277  0.00  0.00    +0.000 C 
ATOM     14  C   UNL     1      -1.419  10.906  23.072  0.00  0.00    +0.000 C 
ENDBRANCH   7  10
ENDBRANCH   1   2
BRANCH   1  15
ATOM     15  N   UNL     1       2.803   6.330  20.230  0.00  0.00    +0.000 N 
ATOM     16  H   UNL     1       3.807   6.431  20.424  0.00  0.00    +0.000 HD
BRANCH  15  22
ATOM     17  C   UNL     1       3.402   4.057  19.383  0.00  0.00    +0.000 A 
ATOM     18  C   UNL     1       3.040   2.700  19.246  0.00  0.00    +0.000 A 
ATOM     19  C   UNL     1       1.817   2.223  19.711  0.00  0.00    +0.000 A 
ATOM     20  C   UNL     1       0.944   3.091  20.347  0.00  0.00    +0.000 A 
ATOM     21  C   UNL     1       1.295   4.432  20.507  0.00  0.00    +0.000 A 
ATOM     22  C   UNL     1       2.502   4.961  20.001  0.00  0.00    +0.000 A 
BRANCH  17  23
ATOM     23  C   UNL     1       4.740   4.403  18.804  0.00  0.00    +0.000 C 
ATOM     24  O   UNL     1       5.549   5.118  19.386  0.00  0.00    +0.000 OA
BRANCH  23  26
ATOM     25  C   UNL     1       5.972   4.444  16.812  0.00  0.00    +0.000 C 
ATOM     26  O   UNL     1       4.956   3.815  17.602  0.00  0.00    +0.000 OA
ENDBRANCH  23  26
ENDBRANCH  17  23
ENDBRANCH  15  22
ENDBRANCH   1  15
TORSDOF 6
ENDMDL
