MODEL 1
REMARK VINA RESULT:      -7.6      0.000      0.000
REMARK  Name = 
REMARK  8 active torsions:
REMARK  status: ('A' for Active; 'I' for Inactive)
REMARK    1  A    between atoms: N_1  and  S_2
REMARK    2  A    between atoms: S_2  and  C_5
REMARK    3  A    between atoms: C_8  and  C_9
REMARK    4  A    between atoms: C_9  and  C_10
REMARK    5  A    between atoms: C_10  and  N_11
REMARK    6  A    between atoms: N_11  and  C_12
REMARK    7  A    between atoms: C_12  and  N_14
REMARK    8  A    between atoms: C_15  and  C_17
REMARK                            x       y       z     vdW  Elec       q    Type
REMARK                         _______ _______ _______ _____ _____    ______ ____
ROOT
ATOM      1  N   UNL     1       1.620   5.128  20.287  0.00  0.00    +0.000 N 
ATOM      2  H   UNL     1       1.029   4.861  21.091  0.00  0.00    +0.000 HD
ENDROOT
BRANCH   1   3
ATOM      3  C   UNL     1       1.878   4.161  19.272  0.00  0.00    +0.000 C 
ATOM      4 SE   UNL     1       0.962   2.650  19.245  0.00  0.00    +0.000 Se
BRANCH   3   5
ATOM      5  N   UNL     1       2.953   4.434  18.371  0.00  0.00    +0.000 N 
ATOM      6  C   UNL     1       4.244   3.998  18.488  0.00  0.00    +0.000 C 
ATOM      7  O   UNL     1       4.565   3.238  19.389  0.00  0.00    +0.000 OA
ATOM      8  H   UNL     1       2.700   5.020  17.569  0.00  0.00    +0.000 HD
BRANCH   6   9
ATOM      9  C   UNL     1       5.273   4.389  17.483  0.00  0.00    +0.000 A 
ATOM     10  C   UNL     1       6.250   5.400  17.740  0.00  0.00    +0.000 A 
ATOM     11  C   UNL     1       7.150   5.796  16.738  0.00  0.00    +0.000 A 
ATOM     12  C   UNL     1       7.038   5.186  15.495  0.00  0.00    +0.000 A 
ATOM     13  C   UNL     1       6.141   4.214  15.252  0.00  0.00    +0.000 A 
ATOM     14  C   UNL     1       5.249   3.765  16.214  0.00  0.00    +0.000 A 
ATOM     15  O   UNL     1       6.233   3.833  13.978  0.00  0.00    +0.000 OA
ATOM     16  C   UNL     1       7.200   4.632  13.375  0.00  0.00    +0.000 C 
ATOM     17  O   UNL     1       7.721   5.445  14.379  0.00  0.00    +0.000 OA
ENDBRANCH   6   9
ENDBRANCH   3   5
ENDBRANCH   1   3
BRANCH   1  18
ATOM     18  C   UNL     1       2.009   6.505  20.118  0.00  0.00    +0.000 C 
BRANCH  18  19
ATOM     19  C   UNL     1       1.401   7.398  21.199  0.00  0.00    +0.000 C 
BRANCH  19  23
ATOM     20  C   UNL     1       0.027  11.084  19.440  0.00  0.00    +0.000 A 
ATOM     21  C   UNL     1       0.961  10.291  18.761  0.00  0.00    +0.000 A 
ATOM     22  C   UNL     1       1.410   9.097  19.331  0.00  0.00    +0.000 A 
ATOM     23  C   UNL     1       0.922   8.685  20.584  0.00  0.00    +0.000 A 
ATOM     24  C   UNL     1      -0.010   9.490  21.258  0.00  0.00    +0.000 A 
ATOM     25  C   UNL     1      -0.449  10.684  20.690  0.00  0.00    +0.000 A 
BRANCH  20  26
ATOM     26  S   UNL     1      -0.605  12.589  18.716  0.00  0.00    +0.000 S 
ATOM     27  O   UNL     1       0.494  13.594  18.333  0.00  0.00    +0.000 OA
ATOM     28  O   UNL     1      -1.509  13.403  19.654  0.00  0.00    +0.000 OA
BRANCH  26  29
ATOM     29  N   UNL     1      -1.536  12.355  17.235  0.00  0.00    +0.000 NA
ATOM     30  H   UNL     1      -1.490  13.233  16.674  0.00  0.00    +0.000 HD
ATOM     31  H   UNL     1      -2.532  12.203  17.514  0.00  0.00    +0.000 HD
ENDBRANCH  26  29
ENDBRANCH  20  26
ENDBRANCH  19  23
ENDBRANCH  18  19
ENDBRANCH   1  18
TORSDOF 8
ENDMDL
MODEL 2
REMARK VINA RESULT:      -7.5      2.905      9.619
REMARK  Name = 
REMARK  8 active torsions:
REMARK  status: ('A' for Active; 'I' for Inactive)
REMARK    1  A    between atoms: N_1  and  S_2
REMARK    2  A    between atoms: S_2  and  C_5
REMARK    3  A    between atoms: C_8  and  C_9
REMARK    4  A    between atoms: C_9  and  C_10
REMARK    5  A    between atoms: C_10  and  N_11
REMARK    6  A    between atoms: N_11  and  C_12
REMARK    7  A    between atoms: C_12  and  N_14
REMARK    8  A    between atoms: C_15  and  C_17
REMARK                            x       y       z     vdW  Elec       q    Type
REMARK                         _______ _______ _______ _____ _____    ______ ____
ROOT
ATOM      1  N   UNL     1       2.123   6.757  20.775  0.00  0.00    +0.000 N 
ATOM      2  H   UNL     1       2.791   6.948  21.540  0.00  0.00    +0.000 HD
ENDROOT
BRANCH   1   3
ATOM      3  C   UNL     1       1.848   7.788  19.829  0.00  0.00    +0.000 C 
ATOM      4 SE   UNL     1       2.719   7.823  18.292  0.00  0.00    +0.000 Se
BRANCH   3   5
ATOM      5  N   UNL     1       0.931   8.809  20.226  0.00  0.00    +0.000 N 
ATOM      6  C   UNL     1       0.877   9.425  21.446  0.00  0.00    +0.000 C 
ATOM      7  O   UNL     1       1.710   9.178  22.305  0.00  0.00    +0.000 OA
ATOM      8  H   UNL     1       0.257   9.082  19.504  0.00  0.00    +0.000 HD
BRANCH   6   9
ATOM      9  C   UNL     1      -0.159  10.457  21.732  0.00  0.00    +0.000 A 
ATOM     10  C   UNL     1      -0.781  10.584  23.012  0.00  0.00    +0.000 A 
ATOM     11  C   UNL     1      -1.812  11.516  23.217  0.00  0.00    +0.000 A 
ATOM     12  C   UNL     1      -2.210  12.285  22.131  0.00  0.00    +0.000 A 
ATOM     13  C   UNL     1      -1.612  12.191  20.930  0.00  0.00    +0.000 A 
ATOM     14  C   UNL     1      -0.571  11.310  20.681  0.00  0.00    +0.000 A 
ATOM     15  O   UNL     1      -2.211  13.016  20.070  0.00  0.00    +0.000 OA
ATOM     16  C   UNL     1      -3.266  13.624  20.745  0.00  0.00    +0.000 C 
ATOM     17  O   UNL     1      -3.204  13.171  22.061  0.00  0.00    +0.000 OA
ENDBRANCH   6   9
ENDBRANCH   3   5
ENDBRANCH   1   3
BRANCH   1  18
ATOM     18  C   UNL     1       1.635   5.416  20.576  0.00  0.00    +0.000 C 
BRANCH  18  19
ATOM     19  C   UNL     1       2.761   4.387  20.679  0.00  0.00    +0.000 C 
BRANCH  19  23
ATOM     20  C   UNL     1       5.293   4.659  17.204  0.00  0.00    +0.000 A 
ATOM     21  C   UNL     1       5.758   5.113  18.444  0.00  0.00    +0.000 A 
ATOM     22  C   UNL     1       4.937   5.029  19.571  0.00  0.00    +0.000 A 
ATOM     23  C   UNL     1       3.647   4.482  19.466  0.00  0.00    +0.000 A 
ATOM     24  C   UNL     1       3.188   4.033  18.217  0.00  0.00    +0.000 A 
ATOM     25  C   UNL     1       4.006   4.127  17.094  0.00  0.00    +0.000 A 
BRANCH  20  26
ATOM     26  S   UNL     1       6.336   4.706  15.754  0.00  0.00    +0.000 S 
ATOM     27  O   UNL     1       7.836   4.625  16.075  0.00  0.00    +0.000 OA
ATOM     28  O   UNL     1       6.222   6.007  14.945  0.00  0.00    +0.000 OA
BRANCH  26  29
ATOM     29  N   UNL     1       6.049   3.399  14.604  0.00  0.00    +0.000 NA
ATOM     30  H   UNL     1       5.894   2.517  15.139  0.00  0.00    +0.000 HD
ATOM     31  H   UNL     1       6.921   3.283  14.040  0.00  0.00    +0.000 HD
ENDBRANCH  26  29
ENDBRANCH  20  26
ENDBRANCH  19  23
ENDBRANCH  18  19
ENDBRANCH   1  18
TORSDOF 8
ENDMDL
MODEL 3
REMARK VINA RESULT:      -7.5      3.494      9.644
REMARK  Name = 
REMARK  8 active torsions:
REMARK  status: ('A' for Active; 'I' for Inactive)
REMARK    1  A    between atoms: N_1  and  S_2
REMARK    2  A    between atoms: S_2  and  C_5
REMARK    3  A    between atoms: C_8  and  C_9
REMARK    4  A    between atoms: C_9  and  C_10
REMARK    5  A    between atoms: C_10  and  N_11
REMARK    6  A    between atoms: N_11  and  C_12
REMARK    7  A    between atoms: C_12  and  N_14
REMARK    8  A    between atoms: C_15  and  C_17
REMARK                            x       y       z     vdW  Elec       q    Type
REMARK                         _______ _______ _______ _____ _____    ______ ____
ROOT
ATOM      1  N   UNL     1       1.709   8.870  21.014  0.00  0.00    +0.000 N 
ATOM      2  H   UNL     1       2.566   9.229  21.465  0.00  0.00    +0.000 HD
ENDROOT
BRANCH   1   3
ATOM      3  C   UNL     1       0.441   9.307  21.499  0.00  0.00    +0.000 C 
ATOM      4 SE   UNL     1       0.163   9.432  23.240  0.00  0.00    +0.000 Se
BRANCH   3   5
ATOM      5  N   UNL     1      -0.584   9.535  20.530  0.00  0.00    +0.000 N 
ATOM      6  C   UNL     1      -0.591  10.504  19.565  0.00  0.00    +0.000 C 
ATOM      7  O   UNL     1       0.373  11.238  19.413  0.00  0.00    +0.000 OA
ATOM      8  H   UNL     1      -1.381   8.893  20.593  0.00  0.00    +0.000 HD
BRANCH   6   9
ATOM      9  C   UNL     1      -1.748  10.644  18.637  0.00  0.00    +0.000 A 
ATOM     10  C   UNL     1      -1.751  10.077  17.325  0.00  0.00    +0.000 A 
ATOM     11  C   UNL     1      -2.827  10.302  16.451  0.00  0.00    +0.000 A 
ATOM     12  C   UNL     1      -3.866  11.105  16.903  0.00  0.00    +0.000 A 
ATOM     13  C   UNL     1      -3.885  11.621  18.145  0.00  0.00    +0.000 A 
ATOM     14  C   UNL     1      -2.863  11.407  19.058  0.00  0.00    +0.000 A 
ATOM     15  O   UNL     1      -4.976  12.371  18.298  0.00  0.00    +0.000 OA
ATOM     16  C   UNL     1      -5.655  12.370  17.082  0.00  0.00    +0.000 C 
ATOM     17  O   UNL     1      -4.946  11.520  16.237  0.00  0.00    +0.000 OA
ENDBRANCH   6   9
ENDBRANCH   3   5
ENDBRANCH   1   3
BRANCH   1  18
ATOM     18  C   UNL     1       1.814   8.092  19.805  0.00  0.00    +0.000 C 
BRANCH  18  19
ATOM     19  C   UNL     1       2.133   6.628  20.104  0.00  0.00    +0.000 C 
BRANCH  19  23
ATOM     20  C   UNL     1       5.381   5.307  17.600  0.00  0.00    +0.000 A 
ATOM     21  C   UNL     1       4.533   6.331  17.161  0.00  0.00    +0.000 A 
ATOM     22  C   UNL     1       3.477   6.758  17.971  0.00  0.00    +0.000 A 
ATOM     23  C   UNL     1       3.268   6.168  19.229  0.00  0.00    +0.000 A 
ATOM     24  C   UNL     1       4.121   5.139  19.658  0.00  0.00    +0.000 A 
ATOM     25  C   UNL     1       5.168   4.709  18.844  0.00  0.00    +0.000 A 
BRANCH  20  26
ATOM     26  S   UNL     1       6.770   4.772  16.612  0.00  0.00    +0.000 S 
ATOM     27  O   UNL     1       7.394   5.898  15.772  0.00  0.00    +0.000 OA
ATOM     28  O   UNL     1       6.417   3.708  15.561  0.00  0.00    +0.000 OA
BRANCH  26  29
ATOM     29  N   UNL     1       8.114   4.103  17.540  0.00  0.00    +0.000 NA
ATOM     30  H   UNL     1       8.677   3.491  16.909  0.00  0.00    +0.000 HD
ATOM     31  H   UNL     1       7.706   3.501  18.290  0.00  0.00    +0.000 HD
ENDBRANCH  26  29
ENDBRANCH  20  26
ENDBRANCH  19  23
ENDBRANCH  18  19
ENDBRANCH   1  18
TORSDOF 8
ENDMDL
MODEL 4
REMARK VINA RESULT:      -7.5      3.061      8.029
REMARK  Name = 
REMARK  8 active torsions:
REMARK  status: ('A' for Active; 'I' for Inactive)
REMARK    1  A    between atoms: N_1  and  S_2
REMARK    2  A    between atoms: S_2  and  C_5
REMARK    3  A    between atoms: C_8  and  C_9
REMARK    4  A    between atoms: C_9  and  C_10
REMARK    5  A    between atoms: C_10  and  N_11
REMARK    6  A    between atoms: N_11  and  C_12
REMARK    7  A    between atoms: C_12  and  N_14
REMARK    8  A    between atoms: C_15  and  C_17
REMARK                            x       y       z     vdW  Elec       q    Type
REMARK                         _______ _______ _______ _____ _____    ______ ____
ROOT
ATOM      1  N   UNL     1       1.681   3.896  19.025  0.00  0.00    +0.000 N 
ATOM      2  H   UNL     1       1.624   4.612  18.283  0.00  0.00    +0.000 HD
ENDROOT
BRANCH   1   3
ATOM      3  C   UNL     1       1.664   4.314  20.388  0.00  0.00    +0.000 C 
ATOM      4 SE   UNL     1       1.894   3.124  21.674  0.00  0.00    +0.000 Se
BRANCH   3   5
ATOM      5  N   UNL     1       1.361   5.687  20.644  0.00  0.00    +0.000 N 
ATOM      6  C   UNL     1       1.898   6.772  20.008  0.00  0.00    +0.000 C 
ATOM      7  O   UNL     1       2.668   6.625  19.070  0.00  0.00    +0.000 OA
ATOM      8  H   UNL     1       0.671   5.841  21.386  0.00  0.00    +0.000 HD
BRANCH   6   9
ATOM      9  C   UNL     1       1.510   8.155  20.403  0.00  0.00    +0.000 A 
ATOM     10  C   UNL     1       1.233   8.516  21.757  0.00  0.00    +0.000 A 
ATOM     11  C   UNL     1       0.790   9.810  22.077  0.00  0.00    +0.000 A 
ATOM     12  C   UNL     1       0.615  10.706  21.031  0.00  0.00    +0.000 A 
ATOM     13  C   UNL     1       0.899  10.385  19.756  0.00  0.00    +0.000 A 
ATOM     14  C   UNL     1       1.367   9.132  19.389  0.00  0.00    +0.000 A 
ATOM     15  O   UNL     1       0.611  11.416  18.962  0.00  0.00    +0.000 OA
ATOM     16  C   UNL     1       0.076  12.420  19.765  0.00  0.00    +0.000 C 
ATOM     17  O   UNL     1       0.137  11.951  21.075  0.00  0.00    +0.000 OA
ENDBRANCH   6   9
ENDBRANCH   3   5
ENDBRANCH   1   3
BRANCH   1  18
ATOM     18  C   UNL     1       1.591   2.501  18.675  0.00  0.00    +0.000 C 
BRANCH  18  19
ATOM     19  C   UNL     1       2.951   1.935  18.264  0.00  0.00    +0.000 C 
BRANCH  19  23
ATOM     20  C   UNL     1       5.722   5.168  17.602  0.00  0.00    +0.000 A 
ATOM     21  C   UNL     1       5.673   4.535  18.850  0.00  0.00    +0.000 A 
ATOM     22  C   UNL     1       4.773   3.488  19.067  0.00  0.00    +0.000 A 
ATOM     23  C   UNL     1       3.920   3.064  18.034  0.00  0.00    +0.000 A 
ATOM     24  C   UNL     1       3.974   3.709  16.787  0.00  0.00    +0.000 A 
ATOM     25  C   UNL     1       4.867   4.757  16.577  0.00  0.00    +0.000 A 
BRANCH  20  26
ATOM     26  S   UNL     1       6.896   6.474  17.277  0.00  0.00    +0.000 S 
ATOM     27  O   UNL     1       6.239   7.841  17.032  0.00  0.00    +0.000 OA
ATOM     28  O   UNL     1       7.736   6.259  16.008  0.00  0.00    +0.000 OA
BRANCH  26  29
ATOM     29  N   UNL     1       8.056   6.757  18.577  0.00  0.00    +0.000 NA
ATOM     30  H   UNL     1       7.956   7.744  18.898  0.00  0.00    +0.000 HD
ATOM     31  H   UNL     1       9.012   6.646  18.170  0.00  0.00    +0.000 HD
ENDBRANCH  26  29
ENDBRANCH  20  26
ENDBRANCH  19  23
ENDBRANCH  18  19
ENDBRANCH   1  18
TORSDOF 8
ENDMDL
MODEL 5
REMARK VINA RESULT:      -7.5      3.525      8.989
REMARK  Name = 
REMARK  8 active torsions:
REMARK  status: ('A' for Active; 'I' for Inactive)
REMARK    1  A    between atoms: N_1  and  S_2
REMARK    2  A    between atoms: S_2  and  C_5
REMARK    3  A    between atoms: C_8  and  C_9
REMARK    4  A    between atoms: C_9  and  C_10
REMARK    5  A    between atoms: C_10  and  N_11
REMARK    6  A    between atoms: N_11  and  C_12
REMARK    7  A    between atoms: C_12  and  N_14
REMARK    8  A    between atoms: C_15  and  C_17
REMARK                            x       y       z     vdW  Elec       q    Type
REMARK                         _______ _______ _______ _____ _____    ______ ____
ROOT
ATOM      1  N   UNL     1       1.606   7.947  21.274  0.00  0.00    +0.000 N 
ATOM      2  H   UNL     1       2.539   8.008  21.713  0.00  0.00    +0.000 HD
ENDROOT
BRANCH   1   3
ATOM      3  C   UNL     1       0.598   8.874  21.671  0.00  0.00    +0.000 C 
ATOM      4 SE   UNL     1       0.470   9.360  23.366  0.00  0.00    +0.000 Se
BRANCH   3   5
ATOM      5  N   UNL     1      -0.331   9.294  20.670  0.00  0.00    +0.000 N 
ATOM      6  C   UNL     1      -0.108  10.221  19.689  0.00  0.00    +0.000 C 
ATOM      7  O   UNL     1       0.996  10.728  19.552  0.00  0.00    +0.000 OA
ATOM      8  H   UNL     1      -1.249   8.840  20.721  0.00  0.00    +0.000 HD
BRANCH   6   9
ATOM      9  C   UNL     1      -1.185  10.585  18.727  0.00  0.00    +0.000 A 
ATOM     10  C   UNL     1      -2.244  11.482  19.065  0.00  0.00    +0.000 A 
ATOM     11  C   UNL     1      -3.285  11.735  18.158  0.00  0.00    +0.000 A 
ATOM     12  C   UNL     1      -3.253  11.069  16.940  0.00  0.00    +0.000 A 
ATOM     13  C   UNL     1      -2.247  10.244  16.601  0.00  0.00    +0.000 A 
ATOM     14  C   UNL     1      -1.180   9.981  17.447  0.00  0.00    +0.000 A 
ATOM     15  O   UNL     1      -2.486   9.721  15.399  0.00  0.00    +0.000 OA
ATOM     16  C   UNL     1      -3.724  10.200  14.977  0.00  0.00    +0.000 C 
ATOM     17  O   UNL     1      -4.157  11.087  15.959  0.00  0.00    +0.000 OA
ENDBRANCH   6   9
ENDBRANCH   3   5
ENDBRANCH   1   3
BRANCH   1  18
ATOM     18  C   UNL     1       1.402   7.062  20.155  0.00  0.00    +0.000 C 
BRANCH  18  19
ATOM     19  C   UNL     1       2.043   5.695  20.396  0.00  0.00    +0.000 C 
BRANCH  19  23
ATOM     20  C   UNL     1       5.528   5.270  17.897  0.00  0.00    +0.000 A 
ATOM     21  C   UNL     1       5.317   4.381  18.958  0.00  0.00    +0.000 A 
ATOM     22  C   UNL     1       4.189   4.519  19.771  0.00  0.00    +0.000 A 
ATOM     23  C   UNL     1       3.260   5.545  19.524  0.00  0.00    +0.000 A 
ATOM     24  C   UNL     1       3.484   6.435  18.460  0.00  0.00    +0.000 A 
ATOM     25  C   UNL     1       4.614   6.299  17.657  0.00  0.00    +0.000 A 
BRANCH  20  26
ATOM     26  S   UNL     1       6.932   5.090  16.809  0.00  0.00    +0.000 S 
ATOM     27  O   UNL     1       6.587   4.420  15.469  0.00  0.00    +0.000 OA
ATOM     28  O   UNL     1       8.048   4.195  17.369  0.00  0.00    +0.000 OA
BRANCH  26  29
ATOM     29  N   UNL     1       7.714   6.609  16.365  0.00  0.00    +0.000 NA
ATOM     30  H   UNL     1       8.625   6.389  15.906  0.00  0.00    +0.000 HD
ATOM     31  H   UNL     1       7.916   7.125  17.251  0.00  0.00    +0.000 HD
ENDBRANCH  26  29
ENDBRANCH  20  26
ENDBRANCH  19  23
ENDBRANCH  18  19
ENDBRANCH   1  18
TORSDOF 8
ENDMDL
MODEL 6
REMARK VINA RESULT:      -7.5      0.814      1.358
REMARK  Name = 
REMARK  8 active torsions:
REMARK  status: ('A' for Active; 'I' for Inactive)
REMARK    1  A    between atoms: N_1  and  S_2
REMARK    2  A    between atoms: S_2  and  C_5
REMARK    3  A    between atoms: C_8  and  C_9
REMARK    4  A    between atoms: C_9  and  C_10
REMARK    5  A    between atoms: C_10  and  N_11
REMARK    6  A    between atoms: N_11  and  C_12
REMARK    7  A    between atoms: C_12  and  N_14
REMARK    8  A    between atoms: C_15  and  C_17
REMARK                            x       y       z     vdW  Elec       q    Type
REMARK                         _______ _______ _______ _____ _____    ______ ____
ROOT
ATOM      1  N   UNL     1       1.221   4.782  19.406  0.00  0.00    +0.000 N 
ATOM      2  H   UNL     1       0.327   5.194  19.092  0.00  0.00    +0.000 HD
ENDROOT
BRANCH   1   3
ATOM      3  C   UNL     1       1.796   3.724  18.643  0.00  0.00    +0.000 C 
ATOM      4 SE   UNL     1       1.194   2.074  18.840  0.00  0.00    +0.000 Se
BRANCH   3   5
ATOM      5  N   UNL     1       2.914   4.050  17.815  0.00  0.00    +0.000 N 
ATOM      6  C   UNL     1       4.232   3.823  18.100  0.00  0.00    +0.000 C 
ATOM      7  O   UNL     1       4.554   3.222  19.113  0.00  0.00    +0.000 OA
ATOM      8  H   UNL     1       2.670   4.502  16.927  0.00  0.00    +0.000 HD
BRANCH   6   9
ATOM      9  C   UNL     1       5.299   4.247  17.151  0.00  0.00    +0.000 A 
ATOM     10  C   UNL     1       6.303   5.202  17.503  0.00  0.00    +0.000 A 
ATOM     11  C   UNL     1       7.241   5.636  16.553  0.00  0.00    +0.000 A 
ATOM     12  C   UNL     1       7.142   5.120  15.268  0.00  0.00    +0.000 A 
ATOM     13  C   UNL     1       6.219   4.201  14.934  0.00  0.00    +0.000 A 
ATOM     14  C   UNL     1       5.287   3.716  15.840  0.00  0.00    +0.000 A 
ATOM     15  O   UNL     1       6.331   3.907  13.639  0.00  0.00    +0.000 OA
ATOM     16  C   UNL     1       7.341   4.712  13.117  0.00  0.00    +0.000 C 
ATOM     17  O   UNL     1       7.862   5.433  14.189  0.00  0.00    +0.000 OA
ENDBRANCH   6   9
ENDBRANCH   3   5
ENDBRANCH   1   3
BRANCH   1  18
ATOM     18  C   UNL     1       1.949   5.402  20.484  0.00  0.00    +0.000 C 
BRANCH  18  19
ATOM     19  C   UNL     1       2.859   6.521  19.979  0.00  0.00    +0.000 C 
BRANCH  19  23
ATOM     20  C   UNL     1       0.506  10.031  19.132  0.00  0.00    +0.000 A 
ATOM     21  C   UNL     1       0.534   9.505  20.429  0.00  0.00    +0.000 A 
ATOM     22  C   UNL     1       1.294   8.365  20.705  0.00  0.00    +0.000 A 
ATOM     23  C   UNL     1       2.038   7.747  19.684  0.00  0.00    +0.000 A 
ATOM     24  C   UNL     1       1.999   8.279  18.385  0.00  0.00    +0.000 A 
ATOM     25  C   UNL     1       1.233   9.411  18.113  0.00  0.00    +0.000 A 
BRANCH  20  26
ATOM     26  S   UNL     1      -0.414  11.515  18.758  0.00  0.00    +0.000 S 
ATOM     27  O   UNL     1       0.474  12.754  18.564  0.00  0.00    +0.000 OA
ATOM     28  O   UNL     1      -1.380  11.949  19.870  0.00  0.00    +0.000 OA
BRANCH  26  29
ATOM     29  N   UNL     1      -1.386  11.422  17.288  0.00  0.00    +0.000 NA
ATOM     30  H   UNL     1      -1.734  12.379  17.061  0.00  0.00    +0.000 HD
ATOM     31  H   UNL     1      -2.215  10.821  17.499  0.00  0.00    +0.000 HD
ENDBRANCH  26  29
ENDBRANCH  20  26
ENDBRANCH  19  23
ENDBRANCH  18  19
ENDBRANCH   1  18
TORSDOF 8
ENDMDL
MODEL 7
REMARK VINA RESULT:      -7.5      1.148      1.462
REMARK  Name = 
REMARK  8 active torsions:
REMARK  status: ('A' for Active; 'I' for Inactive)
REMARK    1  A    between atoms: N_1  and  S_2
REMARK    2  A    between atoms: S_2  and  C_5
REMARK    3  A    between atoms: C_8  and  C_9
REMARK    4  A    between atoms: C_9  and  C_10
REMARK    5  A    between atoms: C_10  and  N_11
REMARK    6  A    between atoms: N_11  and  C_12
REMARK    7  A    between atoms: C_12  and  N_14
REMARK    8  A    between atoms: C_15  and  C_17
REMARK                            x       y       z     vdW  Elec       q    Type
REMARK                         _______ _______ _______ _____ _____    ______ ____
ROOT
ATOM      1  N   UNL     1       1.495   5.346  20.646  0.00  0.00    +0.000 N 
ATOM      2  H   UNL     1       0.487   5.124  20.680  0.00  0.00    +0.000 HD
ENDROOT
BRANCH   1   3
ATOM      3  C   UNL     1       2.429   4.281  20.480  0.00  0.00    +0.000 C 
ATOM      4 SE   UNL     1       2.279   2.822  21.466  0.00  0.00    +0.000 Se
BRANCH   3   5
ATOM      5  N   UNL     1       3.511   4.499  19.573  0.00  0.00    +0.000 N 
ATOM      6  C   UNL     1       3.421   4.631  18.215  0.00  0.00    +0.000 C 
ATOM      7  O   UNL     1       2.332   4.646  17.662  0.00  0.00    +0.000 OA
ATOM      8  H   UNL     1       4.434   4.553  20.015  0.00  0.00    +0.000 HD
BRANCH   6   9
ATOM      9  C   UNL     1       4.645   4.824  17.387  0.00  0.00    +0.000 A 
ATOM     10  C   UNL     1       5.708   5.692  17.782  0.00  0.00    +0.000 A 
ATOM     11  C   UNL     1       6.806   5.910  16.934  0.00  0.00    +0.000 A 
ATOM     12  C   UNL     1       6.805   5.270  15.702  0.00  0.00    +0.000 A 
ATOM     13  C   UNL     1       5.822   4.430  15.332  0.00  0.00    +0.000 A 
ATOM     14  C   UNL     1       4.730   4.157  16.142  0.00  0.00    +0.000 A 
ATOM     15  O   UNL     1       6.058   3.985  14.098  0.00  0.00    +0.000 OA
ATOM     16  C   UNL     1       7.219   4.608  13.648  0.00  0.00    +0.000 C 
ATOM     17  O   UNL     1       7.688   5.379  14.708  0.00  0.00    +0.000 OA
ENDBRANCH   6   9
ENDBRANCH   3   5
ENDBRANCH   1   3
BRANCH   1  18
ATOM     18  C   UNL     1       1.918   6.722  20.580  0.00  0.00    +0.000 C 
BRANCH  18  19
ATOM     19  C   UNL     1       1.035   7.624  21.442  0.00  0.00    +0.000 C 
BRANCH  19  23
ATOM     20  C   UNL     1       0.634  11.481  19.564  0.00  0.00    +0.000 A 
ATOM     21  C   UNL     1       0.297  11.323  20.914  0.00  0.00    +0.000 A 
ATOM     22  C   UNL     1       0.424  10.072  21.523  0.00  0.00    +0.000 A 
ATOM     23  C   UNL     1       0.895   8.971  20.787  0.00  0.00    +0.000 A 
ATOM     24  C   UNL     1       1.225   9.139  19.433  0.00  0.00    +0.000 A 
ATOM     25  C   UNL     1       1.089  10.386  18.826  0.00  0.00    +0.000 A 
BRANCH  20  26
ATOM     26  S   UNL     1       0.532  13.077  18.768  0.00  0.00    +0.000 S 
ATOM     27  O   UNL     1       1.794  13.448  17.975  0.00  0.00    +0.000 OA
ATOM     28  O   UNL     1       0.374  14.253  19.744  0.00  0.00    +0.000 OA
BRANCH  26  29
ATOM     29  N   UNL     1      -0.791  13.234  17.610  0.00  0.00    +0.000 NA
ATOM     30  H   UNL     1      -0.403  13.116  16.649  0.00  0.00    +0.000 HD
ATOM     31  H   UNL     1      -1.161  14.208  17.690  0.00  0.00    +0.000 HD
ENDBRANCH  26  29
ENDBRANCH  20  26
ENDBRANCH  19  23
ENDBRANCH  18  19
ENDBRANCH   1  18
TORSDOF 8
ENDMDL
MODEL 8
REMARK VINA RESULT:      -7.4      1.260      1.630
REMARK  Name = 
REMARK  8 active torsions:
REMARK  status: ('A' for Active; 'I' for Inactive)
REMARK    1  A    between atoms: N_1  and  S_2
REMARK    2  A    between atoms: S_2  and  C_5
REMARK    3  A    between atoms: C_8  and  C_9
REMARK    4  A    between atoms: C_9  and  C_10
REMARK    5  A    between atoms: C_10  and  N_11
REMARK    6  A    between atoms: N_11  and  C_12
REMARK    7  A    between atoms: C_12  and  N_14
REMARK    8  A    between atoms: C_15  and  C_17
REMARK                            x       y       z     vdW  Elec       q    Type
REMARK                         _______ _______ _______ _____ _____    ______ ____
ROOT
ATOM      1  N   UNL     1       1.589   5.406  20.789  0.00  0.00    +0.000 N 
ATOM      2  H   UNL     1       0.668   5.268  21.235  0.00  0.00    +0.000 HD
ENDROOT
BRANCH   1   3
ATOM      3  C   UNL     1       2.453   4.282  20.635  0.00  0.00    +0.000 C 
ATOM      4 SE   UNL     1       2.222   2.852  21.647  0.00  0.00    +0.000 Se
BRANCH   3   5
ATOM      5  N   UNL     1       3.540   4.417  19.717  0.00  0.00    +0.000 N 
ATOM      6  C   UNL     1       3.567   3.988  18.419  0.00  0.00    +0.000 C 
ATOM      7  O   UNL     1       2.573   3.496  17.906  0.00  0.00    +0.000 OA
ATOM      8  H   UNL     1       4.368   4.883  20.101  0.00  0.00    +0.000 HD
BRANCH   6   9
ATOM      9  C   UNL     1       4.787   4.170  17.582  0.00  0.00    +0.000 A 
ATOM     10  C   UNL     1       6.059   4.498  18.144  0.00  0.00    +0.000 A 
ATOM     11  C   UNL     1       7.165   4.742  17.315  0.00  0.00    +0.000 A 
ATOM     12  C   UNL     1       6.969   4.671  15.942  0.00  0.00    +0.000 A 
ATOM     13  C   UNL     1       5.782   4.336  15.405  0.00  0.00    +0.000 A 
ATOM     14  C   UNL     1       4.665   4.057  16.177  0.00  0.00    +0.000 A 
ATOM     15  O   UNL     1       5.869   4.375  14.075  0.00  0.00    +0.000 OA
ATOM     16  C   UNL     1       7.156   4.801  13.756  0.00  0.00    +0.000 C 
ATOM     17  O   UNL     1       7.837   4.933  14.964  0.00  0.00    +0.000 OA
ENDBRANCH   6   9
ENDBRANCH   3   5
ENDBRANCH   1   3
BRANCH   1  18
ATOM     18  C   UNL     1       1.900   6.672  20.174  0.00  0.00    +0.000 C 
BRANCH  18  19
ATOM     19  C   UNL     1       1.817   7.820  21.180  0.00  0.00    +0.000 C 
BRANCH  19  23
ATOM     20  C   UNL     1      -0.730  10.927  19.623  0.00  0.00    +0.000 A 
ATOM     21  C   UNL     1      -0.789  10.592  20.981  0.00  0.00    +0.000 A 
ATOM     22  C   UNL     1       0.035   9.582  21.487  0.00  0.00    +0.000 A 
ATOM     23  C   UNL     1       0.928   8.906  20.638  0.00  0.00    +0.000 A 
ATOM     24  C   UNL     1       0.975   9.247  19.276  0.00  0.00    +0.000 A 
ATOM     25  C   UNL     1       0.146  10.248  18.774  0.00  0.00    +0.000 A 
BRANCH  20  26
ATOM     26  S   UNL     1      -1.732  12.246  18.955  0.00  0.00    +0.000 S 
ATOM     27  O   UNL     1      -2.467  13.062  20.031  0.00  0.00    +0.000 OA
ATOM     28  O   UNL     1      -2.872  11.766  18.043  0.00  0.00    +0.000 OA
BRANCH  26  29
ATOM     29  N   UNL     1      -0.837  13.441  18.015  0.00  0.00    +0.000 NA
ATOM     30  H   UNL     1      -1.516  14.133  17.629  0.00  0.00    +0.000 HD
ATOM     31  H   UNL     1      -0.397  12.939  17.211  0.00  0.00    +0.000 HD
ENDBRANCH  26  29
ENDBRANCH  20  26
ENDBRANCH  19  23
ENDBRANCH  18  19
ENDBRANCH   1  18
TORSDOF 8
ENDMDL
MODEL 9
REMARK VINA RESULT:      -7.3      3.823     10.646
REMARK  Name = 
REMARK  8 active torsions:
REMARK  status: ('A' for Active; 'I' for Inactive)
REMARK    1  A    between atoms: N_1  and  S_2
REMARK    2  A    between atoms: S_2  and  C_5
REMARK    3  A    between atoms: C_8  and  C_9
REMARK    4  A    between atoms: C_9  and  C_10
REMARK    5  A    between atoms: C_10  and  N_11
REMARK    6  A    between atoms: N_11  and  C_12
REMARK    7  A    between atoms: C_12  and  N_14
REMARK    8  A    between atoms: C_15  and  C_17
REMARK                            x       y       z     vdW  Elec       q    Type
REMARK                         _______ _______ _______ _____ _____    ______ ____
ROOT
ATOM      1  N   UNL     1       1.367   9.772  18.902  0.00  0.00    +0.000 N 
ATOM      2  H   UNL     1       1.451   9.578  19.913  0.00  0.00    +0.000 HD
ENDROOT
BRANCH   1   3
ATOM      3  C   UNL     1       0.966  11.074  18.482  0.00  0.00    +0.000 C 
ATOM      4 SE   UNL     1       2.116  12.414  18.557  0.00  0.00    +0.000 Se
BRANCH   3   5
ATOM      5  N   UNL     1      -0.402  11.244  18.104  0.00  0.00    +0.000 N 
ATOM      6  C   UNL     1      -1.476  11.314  18.948  0.00  0.00    +0.000 C 
ATOM      7  O   UNL     1      -1.317  11.307  20.159  0.00  0.00    +0.000 OA
ATOM      8  H   UNL     1      -0.560  11.315  17.094  0.00  0.00    +0.000 HD
BRANCH   6   9
ATOM      9  C   UNL     1      -2.857  11.462  18.409  0.00  0.00    +0.000 A 
ATOM     10  C   UNL     1      -3.189  11.151  17.055  0.00  0.00    +0.000 A 
ATOM     11  C   UNL     1      -4.485  11.383  16.564  0.00  0.00    +0.000 A 
ATOM     12  C   UNL     1      -5.412  11.940  17.435  0.00  0.00    +0.000 A 
ATOM     13  C   UNL     1      -5.117  12.211  18.719  0.00  0.00    +0.000 A 
ATOM     14  C   UNL     1      -3.863  11.974  19.262  0.00  0.00    +0.000 A 
ATOM     15  O   UNL     1      -6.175  12.764  19.311  0.00  0.00    +0.000 OA
ATOM     16  C   UNL     1      -7.171  12.892  18.346  0.00  0.00    +0.000 C 
ATOM     17  O   UNL     1      -6.666  12.317  17.182  0.00  0.00    +0.000 OA
ENDBRANCH   6   9
ENDBRANCH   3   5
ENDBRANCH   1   3
BRANCH   1  18
ATOM     18  C   UNL     1       1.830   8.794  17.950  0.00  0.00    +0.000 C 
BRANCH  18  19
ATOM     19  C   UNL     1       2.159   7.463  18.626  0.00  0.00    +0.000 C 
BRANCH  19  23
ATOM     20  C   UNL     1       5.430   5.557  16.569  0.00  0.00    +0.000 A 
ATOM     21  C   UNL     1       5.423   6.947  16.733  0.00  0.00    +0.000 A 
ATOM     22  C   UNL     1       4.362   7.567  17.397  0.00  0.00    +0.000 A 
ATOM     23  C   UNL     1       3.302   6.798  17.908  0.00  0.00    +0.000 A 
ATOM     24  C   UNL     1       3.315   5.405  17.734  0.00  0.00    +0.000 A 
ATOM     25  C   UNL     1       4.371   4.791  17.063  0.00  0.00    +0.000 A 
BRANCH  20  26
ATOM     26  S   UNL     1       6.795   4.729  15.769  0.00  0.00    +0.000 S 
ATOM     27  O   UNL     1       7.845   4.189  16.753  0.00  0.00    +0.000 OA
ATOM     28  O   UNL     1       7.619   5.634  14.841  0.00  0.00    +0.000 OA
BRANCH  26  29
ATOM     29  N   UNL     1       6.334   3.333  14.792  0.00  0.00    +0.000 NA
ATOM     30  H   UNL     1       6.170   2.524  15.429  0.00  0.00    +0.000 HD
ATOM     31  H   UNL     1       7.148   3.100  14.179  0.00  0.00    +0.000 HD
ENDBRANCH  26  29
ENDBRANCH  20  26
ENDBRANCH  19  23
ENDBRANCH  18  19
ENDBRANCH   1  18
TORSDOF 8
ENDMDL
