MODEL 1
REMARK VINA RESULT:      -7.2      0.000      0.000
REMARK  Name = 
REMARK  6 active torsions:
REMARK  status: ('A' for Active; 'I' for Inactive)
REMARK    1  A    between atoms: C_1  and  O_2
REMARK    2  A    between atoms: O_2  and  C_3
REMARK    3  A    between atoms: C_9  and  C_10
REMARK    4  A    between atoms: C_16  and  C_17
REMARK    5  A    between atoms: C_16  and  C_18
REMARK    6  A    between atoms: C_19  and  O_20
REMARK                            x       y       z     vdW  Elec       q    Type
REMARK                         _______ _______ _______ _____ _____    ______ ____
ROOT
ATOM      1  C   UNL     1       5.595   5.368  17.632  0.00  0.00    +0.000 A 
ATOM      2  C   UNL     1       4.498   4.892  18.389  0.00  0.00    +0.000 A 
ATOM      3  C   UNL     1       3.654   3.914  17.822  0.00  0.00    +0.000 A 
ATOM      4  C   UNL     1       3.839   3.478  16.511  0.00  0.00    +0.000 A 
ATOM      5  C   UNL     1       4.900   3.964  15.757  0.00  0.00    +0.000 A 
ATOM      6  O   UNL     1       4.992   3.484  14.473  0.00  0.00    +0.000 OA
ATOM      7  C   UNL     1       6.012   3.949  13.665  0.00  0.00    +0.000 A 
ATOM      8  C   UNL     1       6.001   3.410  12.269  0.00  0.00    +0.000 C 
ATOM      9  C   UNL     1       6.952   4.807  14.077  0.00  0.00    +0.000 A 
ATOM     10  C   UNL     1       6.932   5.314  15.462  0.00  0.00    +0.000 A 
ATOM     11  O   UNL     1       7.855   6.024  15.839  0.00  0.00    +0.000 OA
ATOM     12  C   UNL     1       5.791   4.887  16.312  0.00  0.00    +0.000 A 
ATOM     13  O   UNL     1       2.583   3.349  18.470  0.00  0.00    +0.000 OA
ATOM     14  C   UNL     1       2.557   3.492  19.904  0.00  0.00    +0.000 C 
ATOM     15  C   UNL     1       3.569   2.511  20.529  0.00  0.00    +0.000 C 
ATOM     16  C   UNL     1       1.152   3.093  20.381  0.00  0.00    +0.000 C 
ATOM     17  C   UNL     1       2.818   4.959  20.282  0.00  0.00    +0.000 C 
ATOM     18  C   UNL     1       4.178   5.408  19.770  0.00  0.00    +0.000 C 
ENDROOT
BRANCH   1  20
ATOM     19  C   UNL     1       7.507   6.120  18.914  0.00  0.00    +0.000 C 
ATOM     20  O   UNL     1       6.431   6.379  18.027  0.00  0.00    +0.000 OA
ENDBRANCH   1  20
BRANCH  17  21
ATOM     21  O   UNL     1       1.814   5.828  19.736  0.00  0.00    +0.000 OA
ATOM     22  H   UNL     1       1.471   6.366  20.476  0.00  0.00    +0.000 HD
ENDBRANCH  17  21
TORSDOF 2
ENDMDL
MODEL 2
REMARK VINA RESULT:      -7.0      3.090      6.398
REMARK  Name = 
REMARK  6 active torsions:
REMARK  status: ('A' for Active; 'I' for Inactive)
REMARK    1  A    between atoms: C_1  and  O_2
REMARK    2  A    between atoms: O_2  and  C_3
REMARK    3  A    between atoms: C_9  and  C_10
REMARK    4  A    between atoms: C_16  and  C_17
REMARK    5  A    between atoms: C_16  and  C_18
REMARK    6  A    between atoms: C_19  and  O_20
REMARK                            x       y       z     vdW  Elec       q    Type
REMARK                         _______ _______ _______ _____ _____    ______ ____
ROOT
ATOM      1  C   UNL     1       2.707   6.261  19.708  0.00  0.00    +0.000 A 
ATOM      2  C   UNL     1       3.571   5.740  18.716  0.00  0.00    +0.000 A 
ATOM      3  C   UNL     1       3.897   6.548  17.606  0.00  0.00    +0.000 A 
ATOM      4  C   UNL     1       3.319   7.805  17.438  0.00  0.00    +0.000 A 
ATOM      5  C   UNL     1       2.449   8.307  18.399  0.00  0.00    +0.000 A 
ATOM      6  O   UNL     1       1.921   9.548  18.138  0.00  0.00    +0.000 OA
ATOM      7  C   UNL     1       1.029  10.090  19.044  0.00  0.00    +0.000 A 
ATOM      8  C   UNL     1       0.468  11.420  18.650  0.00  0.00    +0.000 C 
ATOM      9  C   UNL     1       0.685   9.497  20.192  0.00  0.00    +0.000 A 
ATOM     10  C   UNL     1       1.262   8.186  20.548  0.00  0.00    +0.000 A 
ATOM     11  O   UNL     1       1.003   7.710  21.644  0.00  0.00    +0.000 OA
ATOM     12  C   UNL     1       2.155   7.557  19.541  0.00  0.00    +0.000 A 
ATOM     13  O   UNL     1       4.752   6.170  16.600  0.00  0.00    +0.000 OA
ATOM     14  C   UNL     1       5.629   5.062  16.891  0.00  0.00    +0.000 C 
ATOM     15  C   UNL     1       6.772   5.548  17.804  0.00  0.00    +0.000 C 
ATOM     16  C   UNL     1       6.246   4.603  15.561  0.00  0.00    +0.000 C 
ATOM     17  C   UNL     1       4.817   3.905  17.495  0.00  0.00    +0.000 C 
ATOM     18  C   UNL     1       4.139   4.344  18.784  0.00  0.00    +0.000 C 
ENDROOT
BRANCH   1  20
ATOM     19  C   UNL     1       1.297   4.504  20.600  0.00  0.00    +0.000 C 
ATOM     20  O   UNL     1       2.239   5.549  20.782  0.00  0.00    +0.000 OA
ENDBRANCH   1  20
BRANCH  17  21
ATOM     21  O   UNL     1       3.809   3.439  16.584  0.00  0.00    +0.000 OA
ATOM     22  H   UNL     1       4.257   2.862  15.936  0.00  0.00    +0.000 HD
ENDBRANCH  17  21
TORSDOF 2
ENDMDL
MODEL 3
REMARK VINA RESULT:      -6.7      2.980      5.873
REMARK  Name = 
REMARK  6 active torsions:
REMARK  status: ('A' for Active; 'I' for Inactive)
REMARK    1  A    between atoms: C_1  and  O_2
REMARK    2  A    between atoms: O_2  and  C_3
REMARK    3  A    between atoms: C_9  and  C_10
REMARK    4  A    between atoms: C_16  and  C_17
REMARK    5  A    between atoms: C_16  and  C_18
REMARK    6  A    between atoms: C_19  and  O_20
REMARK                            x       y       z     vdW  Elec       q    Type
REMARK                         _______ _______ _______ _____ _____    ______ ____
ROOT
ATOM      1  C   UNL     1       3.036   6.787  17.987  0.00  0.00    +0.000 A 
ATOM      2  C   UNL     1       3.380   5.460  18.337  0.00  0.00    +0.000 A 
ATOM      3  C   UNL     1       2.897   4.929  19.552  0.00  0.00    +0.000 A 
ATOM      4  C   UNL     1       2.163   5.717  20.437  0.00  0.00    +0.000 A 
ATOM      5  C   UNL     1       1.846   7.029  20.107  0.00  0.00    +0.000 A 
ATOM      6  O   UNL     1       1.130   7.728  21.049  0.00  0.00    +0.000 OA
ATOM      7  C   UNL     1       0.808   9.046  20.789  0.00  0.00    +0.000 A 
ATOM      8  C   UNL     1       0.073   9.739  21.894  0.00  0.00    +0.000 C 
ATOM      9  C   UNL     1       1.108   9.673  19.647  0.00  0.00    +0.000 A 
ATOM     10  C   UNL     1       1.830   8.954  18.579  0.00  0.00    +0.000 A 
ATOM     11  O   UNL     1       2.010   9.521  17.510  0.00  0.00    +0.000 OA
ATOM     12  C   UNL     1       2.257   7.564  18.883  0.00  0.00    +0.000 A 
ATOM     13  O   UNL     1       3.130   3.646  19.982  0.00  0.00    +0.000 OA
ATOM     14  C   UNL     1       3.566   2.707  18.978  0.00  0.00    +0.000 C 
ATOM     15  C   UNL     1       2.359   2.295  18.113  0.00  0.00    +0.000 C 
ATOM     16  C   UNL     1       4.075   1.456  19.710  0.00  0.00    +0.000 C 
ATOM     17  C   UNL     1       4.718   3.317  18.164  0.00  0.00    +0.000 C 
ATOM     18  C   UNL     1       4.266   4.595  17.474  0.00  0.00    +0.000 C 
ENDROOT
BRANCH   1  20
ATOM     19  C   UNL     1       4.889   7.377  16.544  0.00  0.00    +0.000 C 
ATOM     20  O   UNL     1       3.515   7.450  16.887  0.00  0.00    +0.000 OA
ENDBRANCH   1  20
BRANCH  17  21
ATOM     21  O   UNL     1       5.846   3.622  18.998  0.00  0.00    +0.000 OA
ATOM     22  H   UNL     1       5.664   3.235  19.876  0.00  0.00    +0.000 HD
ENDBRANCH  17  21
TORSDOF 2
ENDMDL
MODEL 4
REMARK VINA RESULT:      -6.5      1.850      6.334
REMARK  Name = 
REMARK  6 active torsions:
REMARK  status: ('A' for Active; 'I' for Inactive)
REMARK    1  A    between atoms: C_1  and  O_2
REMARK    2  A    between atoms: O_2  and  C_3
REMARK    3  A    between atoms: C_9  and  C_10
REMARK    4  A    between atoms: C_16  and  C_17
REMARK    5  A    between atoms: C_16  and  C_18
REMARK    6  A    between atoms: C_19  and  O_20
REMARK                            x       y       z     vdW  Elec       q    Type
REMARK                         _______ _______ _______ _____ _____    ______ ____
ROOT
ATOM      1  C   UNL     1       3.304   4.223  18.670  0.00  0.00    +0.000 A 
ATOM      2  C   UNL     1       4.265   4.396  17.646  0.00  0.00    +0.000 A 
ATOM      3  C   UNL     1       4.657   5.706  17.295  0.00  0.00    +0.000 A 
ATOM      4  C   UNL     1       4.054   6.817  17.882  0.00  0.00    +0.000 A 
ATOM      5  C   UNL     1       3.091   6.648  18.870  0.00  0.00    +0.000 A 
ATOM      6  O   UNL     1       2.547   7.802  19.379  0.00  0.00    +0.000 OA
ATOM      7  C   UNL     1       1.565   7.699  20.346  0.00  0.00    +0.000 A 
ATOM      8  C   UNL     1       0.996   9.006  20.803  0.00  0.00    +0.000 C 
ATOM      9  C   UNL     1       1.145   6.536  20.857  0.00  0.00    +0.000 A 
ATOM     10  C   UNL     1       1.733   5.268  20.384  0.00  0.00    +0.000 A 
ATOM     11  O   UNL     1       1.398   4.228  20.933  0.00  0.00    +0.000 OA
ATOM     12  C   UNL     1       2.727   5.364  19.284  0.00  0.00    +0.000 A 
ATOM     13  O   UNL     1       5.604   6.000  16.346  0.00  0.00    +0.000 OA
ATOM     14  C   UNL     1       6.489   4.924  15.973  0.00  0.00    +0.000 C 
ATOM     15  C   UNL     1       7.535   4.720  17.086  0.00  0.00    +0.000 C 
ATOM     16  C   UNL     1       7.229   5.359  14.699  0.00  0.00    +0.000 C 
ATOM     17  C   UNL     1       5.667   3.661  15.670  0.00  0.00    +0.000 C 
ATOM     18  C   UNL     1       4.870   3.236  16.894  0.00  0.00    +0.000 C 
ENDROOT
BRANCH   1  20
ATOM     19  C   UNL     1       1.840   2.351  18.200  0.00  0.00    +0.000 C 
ATOM     20  O   UNL     1       2.772   3.015  19.039  0.00  0.00    +0.000 OA
ENDBRANCH   1  20
BRANCH  17  21
ATOM     21  O   UNL     1       4.755   3.876  14.582  0.00  0.00    +0.000 OA
ATOM     22  H   UNL     1       3.868   3.620  14.900  0.00  0.00    +0.000 HD
ENDBRANCH  17  21
TORSDOF 2
ENDMDL
MODEL 5
REMARK VINA RESULT:      -6.3      1.663      5.991
REMARK  Name = 
REMARK  6 active torsions:
REMARK  status: ('A' for Active; 'I' for Inactive)
REMARK    1  A    between atoms: C_1  and  O_2
REMARK    2  A    between atoms: O_2  and  C_3
REMARK    3  A    between atoms: C_9  and  C_10
REMARK    4  A    between atoms: C_16  and  C_17
REMARK    5  A    between atoms: C_16  and  C_18
REMARK    6  A    between atoms: C_19  and  O_20
REMARK                            x       y       z     vdW  Elec       q    Type
REMARK                         _______ _______ _______ _____ _____    ______ ____
ROOT
ATOM      1  C   UNL     1       3.591   6.277  18.303  0.00  0.00    +0.000 A 
ATOM      2  C   UNL     1       4.530   5.863  17.329  0.00  0.00    +0.000 A 
ATOM      3  C   UNL     1       4.871   4.495  17.252  0.00  0.00    +0.000 A 
ATOM      4  C   UNL     1       4.362   3.576  18.168  0.00  0.00    +0.000 A 
ATOM      5  C   UNL     1       3.460   3.987  19.141  0.00  0.00    +0.000 A 
ATOM      6  O   UNL     1       3.023   3.011  20.004  0.00  0.00    +0.000 OA
ATOM      7  C   UNL     1       2.145   3.363  21.010  0.00  0.00    +0.000 A 
ATOM      8  C   UNL     1       1.767   2.245  21.931  0.00  0.00    +0.000 C 
ATOM      9  C   UNL     1       1.649   4.595  21.166  0.00  0.00    +0.000 A 
ATOM     10  C   UNL     1       2.043   5.671  20.236  0.00  0.00    +0.000 A 
ATOM     11  O   UNL     1       1.505   6.764  20.344  0.00  0.00    +0.000 OA
ATOM     12  C   UNL     1       3.053   5.323  19.204  0.00  0.00    +0.000 A 
ATOM     13  O   UNL     1       5.739   3.967  16.329  0.00  0.00    +0.000 OA
ATOM     14  C   UNL     1       6.012   4.781  15.171  0.00  0.00    +0.000 C 
ATOM     15  C   UNL     1       4.807   4.716  14.211  0.00  0.00    +0.000 C 
ATOM     16  C   UNL     1       7.224   4.168  14.453  0.00  0.00    +0.000 C 
ATOM     17  C   UNL     1       6.360   6.211  15.614  0.00  0.00    +0.000 C 
ATOM     18  C   UNL     1       5.203   6.828  16.385  0.00  0.00    +0.000 C 
ENDROOT
BRANCH   1  20
ATOM     19  C   UNL     1       2.407   8.284  17.639  0.00  0.00    +0.000 C 
ATOM     20  O   UNL     1       3.246   7.582  18.543  0.00  0.00    +0.000 OA
ENDBRANCH   1  20
BRANCH  17  21
ATOM     21  O   UNL     1       7.528   6.232  16.449  0.00  0.00    +0.000 OA
ATOM     22  H   UNL     1       7.297   6.745  17.247  0.00  0.00    +0.000 HD
ENDBRANCH  17  21
TORSDOF 2
ENDMDL
MODEL 6
REMARK VINA RESULT:      -6.3      3.238      5.148
REMARK  Name = 
REMARK  6 active torsions:
REMARK  status: ('A' for Active; 'I' for Inactive)
REMARK    1  A    between atoms: C_1  and  O_2
REMARK    2  A    between atoms: O_2  and  C_3
REMARK    3  A    between atoms: C_9  and  C_10
REMARK    4  A    between atoms: C_16  and  C_17
REMARK    5  A    between atoms: C_16  and  C_18
REMARK    6  A    between atoms: C_19  and  O_20
REMARK                            x       y       z     vdW  Elec       q    Type
REMARK                         _______ _______ _______ _____ _____    ______ ____
ROOT
ATOM      1  C   UNL     1       2.334   5.876  19.676  0.00  0.00    +0.000 A 
ATOM      2  C   UNL     1       1.873   7.177  19.989  0.00  0.00    +0.000 A 
ATOM      3  C   UNL     1       2.209   8.243  19.128  0.00  0.00    +0.000 A 
ATOM      4  C   UNL     1       3.046   8.043  18.031  0.00  0.00    +0.000 A 
ATOM      5  C   UNL     1       3.521   6.771  17.738  0.00  0.00    +0.000 A 
ATOM      6  O   UNL     1       4.349   6.677  16.645  0.00  0.00    +0.000 OA
ATOM      7  C   UNL     1       4.874   5.442  16.318  0.00  0.00    +0.000 A 
ATOM      8  C   UNL     1       5.804   5.448  15.145  0.00  0.00    +0.000 C 
ATOM      9  C   UNL     1       4.582   4.314  16.974  0.00  0.00    +0.000 A 
ATOM     10  C   UNL     1       3.657   4.347  18.123  0.00  0.00    +0.000 A 
ATOM     11  O   UNL     1       3.335   3.289  18.646  0.00  0.00    +0.000 OA
ATOM     12  C   UNL     1       3.155   5.683  18.536  0.00  0.00    +0.000 A 
ATOM     13  O   UNL     1       1.792   9.539  19.304  0.00  0.00    +0.000 OA
ATOM     14  C   UNL     1       0.669   9.733  20.188  0.00  0.00    +0.000 C 
ATOM     15  C   UNL     1      -0.625   9.319  19.460  0.00  0.00    +0.000 C 
ATOM     16  C   UNL     1       0.581  11.235  20.496  0.00  0.00    +0.000 C 
ATOM     17  C   UNL     1       0.904   8.964  21.497  0.00  0.00    +0.000 C 
ATOM     18  C   UNL     1       1.059   7.476  21.223  0.00  0.00    +0.000 C 
ENDROOT
BRANCH   1  20
ATOM     19  C   UNL     1       0.926   4.072  20.473  0.00  0.00    +0.000 C 
ATOM     20  O   UNL     1       2.158   4.776  20.475  0.00  0.00    +0.000 OA
ENDBRANCH   1  20
BRANCH  17  21
ATOM     21  O   UNL     1       2.081   9.429  22.176  0.00  0.00    +0.000 OA
ATOM     22  H   UNL     1       1.895  10.339  22.476  0.00  0.00    +0.000 HD
ENDBRANCH  17  21
TORSDOF 2
ENDMDL
MODEL 7
REMARK VINA RESULT:      -6.2     10.889     13.394
REMARK  Name = 
REMARK  6 active torsions:
REMARK  status: ('A' for Active; 'I' for Inactive)
REMARK    1  A    between atoms: C_1  and  O_2
REMARK    2  A    between atoms: O_2  and  C_3
REMARK    3  A    between atoms: C_9  and  C_10
REMARK    4  A    between atoms: C_16  and  C_17
REMARK    5  A    between atoms: C_16  and  C_18
REMARK    6  A    between atoms: C_19  and  O_20
REMARK                            x       y       z     vdW  Elec       q    Type
REMARK                         _______ _______ _______ _____ _____    ______ ____
ROOT
ATOM      1  C   UNL     1      -6.058  12.259  20.508  0.00  0.00    +0.000 A 
ATOM      2  C   UNL     1      -5.436  12.716  21.694  0.00  0.00    +0.000 A 
ATOM      3  C   UNL     1      -4.042  12.935  21.690  0.00  0.00    +0.000 A 
ATOM      4  C   UNL     1      -3.271  12.632  20.568  0.00  0.00    +0.000 A 
ATOM      5  C   UNL     1      -3.878  12.159  19.411  0.00  0.00    +0.000 A 
ATOM      6  O   UNL     1      -3.034  11.878  18.364  0.00  0.00    +0.000 OA
ATOM      7  C   UNL     1      -3.575  11.380  17.195  0.00  0.00    +0.000 A 
ATOM      8  C   UNL     1      -2.574  11.055  16.130  0.00  0.00    +0.000 C 
ATOM      9  C   UNL     1      -4.886  11.201  17.000  0.00  0.00    +0.000 A 
ATOM     10  C   UNL     1      -5.843  11.536  18.073  0.00  0.00    +0.000 A 
ATOM     11  O   UNL     1      -7.040  11.451  17.837  0.00  0.00    +0.000 OA
ATOM     12  C   UNL     1      -5.265  11.991  19.363  0.00  0.00    +0.000 A 
ATOM     13  O   UNL     1      -3.331  13.411  22.764  0.00  0.00    +0.000 OA
ATOM     14  C   UNL     1      -4.098  14.058  23.799  0.00  0.00    +0.000 C 
ATOM     15  C   UNL     1      -4.500  15.468  23.325  0.00  0.00    +0.000 C 
ATOM     16  C   UNL     1      -3.181  14.212  25.022  0.00  0.00    +0.000 C 
ATOM     17  C   UNL     1      -5.300  13.178  24.180  0.00  0.00    +0.000 C 
ATOM     18  C   UNL     1      -6.199  12.952  22.974  0.00  0.00    +0.000 C 
ENDROOT
BRANCH   1  20
ATOM     19  C   UNL     1      -7.864  10.718  20.988  0.00  0.00    +0.000 C 
ATOM     20  O   UNL     1      -7.382  11.919  20.407  0.00  0.00    +0.000 OA
ENDBRANCH   1  20
BRANCH  17  21
ATOM     21  O   UNL     1      -4.877  11.901  24.681  0.00  0.00    +0.000 OA
ATOM     22  H   UNL     1      -5.109  11.877  25.629  0.00  0.00    +0.000 HD
ENDBRANCH  17  21
TORSDOF 2
ENDMDL
MODEL 8
REMARK VINA RESULT:      -6.2      1.090      1.103
REMARK  Name = 
REMARK  6 active torsions:
REMARK  status: ('A' for Active; 'I' for Inactive)
REMARK    1  A    between atoms: C_1  and  O_2
REMARK    2  A    between atoms: O_2  and  C_3
REMARK    3  A    between atoms: C_9  and  C_10
REMARK    4  A    between atoms: C_16  and  C_17
REMARK    5  A    between atoms: C_16  and  C_18
REMARK    6  A    between atoms: C_19  and  O_20
REMARK                            x       y       z     vdW  Elec       q    Type
REMARK                         _______ _______ _______ _____ _____    ______ ____
ROOT
ATOM      1  C   UNL     1       5.687   4.294  18.347  0.00  0.00    +0.000 A 
ATOM      2  C   UNL     1       4.381   4.214  18.888  0.00  0.00    +0.000 A 
ATOM      3  C   UNL     1       3.292   4.029  18.010  0.00  0.00    +0.000 A 
ATOM      4  C   UNL     1       3.479   4.006  16.629  0.00  0.00    +0.000 A 
ATOM      5  C   UNL     1       4.758   4.111  16.096  0.00  0.00    +0.000 A 
ATOM      6  O   UNL     1       4.838   4.090  14.724  0.00  0.00    +0.000 OA
ATOM      7  C   UNL     1       6.081   4.217  14.133  0.00  0.00    +0.000 A 
ATOM      8  C   UNL     1       6.063   4.236  12.637  0.00  0.00    +0.000 C 
ATOM      9  C   UNL     1       7.224   4.307  14.821  0.00  0.00    +0.000 A 
ATOM     10  C   UNL     1       7.201   4.281  16.296  0.00  0.00    +0.000 A 
ATOM     11  O   UNL     1       8.266   4.271  16.898  0.00  0.00    +0.000 OA
ATOM     12  C   UNL     1       5.864   4.232  16.941  0.00  0.00    +0.000 A 
ATOM     13  O   UNL     1       1.987   3.899  18.416  0.00  0.00    +0.000 OA
ATOM     14  C   UNL     1       1.780   3.567  19.803  0.00  0.00    +0.000 C 
ATOM     15  C   UNL     1       2.090   2.072  20.017  0.00  0.00    +0.000 C 
ATOM     16  C   UNL     1       0.293   3.792  20.113  0.00  0.00    +0.000 C 
ATOM     17  C   UNL     1       2.625   4.497  20.689  0.00  0.00    +0.000 C 
ATOM     18  C   UNL     1       4.103   4.346  20.365  0.00  0.00    +0.000 C 
ENDROOT
BRANCH   1  20
ATOM     19  C   UNL     1       7.146   5.901  19.422  0.00  0.00    +0.000 C 
ATOM     20  O   UNL     1       6.814   4.565  19.077  0.00  0.00    +0.000 OA
ENDBRANCH   1  20
BRANCH  17  21
ATOM     21  O   UNL     1       2.255   5.873  20.508  0.00  0.00    +0.000 OA
ATOM     22  H   UNL     1       2.952   6.412  20.929  0.00  0.00    +0.000 HD
ENDBRANCH  17  21
TORSDOF 2
ENDMDL
MODEL 9
REMARK VINA RESULT:      -6.2      4.257      7.403
REMARK  Name = 
REMARK  6 active torsions:
REMARK  status: ('A' for Active; 'I' for Inactive)
REMARK    1  A    between atoms: C_1  and  O_2
REMARK    2  A    between atoms: O_2  and  C_3
REMARK    3  A    between atoms: C_9  and  C_10
REMARK    4  A    between atoms: C_16  and  C_17
REMARK    5  A    between atoms: C_16  and  C_18
REMARK    6  A    between atoms: C_19  and  O_20
REMARK                            x       y       z     vdW  Elec       q    Type
REMARK                         _______ _______ _______ _____ _____    ______ ____
ROOT
ATOM      1  C   UNL     1       1.777   8.915  18.472  0.00  0.00    +0.000 A 
ATOM      2  C   UNL     1       2.463   7.677  18.481  0.00  0.00    +0.000 A 
ATOM      3  C   UNL     1       2.352   6.846  19.616  0.00  0.00    +0.000 A 
ATOM      4  C   UNL     1       1.650   7.264  20.745  0.00  0.00    +0.000 A 
ATOM      5  C   UNL     1       0.997   8.491  20.748  0.00  0.00    +0.000 A 
ATOM      6  O   UNL     1       0.343   8.819  21.910  0.00  0.00    +0.000 OA
ATOM      7  C   UNL     1      -0.303  10.038  21.983  0.00  0.00    +0.000 A 
ATOM      8  C   UNL     1      -0.943  10.330  23.305  0.00  0.00    +0.000 C 
ATOM      9  C   UNL     1      -0.374  10.903  20.965  0.00  0.00    +0.000 A 
ATOM     10  C   UNL     1       0.266  10.579  19.676  0.00  0.00    +0.000 A 
ATOM     11  O   UNL     1       0.108  11.343  18.735  0.00  0.00    +0.000 OA
ATOM     12  C   UNL     1       1.036   9.309  19.615  0.00  0.00    +0.000 A 
ATOM     13  O   UNL     1       2.938   5.610  19.729  0.00  0.00    +0.000 OA
ATOM     14  C   UNL     1       3.365   4.992  18.497  0.00  0.00    +0.000 C 
ATOM     15  C   UNL     1       2.132   4.441  17.754  0.00  0.00    +0.000 C 
ATOM     16  C   UNL     1       4.266   3.805  18.867  0.00  0.00    +0.000 C 
ATOM     17  C   UNL     1       4.176   5.999  17.667  0.00  0.00    +0.000 C 
ATOM     18  C   UNL     1       3.332   7.220  17.335  0.00  0.00    +0.000 C 
ENDROOT
BRANCH   1  20
ATOM     19  C   UNL     1       2.789  10.932  17.591  0.00  0.00    +0.000 C 
ATOM     20  O   UNL     1       1.877   9.851  17.476  0.00  0.00    +0.000 OA
ENDBRANCH   1  20
BRANCH  17  21
ATOM     21  O   UNL     1       5.350   6.434  18.370  0.00  0.00    +0.000 OA
ATOM     22  H   UNL     1       5.988   5.695  18.341  0.00  0.00    +0.000 HD
ENDBRANCH  17  21
TORSDOF 2
ENDMDL
