MODEL 1
REMARK VINA RESULT:      -8.0      0.000      0.000
REMARK  Name = 
REMARK  8 active torsions:
REMARK  status: ('A' for Active; 'I' for Inactive)
REMARK    1  A    between atoms: C_1  and  C_2
REMARK    2  A    between atoms: C_5  and  C_6
REMARK    3  A    between atoms: C_6  and  C_8
REMARK    4  A    between atoms: C_8  and  C_9
REMARK    5  A    between atoms: C_8  and  O_10
REMARK    6  A    between atoms: O_10  and  C_11
REMARK    7  A    between atoms: C_15  and  N_16
REMARK    8  A    between atoms: C_17  and  C_19
REMARK                            x       y       z     vdW  Elec       q    Type
REMARK                         _______ _______ _______ _____ _____    ______ ____
ROOT
ATOM      1  C   UNL     1       2.327   7.118  19.536  0.00  0.00    +0.000 A 
ATOM      2  C   UNL     1       2.540   7.502  18.214  0.00  0.00    +0.000 A 
ATOM      3  C   UNL     1       2.013   8.699  17.744  0.00  0.00    +0.000 A 
ATOM      4  C   UNL     1       1.261   9.518  18.585  0.00  0.00    +0.000 A 
ATOM      5  C   UNL     1       1.062   9.183  19.924  0.00  0.00    +0.000 A 
ATOM      6  C   UNL     1       1.643   7.993  20.405  0.00  0.00    +0.000 A 
ENDROOT
BRANCH   5   7
ATOM      7  N   UNL     1       0.269   9.971  20.795  0.00  0.00    +0.000 N 
ATOM      8  C   UNL     1       0.569  11.246  21.284  0.00  0.00    +0.000 C 
ATOM      9  O   UNL     1       1.608  11.859  21.084  0.00  0.00    +0.000 OA
ATOM     10  H   UNL     1      -0.646   9.613  21.049  0.00  0.00    +0.000 HD
BRANCH   8  11
ATOM     11  C   UNL     1      -0.501  11.828  22.081  0.00  0.00    +0.000 A 
ATOM     12  C   UNL     1      -0.756  13.147  22.417  0.00  0.00    +0.000 A 
ATOM     13  C   UNL     1      -1.939  13.152  23.192  0.00  0.00    +0.000 A 
ATOM     14  C   UNL     1      -2.340  11.839  23.279  0.00  0.00    +0.000 A 
ATOM     15  O   UNL     1      -1.476  11.027  22.616  0.00  0.00    +0.000 OA
ENDBRANCH   8  11
ENDBRANCH   5   7
BRANCH   1  16
ATOM     16  O   UNL     1       2.729   5.919  20.071  0.00  0.00    +0.000 OA
BRANCH  16  17
ATOM     17  C   UNL     1       2.144   4.707  19.562  0.00  0.00    +0.000 C 
ATOM     18  C   UNL     1       1.108   4.134  20.541  0.00  0.00    +0.000 C 
BRANCH  17  19
ATOM     19  C   UNL     1       3.258   3.666  19.329  0.00  0.00    +0.000 C 
ATOM     20  O   UNL     1       3.257   2.563  19.882  0.00  0.00    +0.000 OA
BRANCH  19  25
ATOM     21  C   UNL     1       7.279   4.904  15.320  0.00  0.00    +0.000 C 
ATOM     22  C   UNL     1       6.253   4.549  16.355  0.00  0.00    +0.000 A 
ATOM     23  C   UNL     1       4.971   4.132  15.988  0.00  0.00    +0.000 A 
ATOM     24  C   UNL     1       4.020   3.837  16.968  0.00  0.00    +0.000 A 
ATOM     25  C   UNL     1       4.336   3.947  18.331  0.00  0.00    +0.000 A 
ATOM     26  C   UNL     1       5.623   4.351  18.697  0.00  0.00    +0.000 A 
ATOM     27  C   UNL     1       6.571   4.655  17.715  0.00  0.00    +0.000 A 
ENDBRANCH  19  25
ENDBRANCH  17  19
ENDBRANCH  16  17
ENDBRANCH   1  16
TORSDOF 6
ENDMDL
MODEL 2
REMARK VINA RESULT:      -7.9      0.795      1.156
REMARK  Name = 
REMARK  8 active torsions:
REMARK  status: ('A' for Active; 'I' for Inactive)
REMARK    1  A    between atoms: C_1  and  C_2
REMARK    2  A    between atoms: C_5  and  C_6
REMARK    3  A    between atoms: C_6  and  C_8
REMARK    4  A    between atoms: C_8  and  C_9
REMARK    5  A    between atoms: C_8  and  O_10
REMARK    6  A    between atoms: O_10  and  C_11
REMARK    7  A    between atoms: C_15  and  N_16
REMARK    8  A    between atoms: C_17  and  C_19
REMARK                            x       y       z     vdW  Elec       q    Type
REMARK                         _______ _______ _______ _____ _____    ______ ____
ROOT
ATOM      1  C   UNL     1       2.376   6.857  19.622  0.00  0.00    +0.000 A 
ATOM      2  C   UNL     1       2.651   7.012  18.266  0.00  0.00    +0.000 A 
ATOM      3  C   UNL     1       2.298   8.188  17.614  0.00  0.00    +0.000 A 
ATOM      4  C   UNL     1       1.657   9.213  18.307  0.00  0.00    +0.000 A 
ATOM      5  C   UNL     1       1.401   9.107  19.674  0.00  0.00    +0.000 A 
ATOM      6  C   UNL     1       1.809   7.932  20.337  0.00  0.00    +0.000 A 
ENDROOT
BRANCH   5   7
ATOM      7  N   UNL     1       0.715  10.112  20.400  0.00  0.00    +0.000 N 
ATOM      8  C   UNL     1      -0.190   9.924  21.448  0.00  0.00    +0.000 C 
ATOM      9  O   UNL     1      -0.584   8.844  21.864  0.00  0.00    +0.000 OA
ATOM     10  H   UNL     1       0.943  11.079  20.191  0.00  0.00    +0.000 HD
BRANCH   8  11
ATOM     11  C   UNL     1      -0.646  11.169  22.051  0.00  0.00    +0.000 A 
ATOM     12  C   UNL     1      -1.558  11.393  23.068  0.00  0.00    +0.000 A 
ATOM     13  C   UNL     1      -1.609  12.792  23.272  0.00  0.00    +0.000 A 
ATOM     14  C   UNL     1      -0.721  13.338  22.374  0.00  0.00    +0.000 A 
ATOM     15  O   UNL     1      -0.136  12.368  21.625  0.00  0.00    +0.000 OA
ENDBRANCH   8  11
ENDBRANCH   5   7
BRANCH   1  16
ATOM     16  O   UNL     1       2.605   5.706  20.335  0.00  0.00    +0.000 OA
BRANCH  16  17
ATOM     17  C   UNL     1       2.232   4.446  19.748  0.00  0.00    +0.000 C 
ATOM     18  C   UNL     1       1.221   3.698  20.631  0.00  0.00    +0.000 C 
BRANCH  17  19
ATOM     19  C   UNL     1       3.493   3.578  19.568  0.00  0.00    +0.000 C 
ATOM     20  O   UNL     1       3.712   2.580  20.258  0.00  0.00    +0.000 OA
BRANCH  19  25
ATOM     21  C   UNL     1       7.024   4.904  15.146  0.00  0.00    +0.000 C 
ATOM     22  C   UNL     1       6.127   4.527  16.288  0.00  0.00    +0.000 A 
ATOM     23  C   UNL     1       4.841   4.028  16.061  0.00  0.00    +0.000 A 
ATOM     24  C   UNL     1       4.010   3.712  17.138  0.00  0.00    +0.000 A 
ATOM     25  C   UNL     1       4.450   3.885  18.460  0.00  0.00    +0.000 A 
ATOM     26  C   UNL     1       5.741   4.372  18.685  0.00  0.00    +0.000 A 
ATOM     27  C   UNL     1       6.569   4.695  17.605  0.00  0.00    +0.000 A 
ENDBRANCH  19  25
ENDBRANCH  17  19
ENDBRANCH  16  17
ENDBRANCH   1  16
TORSDOF 6
ENDMDL
MODEL 3
REMARK VINA RESULT:      -7.9      0.998      1.080
REMARK  Name = 
REMARK  8 active torsions:
REMARK  status: ('A' for Active; 'I' for Inactive)
REMARK    1  A    between atoms: C_1  and  C_2
REMARK    2  A    between atoms: C_5  and  C_6
REMARK    3  A    between atoms: C_6  and  C_8
REMARK    4  A    between atoms: C_8  and  C_9
REMARK    5  A    between atoms: C_8  and  O_10
REMARK    6  A    between atoms: O_10  and  C_11
REMARK    7  A    between atoms: C_15  and  N_16
REMARK    8  A    between atoms: C_17  and  C_19
REMARK                            x       y       z     vdW  Elec       q    Type
REMARK                         _______ _______ _______ _____ _____    ______ ____
ROOT
ATOM      1  C   UNL     1       2.557   6.593  19.487  0.00  0.00    +0.000 A 
ATOM      2  C   UNL     1       2.994   6.970  18.220  0.00  0.00    +0.000 A 
ATOM      3  C   UNL     1       2.633   8.207  17.700  0.00  0.00    +0.000 A 
ATOM      4  C   UNL     1       1.824   9.072  18.433  0.00  0.00    +0.000 A 
ATOM      5  C   UNL     1       1.401   8.743  19.721  0.00  0.00    +0.000 A 
ATOM      6  C   UNL     1       1.815   7.509  20.261  0.00  0.00    +0.000 A 
ENDROOT
BRANCH   5   7
ATOM      7  N   UNL     1       0.545   9.581  20.478  0.00  0.00    +0.000 N 
ATOM      8  C   UNL     1       0.732  10.001  21.798  0.00  0.00    +0.000 C 
ATOM      9  O   UNL     1       1.643   9.652  22.535  0.00  0.00    +0.000 OA
ATOM     10  H   UNL     1      -0.259   9.979  20.006  0.00  0.00    +0.000 HD
BRANCH   8  11
ATOM     11  C   UNL     1      -0.281  10.942  22.256  0.00  0.00    +0.000 A 
ATOM     12  C   UNL     1      -0.454  12.286  21.972  0.00  0.00    +0.000 A 
ATOM     13  C   UNL     1      -1.612  12.706  22.667  0.00  0.00    +0.000 A 
ATOM     14  C   UNL     1      -2.081  11.595  23.328  0.00  0.00    +0.000 A 
ATOM     15  O   UNL     1      -1.283  10.522  23.093  0.00  0.00    +0.000 OA
ENDBRANCH   8  11
ENDBRANCH   5   7
BRANCH   1  16
ATOM     16  O   UNL     1       2.786   5.363  20.054  0.00  0.00    +0.000 OA
BRANCH  16  17
ATOM     17  C   UNL     1       2.899   4.217  19.191  0.00  0.00    +0.000 C 
ATOM     18  C   UNL     1       2.063   3.040  19.716  0.00  0.00    +0.000 C 
BRANCH  17  19
ATOM     19  C   UNL     1       4.379   3.794  19.102  0.00  0.00    +0.000 C 
ATOM     20  O   UNL     1       4.942   3.168  20.004  0.00  0.00    +0.000 OA
BRANCH  19  25
ATOM     21  C   UNL     1       7.182   4.972  14.149  0.00  0.00    +0.000 C 
ATOM     22  C   UNL     1       6.470   4.633  15.425  0.00  0.00    +0.000 A 
ATOM     23  C   UNL     1       5.137   4.214  15.419  0.00  0.00    +0.000 A 
ATOM     24  C   UNL     1       4.482   3.933  16.621  0.00  0.00    +0.000 A 
ATOM     25  C   UNL     1       5.151   4.059  17.849  0.00  0.00    +0.000 A 
ATOM     26  C   UNL     1       6.488   4.465  17.852  0.00  0.00    +0.000 A 
ATOM     27  C   UNL     1       7.139   4.755  16.649  0.00  0.00    +0.000 A 
ENDBRANCH  19  25
ENDBRANCH  17  19
ENDBRANCH  16  17
ENDBRANCH   1  16
TORSDOF 6
ENDMDL
MODEL 4
REMARK VINA RESULT:      -7.8      4.274      9.050
REMARK  Name = 
REMARK  8 active torsions:
REMARK  status: ('A' for Active; 'I' for Inactive)
REMARK    1  A    between atoms: C_1  and  C_2
REMARK    2  A    between atoms: C_5  and  C_6
REMARK    3  A    between atoms: C_6  and  C_8
REMARK    4  A    between atoms: C_8  and  C_9
REMARK    5  A    between atoms: C_8  and  O_10
REMARK    6  A    between atoms: O_10  and  C_11
REMARK    7  A    between atoms: C_15  and  N_16
REMARK    8  A    between atoms: C_17  and  C_19
REMARK                            x       y       z     vdW  Elec       q    Type
REMARK                         _______ _______ _______ _____ _____    ______ ____
ROOT
ATOM      1  C   UNL     1       5.594   6.741  17.510  0.00  0.00    +0.000 A 
ATOM      2  C   UNL     1       6.614   6.330  18.363  0.00  0.00    +0.000 A 
ATOM      3  C   UNL     1       7.404   5.237  18.026  0.00  0.00    +0.000 A 
ATOM      4  C   UNL     1       7.176   4.539  16.841  0.00  0.00    +0.000 A 
ATOM      5  C   UNL     1       6.188   4.948  15.946  0.00  0.00    +0.000 A 
ATOM      6  C   UNL     1       5.426   6.087  16.272  0.00  0.00    +0.000 A 
ENDROOT
BRANCH   5   7
ATOM      7  N   UNL     1       5.902   4.238  14.753  0.00  0.00    +0.000 N 
ATOM      8  C   UNL     1       6.554   4.362  13.523  0.00  0.00    +0.000 C 
ATOM      9  O   UNL     1       7.441   5.163  13.265  0.00  0.00    +0.000 OA
ATOM     10  H   UNL     1       5.194   3.512  14.798  0.00  0.00    +0.000 HD
BRANCH   8  11
ATOM     11  C   UNL     1       6.085   3.417  12.520  0.00  0.00    +0.000 A 
ATOM     12  C   UNL     1       4.824   3.234  11.976  0.00  0.00    +0.000 A 
ATOM     13  C   UNL     1       4.935   2.191  11.027  0.00  0.00    +0.000 A 
ATOM     14  C   UNL     1       6.255   1.804  11.041  0.00  0.00    +0.000 A 
ATOM     15  O   UNL     1       6.961   2.533  11.944  0.00  0.00    +0.000 OA
ENDBRANCH   8  11
ENDBRANCH   5   7
BRANCH   1  16
ATOM     16  O   UNL     1       4.705   7.750  17.790  0.00  0.00    +0.000 OA
BRANCH  16  17
ATOM     17  C   UNL     1       3.296   7.478  17.677  0.00  0.00    +0.000 C 
ATOM     18  C   UNL     1       2.477   8.777  17.678  0.00  0.00    +0.000 C 
BRANCH  17  19
ATOM     19  C   UNL     1       2.855   6.594  18.861  0.00  0.00    +0.000 C 
ATOM     20  O   UNL     1       2.231   7.044  19.825  0.00  0.00    +0.000 OA
BRANCH  19  25
ATOM     21  C   UNL     1       3.868   0.888  18.430  0.00  0.00    +0.000 C 
ATOM     22  C   UNL     1       3.576   2.353  18.561  0.00  0.00    +0.000 A 
ATOM     23  C   UNL     1       2.800   3.023  17.611  0.00  0.00    +0.000 A 
ATOM     24  C   UNL     1       2.566   4.394  17.735  0.00  0.00    +0.000 A 
ATOM     25  C   UNL     1       3.098   5.119  18.814  0.00  0.00    +0.000 A 
ATOM     26  C   UNL     1       3.862   4.445  19.771  0.00  0.00    +0.000 A 
ATOM     27  C   UNL     1       4.103   3.073  19.640  0.00  0.00    +0.000 A 
ENDBRANCH  19  25
ENDBRANCH  17  19
ENDBRANCH  16  17
ENDBRANCH   1  16
TORSDOF 6
ENDMDL
MODEL 5
REMARK VINA RESULT:      -7.8      1.016      1.422
REMARK  Name = 
REMARK  8 active torsions:
REMARK  status: ('A' for Active; 'I' for Inactive)
REMARK    1  A    between atoms: C_1  and  C_2
REMARK    2  A    between atoms: C_5  and  C_6
REMARK    3  A    between atoms: C_6  and  C_8
REMARK    4  A    between atoms: C_8  and  C_9
REMARK    5  A    between atoms: C_8  and  O_10
REMARK    6  A    between atoms: O_10  and  C_11
REMARK    7  A    between atoms: C_15  and  N_16
REMARK    8  A    between atoms: C_17  and  C_19
REMARK                            x       y       z     vdW  Elec       q    Type
REMARK                         _______ _______ _______ _____ _____    ______ ____
ROOT
ATOM      1  C   UNL     1       2.225   7.032  19.632  0.00  0.00    +0.000 A 
ATOM      2  C   UNL     1       2.566   7.268  18.303  0.00  0.00    +0.000 A 
ATOM      3  C   UNL     1       2.239   8.481  17.707  0.00  0.00    +0.000 A 
ATOM      4  C   UNL     1       1.560   9.461  18.428  0.00  0.00    +0.000 A 
ATOM      5  C   UNL     1       1.239   9.272  19.772  0.00  0.00    +0.000 A 
ATOM      6  C   UNL     1       1.620   8.061  20.382  0.00  0.00    +0.000 A 
ENDROOT
BRANCH   5   7
ATOM      7  N   UNL     1       0.514  10.231  20.523  0.00  0.00    +0.000 N 
ATOM      8  C   UNL     1      -0.724  10.792  20.199  0.00  0.00    +0.000 C 
ATOM      9  O   UNL     1      -1.352  10.588  19.170  0.00  0.00    +0.000 OA
ATOM     10  H   UNL     1       0.890  10.501  21.426  0.00  0.00    +0.000 HD
BRANCH   8  11
ATOM     11  C   UNL     1      -1.248  11.676  21.231  0.00  0.00    +0.000 A 
ATOM     12  C   UNL     1      -0.747  11.994  22.482  0.00  0.00    +0.000 A 
ATOM     13  C   UNL     1      -1.646  12.920  23.061  0.00  0.00    +0.000 A 
ATOM     14  C   UNL     1      -2.639  13.117  22.129  0.00  0.00    +0.000 A 
ATOM     15  O   UNL     1      -2.414  12.367  21.019  0.00  0.00    +0.000 OA
ENDBRANCH   8  11
ENDBRANCH   5   7
BRANCH   1  16
ATOM     16  O   UNL     1       2.425   5.840  20.285  0.00  0.00    +0.000 OA
BRANCH  16  17
ATOM     17  C   UNL     1       2.069   4.618  19.613  0.00  0.00    +0.000 C 
ATOM     18  C   UNL     1       1.024   3.827  20.414  0.00  0.00    +0.000 C 
BRANCH  17  19
ATOM     19  C   UNL     1       3.333   3.755  19.428  0.00  0.00    +0.000 C 
ATOM     20  O   UNL     1       3.561   2.761  20.123  0.00  0.00    +0.000 OA
BRANCH  19  25
ATOM     21  C   UNL     1       7.192   4.798  15.211  0.00  0.00    +0.000 C 
ATOM     22  C   UNL     1       6.185   4.565  16.297  0.00  0.00    +0.000 A 
ATOM     23  C   UNL     1       6.519   4.741  17.642  0.00  0.00    +0.000 A 
ATOM     24  C   UNL     1       5.575   4.488  18.641  0.00  0.00    +0.000 A 
ATOM     25  C   UNL     1       4.280   4.059  18.311  0.00  0.00    +0.000 A 
ATOM     26  C   UNL     1       3.943   3.896  16.964  0.00  0.00    +0.000 A 
ATOM     27  C   UNL     1       4.891   4.142  15.967  0.00  0.00    +0.000 A 
ENDBRANCH  19  25
ENDBRANCH  17  19
ENDBRANCH  16  17
ENDBRANCH   1  16
TORSDOF 6
ENDMDL
MODEL 6
REMARK VINA RESULT:      -7.5      2.289      3.867
REMARK  Name = 
REMARK  8 active torsions:
REMARK  status: ('A' for Active; 'I' for Inactive)
REMARK    1  A    between atoms: C_1  and  C_2
REMARK    2  A    between atoms: C_5  and  C_6
REMARK    3  A    between atoms: C_6  and  C_8
REMARK    4  A    between atoms: C_8  and  C_9
REMARK    5  A    between atoms: C_8  and  O_10
REMARK    6  A    between atoms: O_10  and  C_11
REMARK    7  A    between atoms: C_15  and  N_16
REMARK    8  A    between atoms: C_17  and  C_19
REMARK                            x       y       z     vdW  Elec       q    Type
REMARK                         _______ _______ _______ _____ _____    ______ ____
ROOT
ATOM      1  C   UNL     1       3.653   5.651  18.684  0.00  0.00    +0.000 A 
ATOM      2  C   UNL     1       3.336   4.321  18.950  0.00  0.00    +0.000 A 
ATOM      3  C   UNL     1       2.356   4.014  19.887  0.00  0.00    +0.000 A 
ATOM      4  C   UNL     1       1.695   5.030  20.575  0.00  0.00    +0.000 A 
ATOM      5  C   UNL     1       1.961   6.372  20.305  0.00  0.00    +0.000 A 
ATOM      6  C   UNL     1       2.918   6.674  19.316  0.00  0.00    +0.000 A 
ENDROOT
BRANCH   5   7
ATOM      7  N   UNL     1       1.336   7.429  21.014  0.00  0.00    +0.000 N 
ATOM      8  C   UNL     1       1.052   8.711  20.535  0.00  0.00    +0.000 C 
ATOM      9  O   UNL     1       1.362   9.146  19.435  0.00  0.00    +0.000 OA
ATOM     10  H   UNL     1       0.995   7.229  21.949  0.00  0.00    +0.000 HD
BRANCH   8  11
ATOM     11  C   UNL     1       0.313   9.533  21.482  0.00  0.00    +0.000 A 
ATOM     12  C   UNL     1      -0.219   9.219  22.722  0.00  0.00    +0.000 A 
ATOM     13  C   UNL     1      -0.817  10.399  23.222  0.00  0.00    +0.000 A 
ATOM     14  C   UNL     1      -0.610  11.364  22.264  0.00  0.00    +0.000 A 
ATOM     15  O   UNL     1       0.068  10.853  21.204  0.00  0.00    +0.000 OA
ENDBRANCH   8  11
ENDBRANCH   5   7
BRANCH   1  16
ATOM     16  O   UNL     1       4.661   6.056  17.843  0.00  0.00    +0.000 OA
BRANCH  16  17
ATOM     17  C   UNL     1       5.896   5.317  17.842  0.00  0.00    +0.000 C 
ATOM     18  C   UNL     1       6.736   5.636  19.088  0.00  0.00    +0.000 C 
BRANCH  17  19
ATOM     19  C   UNL     1       6.700   5.677  16.576  0.00  0.00    +0.000 C 
ATOM     20  O   UNL     1       7.636   6.480  16.595  0.00  0.00    +0.000 OA
BRANCH  19  25
ATOM     21  C   UNL     1       5.825   2.825  11.589  0.00  0.00    +0.000 C 
ATOM     22  C   UNL     1       6.033   3.591  12.862  0.00  0.00    +0.000 A 
ATOM     23  C   UNL     1       7.177   4.368  13.059  0.00  0.00    +0.000 A 
ATOM     24  C   UNL     1       7.367   5.049  14.264  0.00  0.00    +0.000 A 
ATOM     25  C   UNL     1       6.413   4.968  15.291  0.00  0.00    +0.000 A 
ATOM     26  C   UNL     1       5.262   4.201  15.088  0.00  0.00    +0.000 A 
ATOM     27  C   UNL     1       5.079   3.514  13.884  0.00  0.00    +0.000 A 
ENDBRANCH  19  25
ENDBRANCH  17  19
ENDBRANCH  16  17
ENDBRANCH   1  16
TORSDOF 6
ENDMDL
MODEL 7
REMARK VINA RESULT:      -7.5      0.834      1.370
REMARK  Name = 
REMARK  8 active torsions:
REMARK  status: ('A' for Active; 'I' for Inactive)
REMARK    1  A    between atoms: C_1  and  C_2
REMARK    2  A    between atoms: C_5  and  C_6
REMARK    3  A    between atoms: C_6  and  C_8
REMARK    4  A    between atoms: C_8  and  C_9
REMARK    5  A    between atoms: C_8  and  O_10
REMARK    6  A    between atoms: O_10  and  C_11
REMARK    7  A    between atoms: C_15  and  N_16
REMARK    8  A    between atoms: C_17  and  C_19
REMARK                            x       y       z     vdW  Elec       q    Type
REMARK                         _______ _______ _______ _____ _____    ______ ____
ROOT
ATOM      1  C   UNL     1       2.476   6.799  19.429  0.00  0.00    +0.000 A 
ATOM      2  C   UNL     1       2.693   7.186  18.110  0.00  0.00    +0.000 A 
ATOM      3  C   UNL     1       2.206   8.405  17.654  0.00  0.00    +0.000 A 
ATOM      4  C   UNL     1       1.488   9.242  18.507  0.00  0.00    +0.000 A 
ATOM      5  C   UNL     1       1.286   8.902  19.844  0.00  0.00    +0.000 A 
ATOM      6  C   UNL     1       1.828   7.689  20.311  0.00  0.00    +0.000 A 
ENDROOT
BRANCH   5   7
ATOM      7  N   UNL     1       0.527   9.710  20.727  0.00  0.00    +0.000 N 
ATOM      8  C   UNL     1       0.689  11.077  20.967  0.00  0.00    +0.000 C 
ATOM      9  O   UNL     1       1.567  11.784  20.493  0.00  0.00    +0.000 OA
ATOM     10  H   UNL     1      -0.264   9.279  21.195  0.00  0.00    +0.000 HD
BRANCH   8  11
ATOM     11  C   UNL     1      -0.318  11.634  21.858  0.00  0.00    +0.000 A 
ATOM     12  C   UNL     1      -0.616  12.951  22.168  0.00  0.00    +0.000 A 
ATOM     13  C   UNL     1      -1.701  12.923  23.075  0.00  0.00    +0.000 A 
ATOM     14  C   UNL     1      -2.006  11.594  23.261  0.00  0.00    +0.000 A 
ATOM     15  O   UNL     1      -1.174  10.804  22.535  0.00  0.00    +0.000 OA
ENDBRANCH   8  11
ENDBRANCH   5   7
BRANCH   1  16
ATOM     16  O   UNL     1       2.839   5.582  19.952  0.00  0.00    +0.000 OA
BRANCH  16  17
ATOM     17  C   UNL     1       3.062   4.483  19.049  0.00  0.00    +0.000 C 
ATOM     18  C   UNL     1       2.385   3.200  19.555  0.00  0.00    +0.000 C 
BRANCH  17  19
ATOM     19  C   UNL     1       4.579   4.241  18.911  0.00  0.00    +0.000 C 
ATOM     20  O   UNL     1       5.264   3.802  19.838  0.00  0.00    +0.000 OA
BRANCH  19  25
ATOM     21  C   UNL     1       7.334   4.867  13.833  0.00  0.00    +0.000 C 
ATOM     22  C   UNL     1       6.619   4.742  15.146  0.00  0.00    +0.000 A 
ATOM     23  C   UNL     1       7.324   4.723  16.353  0.00  0.00    +0.000 A 
ATOM     24  C   UNL     1       6.642   4.575  17.563  0.00  0.00    +0.000 A 
ATOM     25  C   UNL     1       5.244   4.449  17.588  0.00  0.00    +0.000 A 
ATOM     26  C   UNL     1       4.540   4.482  16.381  0.00  0.00    +0.000 A 
ATOM     27  C   UNL     1       5.225   4.622  15.171  0.00  0.00    +0.000 A 
ENDBRANCH  19  25
ENDBRANCH  17  19
ENDBRANCH  16  17
ENDBRANCH   1  16
TORSDOF 6
ENDMDL
MODEL 8
REMARK VINA RESULT:      -7.5      3.842      7.036
REMARK  Name = 
REMARK  8 active torsions:
REMARK  status: ('A' for Active; 'I' for Inactive)
REMARK    1  A    between atoms: C_1  and  C_2
REMARK    2  A    between atoms: C_5  and  C_6
REMARK    3  A    between atoms: C_6  and  C_8
REMARK    4  A    between atoms: C_8  and  C_9
REMARK    5  A    between atoms: C_8  and  O_10
REMARK    6  A    between atoms: O_10  and  C_11
REMARK    7  A    between atoms: C_15  and  N_16
REMARK    8  A    between atoms: C_17  and  C_19
REMARK                            x       y       z     vdW  Elec       q    Type
REMARK                         _______ _______ _______ _____ _____    ______ ____
ROOT
ATOM      1  C   UNL     1       4.408   3.472  18.822  0.00  0.00    +0.000 A 
ATOM      2  C   UNL     1       4.113   3.079  17.519  0.00  0.00    +0.000 A 
ATOM      3  C   UNL     1       4.624   3.796  16.444  0.00  0.00    +0.000 A 
ATOM      4  C   UNL     1       5.421   4.919  16.659  0.00  0.00    +0.000 A 
ATOM      5  C   UNL     1       5.767   5.318  17.950  0.00  0.00    +0.000 A 
ATOM      6  C   UNL     1       5.288   4.553  19.033  0.00  0.00    +0.000 A 
ENDROOT
BRANCH   5   7
ATOM      7  N   UNL     1       6.542   6.476  18.206  0.00  0.00    +0.000 N 
ATOM      8  C   UNL     1       7.470   7.074  17.349  0.00  0.00    +0.000 C 
ATOM      9  O   UNL     1       7.810   6.644  16.256  0.00  0.00    +0.000 OA
ATOM     10  H   UNL     1       6.369   6.974  19.073  0.00  0.00    +0.000 HD
BRANCH   8  11
ATOM     11  C   UNL     1       8.027   8.314  17.870  0.00  0.00    +0.000 A 
ATOM     12  C   UNL     1       7.877   9.620  17.435  0.00  0.00    +0.000 A 
ATOM     13  C   UNL     1       8.621  10.435  18.320  0.00  0.00    +0.000 A 
ATOM     14  C   UNL     1       9.175   9.581  19.246  0.00  0.00    +0.000 A 
ATOM     15  O   UNL     1       8.829   8.295  18.983  0.00  0.00    +0.000 OA
ENDBRANCH   8  11
ENDBRANCH   5   7
BRANCH   1  16
ATOM     16  O   UNL     1       3.885   2.885  19.948  0.00  0.00    +0.000 OA
BRANCH  16  17
ATOM     17  C   UNL     1       2.964   3.642  20.756  0.00  0.00    +0.000 C 
ATOM     18  C   UNL     1       2.297   2.756  21.818  0.00  0.00    +0.000 C 
BRANCH  17  19
ATOM     19  C   UNL     1       1.881   4.256  19.847  0.00  0.00    +0.000 C 
ATOM     20  O   UNL     1       0.919   3.604  19.432  0.00  0.00    +0.000 OA
BRANCH  19  25
ATOM     21  C   UNL     1       1.901   9.882  18.389  0.00  0.00    +0.000 C 
ATOM     22  C   UNL     1       1.932   8.432  18.773  0.00  0.00    +0.000 A 
ATOM     23  C   UNL     1       2.157   7.437  17.817  0.00  0.00    +0.000 A 
ATOM     24  C   UNL     1       2.151   6.091  18.189  0.00  0.00    +0.000 A 
ATOM     25  C   UNL     1       1.927   5.716  19.523  0.00  0.00    +0.000 A 
ATOM     26  C   UNL     1       1.716   6.713  20.480  0.00  0.00    +0.000 A 
ATOM     27  C   UNL     1       1.714   8.059  20.104  0.00  0.00    +0.000 A 
ENDBRANCH  19  25
ENDBRANCH  17  19
ENDBRANCH  16  17
ENDBRANCH   1  16
TORSDOF 6
ENDMDL
MODEL 9
REMARK VINA RESULT:      -7.5      2.678      4.031
REMARK  Name = 
REMARK  8 active torsions:
REMARK  status: ('A' for Active; 'I' for Inactive)
REMARK    1  A    between atoms: C_1  and  C_2
REMARK    2  A    between atoms: C_5  and  C_6
REMARK    3  A    between atoms: C_6  and  C_8
REMARK    4  A    between atoms: C_8  and  C_9
REMARK    5  A    between atoms: C_8  and  O_10
REMARK    6  A    between atoms: O_10  and  C_11
REMARK    7  A    between atoms: C_15  and  N_16
REMARK    8  A    between atoms: C_17  and  C_19
REMARK                            x       y       z     vdW  Elec       q    Type
REMARK                         _______ _______ _______ _____ _____    ______ ____
ROOT
ATOM      1  C   UNL     1       4.323   6.613  17.993  0.00  0.00    +0.000 A 
ATOM      2  C   UNL     1       4.088   5.648  18.969  0.00  0.00    +0.000 A 
ATOM      3  C   UNL     1       2.954   5.731  19.769  0.00  0.00    +0.000 A 
ATOM      4  C   UNL     1       2.053   6.782  19.610  0.00  0.00    +0.000 A 
ATOM      5  C   UNL     1       2.238   7.743  18.616  0.00  0.00    +0.000 A 
ATOM      6  C   UNL     1       3.362   7.622  17.776  0.00  0.00    +0.000 A 
ENDROOT
BRANCH   5   7
ATOM      7  N   UNL     1       1.363   8.846  18.453  0.00  0.00    +0.000 N 
ATOM      8  C   UNL     1       0.878   9.690  19.456  0.00  0.00    +0.000 C 
ATOM      9  O   UNL     1       1.083   9.564  20.655  0.00  0.00    +0.000 OA
ATOM     10  H   UNL     1       1.105   9.104  17.506  0.00  0.00    +0.000 HD
BRANCH   8  11
ATOM     11  C   UNL     1       0.076  10.793  18.948  0.00  0.00    +0.000 A 
ATOM     12  C   UNL     1      -1.164  10.794  18.331  0.00  0.00    +0.000 A 
ATOM     13  C   UNL     1      -1.487  12.145  18.062  0.00  0.00    +0.000 A 
ATOM     14  C   UNL     1      -0.430  12.888  18.534  0.00  0.00    +0.000 A 
ATOM     15  O   UNL     1       0.524  12.083  19.067  0.00  0.00    +0.000 OA
ENDBRANCH   8  11
ENDBRANCH   5   7
BRANCH   1  16
ATOM     16  O   UNL     1       5.451   6.669  17.212  0.00  0.00    +0.000 OA
BRANCH  16  17
ATOM     17  C   UNL     1       6.728   6.420  17.828  0.00  0.00    +0.000 C 
ATOM     18  C   UNL     1       7.698   7.586  17.590  0.00  0.00    +0.000 C 
BRANCH  17  19
ATOM     19  C   UNL     1       7.329   5.127  17.240  0.00  0.00    +0.000 C 
ATOM     20  O   UNL     1       8.105   4.410  17.878  0.00  0.00    +0.000 OA
BRANCH  19  25
ATOM     21  C   UNL     1       5.403   3.357  12.051  0.00  0.00    +0.000 C 
ATOM     22  C   UNL     1       5.923   3.785  13.391  0.00  0.00    +0.000 A 
ATOM     23  C   UNL     1       5.315   3.353  14.573  0.00  0.00    +0.000 A 
ATOM     24  C   UNL     1       5.796   3.788  15.811  0.00  0.00    +0.000 A 
ATOM     25  C   UNL     1       6.896   4.657  15.888  0.00  0.00    +0.000 A 
ATOM     26  C   UNL     1       7.511   5.077  14.705  0.00  0.00    +0.000 A 
ATOM     27  C   UNL     1       7.023   4.647  13.468  0.00  0.00    +0.000 A 
ENDBRANCH  19  25
ENDBRANCH  17  19
ENDBRANCH  16  17
ENDBRANCH   1  16
TORSDOF 6
ENDMDL
