MODEL 1
REMARK VINA RESULT:      -4.6      0.000      0.000
REMARK  Name = 
REMARK  4 active torsions:
REMARK  status: ('A' for Active; 'I' for Inactive)
REMARK    1  A    between atoms: C_1  and  C_2
REMARK    2  A    between atoms: C_2  and  C_3
REMARK    3  A    between atoms: C_2  and  C_5
REMARK    4  A    between atoms: C_3  and  N_4
REMARK                            x       y       z     vdW  Elec       q    Type
REMARK                         _______ _______ _______ _____ _____    ______ ____
ROOT
ATOM      1  C   UNL     1       7.588   7.599  17.380  0.00  0.00    +0.000 C 
ATOM      2  C   UNL     1       6.872   6.249  17.545  0.00  0.00    +0.000 C 
ENDROOT
BRANCH   2   3
ATOM      3  C   UNL     1       6.566   5.580  16.223  0.00  0.00    +0.000 A 
ATOM      4  C   UNL     1       5.350   5.093  15.777  0.00  0.00    +0.000 A 
ATOM      5  N   UNL     1       5.535   4.584  14.548  0.00  0.00    +0.000 N 
ATOM      6  C   UNL     1       6.837   4.764  14.266  0.00  0.00    +0.000 A 
ATOM      7  N   UNL     1       7.499   5.370  15.271  0.00  0.00    +0.000 NA
ATOM      8  H   UNL     1       4.814   4.140  13.939  0.00  0.00    +0.000 HD
ENDBRANCH   2   3
BRANCH   2   9
ATOM      9  C   UNL     1       7.665   5.294  18.473  0.00  0.00    +0.000 C 
BRANCH   9  10
ATOM     10  N   UNL     1       8.147   4.090  17.794  0.00  0.00    +0.000 NA
ATOM     11  H   UNL     1       7.380   3.390  17.696  0.00  0.00    +0.000 HD
ATOM     12  H   UNL     1       8.947   3.668  18.318  0.00  0.00    +0.000 HD
ENDBRANCH   9  10
ENDBRANCH   2   9
TORSDOF 3
ENDMDL
MODEL 2
REMARK VINA RESULT:      -4.5      5.145      6.241
REMARK  Name = 
REMARK  4 active torsions:
REMARK  status: ('A' for Active; 'I' for Inactive)
REMARK    1  A    between atoms: C_1  and  C_2
REMARK    2  A    between atoms: C_2  and  C_3
REMARK    3  A    between atoms: C_2  and  C_5
REMARK    4  A    between atoms: C_3  and  N_4
REMARK                            x       y       z     vdW  Elec       q    Type
REMARK                         _______ _______ _______ _____ _____    ______ ____
ROOT
ATOM      1  C   UNL     1       1.673   2.698  21.583  0.00  0.00    +0.000 C 
ATOM      2  C   UNL     1       1.817   3.480  20.267  0.00  0.00    +0.000 C 
ENDROOT
BRANCH   2   3
ATOM      3  C   UNL     1       3.255   3.611  19.815  0.00  0.00    +0.000 A 
ATOM      4  C   UNL     1       4.249   2.649  19.849  0.00  0.00    +0.000 A 
ATOM      5  N   UNL     1       5.369   3.195  19.349  0.00  0.00    +0.000 N 
ATOM      6  C   UNL     1       5.050   4.460  19.022  0.00  0.00    +0.000 A 
ATOM      7  N   UNL     1       3.762   4.749  19.296  0.00  0.00    +0.000 NA
ATOM      8  H   UNL     1       6.297   2.731  19.237  0.00  0.00    +0.000 HD
ENDBRANCH   2   3
BRANCH   2   9
ATOM      9  C   UNL     1       0.942   2.869  19.143  0.00  0.00    +0.000 C 
BRANCH   9  10
ATOM     10  N   UNL     1       1.189   3.460  17.827  0.00  0.00    +0.000 NA
ATOM     11  H   UNL     1       0.696   4.375  17.735  0.00  0.00    +0.000 HD
ATOM     12  H   UNL     1       0.879   2.811  17.069  0.00  0.00    +0.000 HD
ENDBRANCH   9  10
ENDBRANCH   2   9
TORSDOF 3
ENDMDL
MODEL 3
REMARK VINA RESULT:      -4.4      1.120      1.120
REMARK  Name = 
REMARK  4 active torsions:
REMARK  status: ('A' for Active; 'I' for Inactive)
REMARK    1  A    between atoms: C_1  and  C_2
REMARK    2  A    between atoms: C_2  and  C_3
REMARK    3  A    between atoms: C_2  and  C_5
REMARK    4  A    between atoms: C_3  and  N_4
REMARK                            x       y       z     vdW  Elec       q    Type
REMARK                         _______ _______ _______ _____ _____    ______ ____
ROOT
ATOM      1  C   UNL     1       7.574   7.371  17.497  0.00  0.00    +0.000 C 
ATOM      2  C   UNL     1       7.012   5.953  17.683  0.00  0.00    +0.000 C 
ENDROOT
BRANCH   2   3
ATOM      3  C   UNL     1       6.841   5.211  16.376  0.00  0.00    +0.000 A 
ATOM      4  C   UNL     1       6.132   4.046  16.145  0.00  0.00    +0.000 A 
ATOM      5  N   UNL     1       6.246   3.744  14.841  0.00  0.00    +0.000 N 
ATOM      6  C   UNL     1       7.010   4.711  14.304  0.00  0.00    +0.000 A 
ATOM      7  N   UNL     1       7.394   5.626  15.217  0.00  0.00    +0.000 NA
ATOM      8  H   UNL     1       5.827   2.926  14.348  0.00  0.00    +0.000 HD
ENDBRANCH   2   3
BRANCH   2   9
ATOM      9  C   UNL     1       7.868   5.126  18.675  0.00  0.00    +0.000 C 
BRANCH   9  10
ATOM     10  N   UNL     1       7.737   5.566  20.065  0.00  0.00    +0.000 NA
ATOM     11  H   UNL     1       8.239   4.914  20.707  0.00  0.00    +0.000 HD
ATOM     12  H   UNL     1       6.730   5.626  20.338  0.00  0.00    +0.000 HD
ENDBRANCH   9  10
ENDBRANCH   2   9
TORSDOF 3
ENDMDL
MODEL 4
REMARK VINA RESULT:      -4.3      1.521      1.722
REMARK  Name = 
REMARK  4 active torsions:
REMARK  status: ('A' for Active; 'I' for Inactive)
REMARK    1  A    between atoms: C_1  and  C_2
REMARK    2  A    between atoms: C_2  and  C_3
REMARK    3  A    between atoms: C_2  and  C_5
REMARK    4  A    between atoms: C_3  and  N_4
REMARK                            x       y       z     vdW  Elec       q    Type
REMARK                         _______ _______ _______ _____ _____    ______ ____
ROOT
ATOM      1  C   UNL     1       7.907   5.749  19.127  0.00  0.00    +0.000 C 
ATOM      2  C   UNL     1       6.506   5.852  18.502  0.00  0.00    +0.000 C 
ENDROOT
BRANCH   2   3
ATOM      3  C   UNL     1       6.502   5.560  17.018  0.00  0.00    +0.000 A 
ATOM      4  C   UNL     1       5.646   6.064  16.054  0.00  0.00    +0.000 A 
ATOM      5  N   UNL     1       6.003   5.540  14.870  0.00  0.00    +0.000 N 
ATOM      6  C   UNL     1       7.053   4.737  15.123  0.00  0.00    +0.000 A 
ATOM      7  N   UNL     1       7.383   4.725  16.430  0.00  0.00    +0.000 NA
ATOM      8  H   UNL     1       5.557   5.719  13.944  0.00  0.00    +0.000 HD
ENDBRANCH   2   3
BRANCH   2   9
ATOM      9  C   UNL     1       5.484   4.954  19.242  0.00  0.00    +0.000 C 
BRANCH   9  10
ATOM     10  N   UNL     1       5.642   3.528  18.949  0.00  0.00    +0.000 NA
ATOM     11  H   UNL     1       5.504   3.344  17.931  0.00  0.00    +0.000 HD
ATOM     12  H   UNL     1       4.966   2.961  19.508  0.00  0.00    +0.000 HD
ENDBRANCH   9  10
ENDBRANCH   2   9
TORSDOF 3
ENDMDL
MODEL 5
REMARK VINA RESULT:      -4.3      1.592      1.889
REMARK  Name = 
REMARK  4 active torsions:
REMARK  status: ('A' for Active; 'I' for Inactive)
REMARK    1  A    between atoms: C_1  and  C_2
REMARK    2  A    between atoms: C_2  and  C_3
REMARK    3  A    between atoms: C_2  and  C_5
REMARK    4  A    between atoms: C_3  and  N_4
REMARK                            x       y       z     vdW  Elec       q    Type
REMARK                         _______ _______ _______ _____ _____    ______ ____
ROOT
ATOM      1  C   UNL     1       5.210   5.263  19.209  0.00  0.00    +0.000 C 
ATOM      2  C   UNL     1       6.564   4.985  18.536  0.00  0.00    +0.000 C 
ENDROOT
BRANCH   2   3
ATOM      3  C   UNL     1       6.513   5.129  17.031  0.00  0.00    +0.000 A 
ATOM      4  C   UNL     1       5.584   5.818  16.273  0.00  0.00    +0.000 A 
ATOM      5  N   UNL     1       5.922   5.683  14.981  0.00  0.00    +0.000 N 
ATOM      6  C   UNL     1       7.034   4.926  14.967  0.00  0.00    +0.000 A 
ATOM      7  N   UNL     1       7.423   4.568  16.208  0.00  0.00    +0.000 NA
ATOM      8  H   UNL     1       5.424   6.083  14.156  0.00  0.00    +0.000 HD
ENDBRANCH   2   3
BRANCH   2   9
ATOM      9  C   UNL     1       7.689   5.867  19.134  0.00  0.00    +0.000 C 
BRANCH   9  10
ATOM     10  N   UNL     1       8.127   5.432  20.461  0.00  0.00    +0.000 NA
ATOM     11  H   UNL     1       7.896   6.152  21.180  0.00  0.00    +0.000 HD
ATOM     12  H   UNL     1       9.155   5.243  20.465  0.00  0.00    +0.000 HD
ENDBRANCH   9  10
ENDBRANCH   2   9
TORSDOF 3
ENDMDL
MODEL 6
REMARK VINA RESULT:      -4.3      1.167      1.167
REMARK  Name = 
REMARK  4 active torsions:
REMARK  status: ('A' for Active; 'I' for Inactive)
REMARK    1  A    between atoms: C_1  and  C_2
REMARK    2  A    between atoms: C_2  and  C_3
REMARK    3  A    between atoms: C_2  and  C_5
REMARK    4  A    between atoms: C_3  and  N_4
REMARK                            x       y       z     vdW  Elec       q    Type
REMARK                         _______ _______ _______ _____ _____    ______ ____
ROOT
ATOM      1  C   UNL     1       7.828   8.099  17.509  0.00  0.00    +0.000 C 
ATOM      2  C   UNL     1       7.069   6.830  17.926  0.00  0.00    +0.000 C 
ENDROOT
BRANCH   2   3
ATOM      3  C   UNL     1       6.703   5.950  16.751  0.00  0.00    +0.000 A 
ATOM      4  C   UNL     1       5.593   6.045  15.930  0.00  0.00    +0.000 A 
ATOM      5  N   UNL     1       5.670   5.064  15.016  0.00  0.00    +0.000 N 
ATOM      6  C   UNL     1       6.805   4.396  15.287  0.00  0.00    +0.000 A 
ATOM      7  N   UNL     1       7.462   4.911  16.345  0.00  0.00    +0.000 NA
ATOM      8  H   UNL     1       4.988   4.863  14.253  0.00  0.00    +0.000 HD
ENDBRANCH   2   3
BRANCH   2   9
ATOM      9  C   UNL     1       7.850   6.023  18.993  0.00  0.00    +0.000 C 
BRANCH   9  10
ATOM     10  N   UNL     1       7.011   5.096  19.754  0.00  0.00    +0.000 NA
ATOM     11  H   UNL     1       7.451   4.151  19.797  0.00  0.00    +0.000 HD
ATOM     12  H   UNL     1       6.060   5.025  19.325  0.00  0.00    +0.000 HD
ENDBRANCH   9  10
ENDBRANCH   2   9
TORSDOF 3
ENDMDL
MODEL 7
REMARK VINA RESULT:      -4.2      2.847      3.707
REMARK  Name = 
REMARK  4 active torsions:
REMARK  status: ('A' for Active; 'I' for Inactive)
REMARK    1  A    between atoms: C_1  and  C_2
REMARK    2  A    between atoms: C_2  and  C_3
REMARK    3  A    between atoms: C_2  and  C_5
REMARK    4  A    between atoms: C_3  and  N_4
REMARK                            x       y       z     vdW  Elec       q    Type
REMARK                         _______ _______ _______ _____ _____    ______ ____
ROOT
ATOM      1  C   UNL     1       7.479   4.652  16.968  0.00  0.00    +0.000 C 
ATOM      2  C   UNL     1       6.841   5.622  17.975  0.00  0.00    +0.000 C 
ENDROOT
BRANCH   2   3
ATOM      3  C   UNL     1       5.633   5.035  18.673  0.00  0.00    +0.000 A 
ATOM      4  C   UNL     1       4.442   5.665  18.986  0.00  0.00    +0.000 A 
ATOM      5  N   UNL     1       3.650   4.771  19.599  0.00  0.00    +0.000 N 
ATOM      6  C   UNL     1       4.356   3.627  19.651  0.00  0.00    +0.000 A 
ATOM      7  N   UNL     1       5.577   3.755  19.094  0.00  0.00    +0.000 NA
ATOM      8  H   UNL     1       2.685   4.931  19.961  0.00  0.00    +0.000 HD
ENDBRANCH   2   3
BRANCH   2   9
ATOM      9  C   UNL     1       7.876   6.134  19.007  0.00  0.00    +0.000 C 
BRANCH   9  10
ATOM     10  N   UNL     1       7.819   5.430  20.289  0.00  0.00    +0.000 NA
ATOM     11  H   UNL     1       7.788   6.108  21.081  0.00  0.00    +0.000 HD
ATOM     12  H   UNL     1       8.642   4.795  20.397  0.00  0.00    +0.000 HD
ENDBRANCH   9  10
ENDBRANCH   2   9
TORSDOF 3
ENDMDL
MODEL 8
REMARK VINA RESULT:      -4.2      5.421      6.182
REMARK  Name = 
REMARK  4 active torsions:
REMARK  status: ('A' for Active; 'I' for Inactive)
REMARK    1  A    between atoms: C_1  and  C_2
REMARK    2  A    between atoms: C_2  and  C_3
REMARK    3  A    between atoms: C_2  and  C_5
REMARK    4  A    between atoms: C_3  and  N_4
REMARK                            x       y       z     vdW  Elec       q    Type
REMARK                         _______ _______ _______ _____ _____    ______ ____
ROOT
ATOM      1  C   UNL     1       1.334   2.808  21.164  0.00  0.00    +0.000 C 
ATOM      2  C   UNL     1       2.215   4.060  21.017  0.00  0.00    +0.000 C 
ENDROOT
BRANCH   2   3
ATOM      3  C   UNL     1       3.446   3.817  20.172  0.00  0.00    +0.000 A 
ATOM      4  C   UNL     1       4.109   2.621  19.958  0.00  0.00    +0.000 A 
ATOM      5  N   UNL     1       5.147   2.864  19.141  0.00  0.00    +0.000 N 
ATOM      6  C   UNL     1       5.103   4.181  18.871  0.00  0.00    +0.000 A 
ATOM      7  N   UNL     1       4.074   4.796  19.489  0.00  0.00    +0.000 NA
ATOM      8  H   UNL     1       5.843   2.172  18.788  0.00  0.00    +0.000 HD
ENDBRANCH   2   3
BRANCH   2   9
ATOM      9  C   UNL     1       1.407   5.265  20.476  0.00  0.00    +0.000 C 
BRANCH   9  10
ATOM     10  N   UNL     1       1.965   6.562  20.861  0.00  0.00    +0.000 NA
ATOM     11  H   UNL     1       3.006   6.510  20.928  0.00  0.00    +0.000 HD
ATOM     12  H   UNL     1       1.567   6.877  21.775  0.00  0.00    +0.000 HD
ENDBRANCH   9  10
ENDBRANCH   2   9
TORSDOF 3
ENDMDL
MODEL 9
REMARK VINA RESULT:      -4.2      5.218      5.897
REMARK  Name = 
REMARK  4 active torsions:
REMARK  status: ('A' for Active; 'I' for Inactive)
REMARK    1  A    between atoms: C_1  and  C_2
REMARK    2  A    between atoms: C_2  and  C_3
REMARK    3  A    between atoms: C_2  and  C_5
REMARK    4  A    between atoms: C_3  and  N_4
REMARK                            x       y       z     vdW  Elec       q    Type
REMARK                         _______ _______ _______ _____ _____    ______ ____
ROOT
ATOM      1  C   UNL     1       1.491   5.056  20.609  0.00  0.00    +0.000 C 
ATOM      2  C   UNL     1       1.931   3.819  19.808  0.00  0.00    +0.000 C 
ENDROOT
BRANCH   2   3
ATOM      3  C   UNL     1       3.390   3.864  19.411  0.00  0.00    +0.000 A 
ATOM      4  C   UNL     1       4.356   2.894  19.610  0.00  0.00    +0.000 A 
ATOM      5  N   UNL     1       5.511   3.350  19.099  0.00  0.00    +0.000 N 
ATOM      6  C   UNL     1       5.240   4.570  18.604  0.00  0.00    +0.000 A 
ATOM      7  N   UNL     1       3.949   4.918  18.780  0.00  0.00    +0.000 NA
ATOM      8  H   UNL     1       6.431   2.857  19.089  0.00  0.00    +0.000 HD
ENDBRANCH   2   3
BRANCH   2   9
ATOM      9  C   UNL     1       1.607   2.506  20.564  0.00  0.00    +0.000 C 
BRANCH   9  10
ATOM     10  N   UNL     1       1.651   2.646  22.020  0.00  0.00    +0.000 NA
ATOM     11  H   UNL     1       0.770   3.078  22.375  0.00  0.00    +0.000 HD
ATOM     12  H   UNL     1       2.472   3.224  22.309  0.00  0.00    +0.000 HD
ENDBRANCH   9  10
ENDBRANCH   2   9
TORSDOF 3
ENDMDL
