MODEL 1
REMARK VINA RESULT:      -6.4      0.000      0.000
REMARK  Name = 
REMARK  5 active torsions:
REMARK  status: ('A' for Active; 'I' for Inactive)
REMARK    1  A    between atoms: C_1  and  O_2
REMARK    2  A    between atoms: O_2  and  C_3
REMARK    3  A    between atoms: C_13  and  C_15
REMARK    4  A    between atoms: C_15  and  S_16
REMARK    5  A    between atoms: S_16  and  C_17
REMARK                            x       y       z     vdW  Elec       q    Type
REMARK                         _______ _______ _______ _____ _____    ______ ____
ROOT
ATOM      1  C   UNL     1       6.733   4.775  14.434  0.00  0.00    +0.000 A 
ATOM      2  C   UNL     1       5.501   4.148  14.575  0.00  0.00    +0.000 A 
ATOM      3  C   UNL     1       4.911   4.035  15.839  0.00  0.00    +0.000 A 
ATOM      4  C   UNL     1       5.533   4.540  16.986  0.00  0.00    +0.000 A 
ATOM      5  C   UNL     1       6.754   5.226  16.835  0.00  0.00    +0.000 A 
ATOM      6  C   UNL     1       7.342   5.328  15.559  0.00  0.00    +0.000 A 
ATOM      7  C   UNL     1       7.468   5.869  17.998  0.00  0.00    +0.000 C 
ATOM      8  C   UNL     1       6.920   5.423  19.347  0.00  0.00    +0.000 C 
ATOM      9  C   UNL     1       5.403   5.376  19.282  0.00  0.00    +0.000 C 
ATOM     10  N   UNL     1       4.967   4.370  18.301  0.00  0.00    +0.000 N 
ATOM     11  C   UNL     1       4.159   3.265  18.612  0.00  0.00    +0.000 C 
ATOM     12  O   UNL     1       3.818   2.397  17.800  0.00  0.00    +0.000 OA
ENDROOT
BRANCH   1  14
ATOM     13  C   UNL     1       7.036   4.077  12.186  0.00  0.00    +0.000 C 
ATOM     14  O   UNL     1       7.432   4.916  13.266  0.00  0.00    +0.000 OA
ENDBRANCH   1  14
BRANCH  11  15
ATOM     15  C   UNL     1       3.707   3.073  20.054  0.00  0.00    +0.000 C 
BRANCH  15  16
ATOM     16  S   UNL     1       2.097   3.862  20.362  0.00  0.00    +0.000 S 
ATOM     17  C   UNL     1       1.429   2.682  21.567  0.00  0.00    +0.000 C 
ENDBRANCH  15  16
ENDBRANCH  11  15
TORSDOF 3
ENDMDL
MODEL 2
REMARK VINA RESULT:      -6.3      2.525      3.367
REMARK  Name = 
REMARK  5 active torsions:
REMARK  status: ('A' for Active; 'I' for Inactive)
REMARK    1  A    between atoms: C_1  and  O_2
REMARK    2  A    between atoms: O_2  and  C_3
REMARK    3  A    between atoms: C_13  and  C_15
REMARK    4  A    between atoms: C_15  and  S_16
REMARK    5  A    between atoms: S_16  and  C_17
REMARK                            x       y       z     vdW  Elec       q    Type
REMARK                         _______ _______ _______ _____ _____    ______ ____
ROOT
ATOM      1  C   UNL     1       7.196   6.730  17.349  0.00  0.00    +0.000 A 
ATOM      2  C   UNL     1       7.417   5.392  17.650  0.00  0.00    +0.000 A 
ATOM      3  C   UNL     1       6.337   4.549  17.935  0.00  0.00    +0.000 A 
ATOM      4  C   UNL     1       5.018   5.017  17.929  0.00  0.00    +0.000 A 
ATOM      5  C   UNL     1       4.790   6.359  17.567  0.00  0.00    +0.000 A 
ATOM      6  C   UNL     1       5.885   7.201  17.288  0.00  0.00    +0.000 A 
ATOM      7  C   UNL     1       3.403   6.942  17.461  0.00  0.00    +0.000 C 
ATOM      8  C   UNL     1       2.339   6.052  18.088  0.00  0.00    +0.000 C 
ATOM      9  C   UNL     1       2.616   4.604  17.723  0.00  0.00    +0.000 C 
ATOM     10  N   UNL     1       3.905   4.175  18.287  0.00  0.00    +0.000 N 
ATOM     11  C   UNL     1       4.055   3.108  19.187  0.00  0.00    +0.000 C 
ATOM     12  O   UNL     1       5.130   2.764  19.692  0.00  0.00    +0.000 OA
ENDROOT
BRANCH   1  14
ATOM     13  C   UNL     1       8.014   8.923  17.741  0.00  0.00    +0.000 C 
ATOM     14  O   UNL     1       8.161   7.665  17.091  0.00  0.00    +0.000 OA
ENDBRANCH   1  14
BRANCH  11  15
ATOM     15  C   UNL     1       2.814   2.344  19.629  0.00  0.00    +0.000 C 
BRANCH  15  16
ATOM     16  S   UNL     1       2.355   2.747  21.343  0.00  0.00    +0.000 S 
ATOM     17  C   UNL     1       1.356   4.229  21.028  0.00  0.00    +0.000 C 
ENDBRANCH  15  16
ENDBRANCH  11  15
TORSDOF 3
ENDMDL
MODEL 3
REMARK VINA RESULT:      -6.3      2.184      3.179
REMARK  Name = 
REMARK  5 active torsions:
REMARK  status: ('A' for Active; 'I' for Inactive)
REMARK    1  A    between atoms: C_1  and  O_2
REMARK    2  A    between atoms: O_2  and  C_3
REMARK    3  A    between atoms: C_13  and  C_15
REMARK    4  A    between atoms: C_15  and  S_16
REMARK    5  A    between atoms: S_16  and  C_17
REMARK                            x       y       z     vdW  Elec       q    Type
REMARK                         _______ _______ _______ _____ _____    ______ ____
ROOT
ATOM      1  C   UNL     1       6.577   6.131  16.864  0.00  0.00    +0.000 A 
ATOM      2  C   UNL     1       6.489   4.751  16.722  0.00  0.00    +0.000 A 
ATOM      3  C   UNL     1       5.298   4.088  17.036  0.00  0.00    +0.000 A 
ATOM      4  C   UNL     1       4.172   4.780  17.498  0.00  0.00    +0.000 A 
ATOM      5  C   UNL     1       4.244   6.183  17.586  0.00  0.00    +0.000 A 
ATOM      6  C   UNL     1       5.450   6.841  17.274  0.00  0.00    +0.000 A 
ATOM      7  C   UNL     1       3.065   7.026  18.004  0.00  0.00    +0.000 C 
ATOM      8  C   UNL     1       1.939   6.205  18.618  0.00  0.00    +0.000 C 
ATOM      9  C   UNL     1       1.751   4.931  17.814  0.00  0.00    +0.000 C 
ATOM     10  N   UNL     1       2.963   4.100  17.888  0.00  0.00    +0.000 N 
ATOM     11  C   UNL     1       2.991   2.790  18.394  0.00  0.00    +0.000 C 
ATOM     12  O   UNL     1       4.011   2.099  18.491  0.00  0.00    +0.000 OA
ENDROOT
BRANCH   1  14
ATOM     13  C   UNL     1       7.878   8.017  17.481  0.00  0.00    +0.000 C 
ATOM     14  O   UNL     1       7.690   6.892  16.630  0.00  0.00    +0.000 OA
ENDBRANCH   1  14
BRANCH  11  15
ATOM     15  C   UNL     1       1.696   2.181  18.916  0.00  0.00    +0.000 C 
BRANCH  15  16
ATOM     16  S   UNL     1       1.157   2.977  20.461  0.00  0.00    +0.000 S 
ATOM     17  C   UNL     1       2.637   2.674  21.467  0.00  0.00    +0.000 C 
ENDBRANCH  15  16
ENDBRANCH  11  15
TORSDOF 3
ENDMDL
MODEL 4
REMARK VINA RESULT:      -6.2      2.083      2.418
REMARK  Name = 
REMARK  5 active torsions:
REMARK  status: ('A' for Active; 'I' for Inactive)
REMARK    1  A    between atoms: C_1  and  O_2
REMARK    2  A    between atoms: O_2  and  C_3
REMARK    3  A    between atoms: C_13  and  C_15
REMARK    4  A    between atoms: C_15  and  S_16
REMARK    5  A    between atoms: S_16  and  C_17
REMARK                            x       y       z     vdW  Elec       q    Type
REMARK                         _______ _______ _______ _____ _____    ______ ____
ROOT
ATOM      1  C   UNL     1       5.889   5.250  15.491  0.00  0.00    +0.000 A 
ATOM      2  C   UNL     1       5.641   4.028  16.105  0.00  0.00    +0.000 A 
ATOM      3  C   UNL     1       4.738   3.949  17.171  0.00  0.00    +0.000 A 
ATOM      4  C   UNL     1       4.067   5.079  17.651  0.00  0.00    +0.000 A 
ATOM      5  C   UNL     1       4.275   6.306  16.992  0.00  0.00    +0.000 A 
ATOM      6  C   UNL     1       5.190   6.377  15.923  0.00  0.00    +0.000 A 
ATOM      7  C   UNL     1       3.546   7.567  17.385  0.00  0.00    +0.000 C 
ATOM      8  C   UNL     1       2.845   7.449  18.730  0.00  0.00    +0.000 C 
ATOM      9  C   UNL     1       2.177   6.089  18.831  0.00  0.00    +0.000 C 
ATOM     10  N   UNL     1       3.188   5.021  18.791  0.00  0.00    +0.000 N 
ATOM     11  C   UNL     1       3.378   4.078  19.814  0.00  0.00    +0.000 C 
ATOM     12  O   UNL     1       4.249   3.201  19.804  0.00  0.00    +0.000 OA
ENDROOT
BRANCH   1  14
ATOM     13  C   UNL     1       6.896   4.430  13.506  0.00  0.00    +0.000 C 
ATOM     14  O   UNL     1       6.772   5.470  14.470  0.00  0.00    +0.000 OA
ENDBRANCH   1  14
BRANCH  11  15
ATOM     15  C   UNL     1       2.500   4.160  21.056  0.00  0.00    +0.000 C 
BRANCH  15  16
ATOM     16  S   UNL     1       1.432   2.695  21.217  0.00  0.00    +0.000 S 
ATOM     17  C   UNL     1       0.772   2.639  19.527  0.00  0.00    +0.000 C 
ENDBRANCH  15  16
ENDBRANCH  11  15
TORSDOF 3
ENDMDL
MODEL 5
REMARK VINA RESULT:      -6.2      1.948      2.391
REMARK  Name = 
REMARK  5 active torsions:
REMARK  status: ('A' for Active; 'I' for Inactive)
REMARK    1  A    between atoms: C_1  and  O_2
REMARK    2  A    between atoms: O_2  and  C_3
REMARK    3  A    between atoms: C_13  and  C_15
REMARK    4  A    between atoms: C_15  and  S_16
REMARK    5  A    between atoms: S_16  and  C_17
REMARK                            x       y       z     vdW  Elec       q    Type
REMARK                         _______ _______ _______ _____ _____    ______ ____
ROOT
ATOM      1  C   UNL     1       6.306   5.050  15.737  0.00  0.00    +0.000 A 
ATOM      2  C   UNL     1       5.764   3.771  15.759  0.00  0.00    +0.000 A 
ATOM      3  C   UNL     1       4.564   3.529  16.438  0.00  0.00    +0.000 A 
ATOM      4  C   UNL     1       3.881   4.550  17.109  0.00  0.00    +0.000 A 
ATOM      5  C   UNL     1       4.401   5.857  17.037  0.00  0.00    +0.000 A 
ATOM      6  C   UNL     1       5.612   6.089  16.357  0.00  0.00    +0.000 A 
ATOM      7  C   UNL     1       3.703   7.038  17.664  0.00  0.00    +0.000 C 
ATOM      8  C   UNL     1       2.600   6.628  18.630  0.00  0.00    +0.000 C 
ATOM      9  C   UNL     1       1.813   5.474  18.033  0.00  0.00    +0.000 C 
ATOM     10  N   UNL     1       2.682   4.298  17.867  0.00  0.00    +0.000 N 
ATOM     11  C   UNL     1       2.448   3.054  18.474  0.00  0.00    +0.000 C 
ATOM     12  O   UNL     1       3.192   2.073  18.368  0.00  0.00    +0.000 OA
ENDROOT
BRANCH   1  14
ATOM     13  C   UNL     1       7.607   5.137  13.754  0.00  0.00    +0.000 C 
ATOM     14  O   UNL     1       7.486   5.411  15.146  0.00  0.00    +0.000 OA
ENDBRANCH   1  14
BRANCH  11  15
ATOM     15  C   UNL     1       1.230   2.898  19.375  0.00  0.00    +0.000 C 
BRANCH  15  16
ATOM     16  S   UNL     1       1.710   2.620  21.108  0.00  0.00    +0.000 S 
ATOM     17  C   UNL     1       2.387   4.263  21.480  0.00  0.00    +0.000 C 
ENDBRANCH  15  16
ENDBRANCH  11  15
TORSDOF 3
ENDMDL
MODEL 6
REMARK VINA RESULT:      -6.1      4.072      6.728
REMARK  Name = 
REMARK  5 active torsions:
REMARK  status: ('A' for Active; 'I' for Inactive)
REMARK    1  A    between atoms: C_1  and  O_2
REMARK    2  A    between atoms: O_2  and  C_3
REMARK    3  A    between atoms: C_13  and  C_15
REMARK    4  A    between atoms: C_15  and  S_16
REMARK    5  A    between atoms: S_16  and  C_17
REMARK                            x       y       z     vdW  Elec       q    Type
REMARK                         _______ _______ _______ _____ _____    ______ ____
ROOT
ATOM      1  C   UNL     1       1.515   8.374  20.124  0.00  0.00    +0.000 A 
ATOM      2  C   UNL     1       1.951   8.514  18.812  0.00  0.00    +0.000 A 
ATOM      3  C   UNL     1       2.506   7.421  18.137  0.00  0.00    +0.000 A 
ATOM      4  C   UNL     1       2.640   6.170  18.751  0.00  0.00    +0.000 A 
ATOM      5  C   UNL     1       2.144   6.014  20.059  0.00  0.00    +0.000 A 
ATOM      6  C   UNL     1       1.593   7.122  20.733  0.00  0.00    +0.000 A 
ATOM      7  C   UNL     1       2.175   4.691  20.782  0.00  0.00    +0.000 C 
ATOM      8  C   UNL     1       3.069   3.665  20.098  0.00  0.00    +0.000 C 
ATOM      9  C   UNL     1       2.859   3.738  18.596  0.00  0.00    +0.000 C 
ATOM     10  N   UNL     1       3.271   5.057  18.089  0.00  0.00    +0.000 N 
ATOM     11  C   UNL     1       4.270   5.251  17.121  0.00  0.00    +0.000 C 
ATOM     12  O   UNL     1       4.646   6.357  16.716  0.00  0.00    +0.000 OA
ENDROOT
BRANCH   1  14
ATOM     13  C   UNL     1      -0.093   9.004  21.751  0.00  0.00    +0.000 C 
ATOM     14  O   UNL     1       0.992   9.368  20.905  0.00  0.00    +0.000 OA
ENDBRANCH   1  14
BRANCH  11  15
ATOM     15  C   UNL     1       4.992   4.033  16.561  0.00  0.00    +0.000 C 
BRANCH  15  16
ATOM     16  S   UNL     1       6.606   4.480  15.848  0.00  0.00    +0.000 S 
ATOM     17  C   UNL     1       6.291   4.014  14.123  0.00  0.00    +0.000 C 
ENDBRANCH  15  16
ENDBRANCH  11  15
TORSDOF 3
ENDMDL
MODEL 7
REMARK VINA RESULT:      -6.1      4.210      6.560
REMARK  Name = 
REMARK  5 active torsions:
REMARK  status: ('A' for Active; 'I' for Inactive)
REMARK    1  A    between atoms: C_1  and  O_2
REMARK    2  A    between atoms: O_2  and  C_3
REMARK    3  A    between atoms: C_13  and  C_15
REMARK    4  A    between atoms: C_15  and  S_16
REMARK    5  A    between atoms: S_16  and  C_17
REMARK                            x       y       z     vdW  Elec       q    Type
REMARK                         _______ _______ _______ _____ _____    ______ ____
ROOT
ATOM      1  C   UNL     1       1.463   8.512  20.032  0.00  0.00    +0.000 A 
ATOM      2  C   UNL     1       1.914   8.664  18.726  0.00  0.00    +0.000 A 
ATOM      3  C   UNL     1       2.503   7.585  18.057  0.00  0.00    +0.000 A 
ATOM      4  C   UNL     1       2.657   6.337  18.670  0.00  0.00    +0.000 A 
ATOM      5  C   UNL     1       2.147   6.167  19.972  0.00  0.00    +0.000 A 
ATOM      6  C   UNL     1       1.562   7.261  20.640  0.00  0.00    +0.000 A 
ATOM      7  C   UNL     1       2.199   4.843  20.692  0.00  0.00    +0.000 C 
ATOM      8  C   UNL     1       3.125   3.840  20.019  0.00  0.00    +0.000 C 
ATOM      9  C   UNL     1       2.935   3.911  18.514  0.00  0.00    +0.000 C 
ATOM     10  N   UNL     1       3.323   5.240  18.015  0.00  0.00    +0.000 N 
ATOM     11  C   UNL     1       4.330   5.459  17.062  0.00  0.00    +0.000 C 
ATOM     12  O   UNL     1       4.685   6.574  16.664  0.00  0.00    +0.000 OA
ENDROOT
BRANCH   1  14
ATOM     13  C   UNL     1       0.835  10.791  20.231  0.00  0.00    +0.000 C 
ATOM     14  O   UNL     1       0.907   9.492  20.808  0.00  0.00    +0.000 OA
ENDBRANCH   1  14
BRANCH  11  15
ATOM     15  C   UNL     1       5.088   4.259  16.510  0.00  0.00    +0.000 C 
BRANCH  15  16
ATOM     16  S   UNL     1       6.784   4.704  16.023  0.00  0.00    +0.000 S 
ATOM     17  C   UNL     1       7.576   4.625  17.654  0.00  0.00    +0.000 C 
ENDBRANCH  15  16
ENDBRANCH  11  15
TORSDOF 3
ENDMDL
MODEL 8
REMARK VINA RESULT:      -6.0      3.623      6.462
REMARK  Name = 
REMARK  5 active torsions:
REMARK  status: ('A' for Active; 'I' for Inactive)
REMARK    1  A    between atoms: C_1  and  O_2
REMARK    2  A    between atoms: O_2  and  C_3
REMARK    3  A    between atoms: C_13  and  C_15
REMARK    4  A    between atoms: C_15  and  S_16
REMARK    5  A    between atoms: S_16  and  C_17
REMARK                            x       y       z     vdW  Elec       q    Type
REMARK                         _______ _______ _______ _____ _____    ______ ____
ROOT
ATOM      1  C   UNL     1       1.887   7.054  20.169  0.00  0.00    +0.000 A 
ATOM      2  C   UNL     1       2.423   7.548  18.986  0.00  0.00    +0.000 A 
ATOM      3  C   UNL     1       3.081   6.688  18.100  0.00  0.00    +0.000 A 
ATOM      4  C   UNL     1       3.221   5.322  18.371  0.00  0.00    +0.000 A 
ATOM      5  C   UNL     1       2.627   4.811  19.542  0.00  0.00    +0.000 A 
ATOM      6  C   UNL     1       1.972   5.687  20.430  0.00  0.00    +0.000 A 
ATOM      7  C   UNL     1       2.659   3.344  19.889  0.00  0.00    +0.000 C 
ATOM      8  C   UNL     1       3.652   2.558  19.044  0.00  0.00    +0.000 C 
ATOM      9  C   UNL     1       3.563   3.025  17.601  0.00  0.00    +0.000 C 
ATOM     10  N   UNL     1       3.955   4.440  17.500  0.00  0.00    +0.000 N 
ATOM     11  C   UNL     1       5.020   4.908  16.714  0.00  0.00    +0.000 C 
ATOM     12  O   UNL     1       5.377   6.089  16.651  0.00  0.00    +0.000 OA
ENDROOT
BRANCH   1  14
ATOM     13  C   UNL     1       0.802   9.084  20.746  0.00  0.00    +0.000 C 
ATOM     14  O   UNL     1       1.257   7.792  21.133  0.00  0.00    +0.000 OA
ENDBRANCH   1  14
BRANCH  11  15
ATOM     15  C   UNL     1       5.841   3.899  15.921  0.00  0.00    +0.000 C 
BRANCH  15  16
ATOM     16  S   UNL     1       6.760   4.699  14.569  0.00  0.00    +0.000 S 
ATOM     17  C   UNL     1       6.126   3.721  13.178  0.00  0.00    +0.000 C 
ENDBRANCH  15  16
ENDBRANCH  11  15
TORSDOF 3
ENDMDL
MODEL 9
REMARK VINA RESULT:      -5.9      3.698      6.377
REMARK  Name = 
REMARK  5 active torsions:
REMARK  status: ('A' for Active; 'I' for Inactive)
REMARK    1  A    between atoms: C_1  and  O_2
REMARK    2  A    between atoms: O_2  and  C_3
REMARK    3  A    between atoms: C_13  and  C_15
REMARK    4  A    between atoms: C_15  and  S_16
REMARK    5  A    between atoms: S_16  and  C_17
REMARK                            x       y       z     vdW  Elec       q    Type
REMARK                         _______ _______ _______ _____ _____    ______ ____
ROOT
ATOM      1  C   UNL     1       2.019   7.971  19.334  0.00  0.00    +0.000 A 
ATOM      2  C   UNL     1       2.607   8.311  18.121  0.00  0.00    +0.000 A 
ATOM      3  C   UNL     1       3.438   7.396  17.464  0.00  0.00    +0.000 A 
ATOM      4  C   UNL     1       3.701   6.129  17.996  0.00  0.00    +0.000 A 
ATOM      5  C   UNL     1       3.059   5.765  19.195  0.00  0.00    +0.000 A 
ATOM      6  C   UNL     1       2.230   6.695  19.853  0.00  0.00    +0.000 A 
ATOM      7  C   UNL     1       3.219   4.398  19.813  0.00  0.00    +0.000 C 
ATOM      8  C   UNL     1       4.369   3.606  19.206  0.00  0.00    +0.000 C 
ATOM      9  C   UNL     1       4.366   3.794  17.699  0.00  0.00    +0.000 C 
ATOM     10  N   UNL     1       4.607   5.206  17.362  0.00  0.00    +0.000 N 
ATOM     11  C   UNL     1       5.684   5.657  16.582  0.00  0.00    +0.000 C 
ATOM     12  O   UNL     1       5.912   6.844  16.324  0.00  0.00    +0.000 OA
ENDROOT
BRANCH   1  14
ATOM     13  C   UNL     1       1.323   8.628  21.505  0.00  0.00    +0.000 C 
ATOM     14  O   UNL     1       1.223   8.783  20.094  0.00  0.00    +0.000 OA
ENDBRANCH   1  14
BRANCH  11  15
ATOM     15  C   UNL     1       6.683   4.635  16.055  0.00  0.00    +0.000 C 
BRANCH  15  16
ATOM     16  S   UNL     1       6.224   4.045  14.396  0.00  0.00    +0.000 S 
ATOM     17  C   UNL     1       7.436   4.977  13.418  0.00  0.00    +0.000 C 
ENDBRANCH  15  16
ENDBRANCH  11  15
TORSDOF 3
ENDMDL
