MODEL 1
REMARK VINA RESULT:      -8.2      0.000      0.000
REMARK  Name = 
REMARK  7 active torsions:
REMARK  status: ('A' for Active; 'I' for Inactive)
REMARK    1  A    between atoms: C_2  and  C_22
REMARK    2  A    between atoms: N_3  and  C_4
REMARK    3  A    between atoms: C_7  and  O_8
REMARK    4  A    between atoms: O_8  and  C_9
REMARK    5  A    between atoms: C_9  and  C_10
REMARK    6  A    between atoms: C_10  and  C_13
REMARK    7  A    between atoms: C_16  and  C_17
REMARK                            x       y       z     vdW  Elec       q    Type
REMARK                         _______ _______ _______ _____ _____    ______ ____
ROOT
ATOM      1  C   UNL     1       7.853   7.924  17.887  0.00  0.00    +0.000 A 
ATOM      2  C   UNL     1       8.299   7.038  18.850  0.00  0.00    +0.000 A 
ATOM      3  C   UNL     1       7.673   5.816  19.031  0.00  0.00    +0.000 A 
ATOM      4  C   UNL     1       6.572   5.427  18.257  0.00  0.00    +0.000 A 
ATOM      5  C   UNL     1       6.092   6.321  17.281  0.00  0.00    +0.000 A 
ATOM      6  C   UNL     1       6.731   7.581  17.130  0.00  0.00    +0.000 A 
ENDROOT
BRANCH   1   9
ATOM      7  O   UNL     1       9.061   9.724  19.854  0.00  0.00    +0.000 OA
ATOM      8  C   UNL     1       9.003   9.974  18.655  0.00  0.00    +0.000 C 
ATOM      9  N   UNL     1       8.500   9.152  17.657  0.00  0.00    +0.000 N 
ATOM     10  H   UNL     1       8.734   9.381  16.699  0.00  0.00    +0.000 HD
BRANCH   8  11
ATOM     11  C   UNL     1       9.583  11.251  18.192  0.00  0.00    +0.000 A 
ATOM     12  C   UNL     1       8.710  12.321  17.953  0.00  0.00    +0.000 A 
ATOM     13  C   UNL     1       9.213  13.533  17.496  0.00  0.00    +0.000 A 
ATOM     14  C   UNL     1      10.584  13.670  17.267  0.00  0.00    +0.000 A 
ATOM     15  C   UNL     1      11.449  12.599  17.485  0.00  0.00    +0.000 A 
ATOM     16  C   UNL     1      10.954  11.383  17.945  0.00  0.00    +0.000 A 
ENDBRANCH   8  11
ENDBRANCH   1   9
BRANCH   5  17
ATOM     17  C   UNL     1       4.950   6.021  16.343  0.00  0.00    +0.000 C 
ATOM     18  F   UNL     1       5.042   4.869  15.629  0.00  0.00    +0.000 F 
ATOM     19  F   UNL     1       3.753   5.959  16.998  0.00  0.00    +0.000 F 
ATOM     20  F   UNL     1       4.789   7.013  15.415  0.00  0.00    +0.000 F 
ENDBRANCH   5  17
BRANCH   4  21
ATOM     21  O   UNL     1       5.959   4.203  18.429  0.00  0.00    +0.000 OA
BRANCH  21  22
ATOM     22  C   UNL     1       4.947   4.190  19.455  0.00  0.00    +0.000 C 
BRANCH  22  23
ATOM     23  C   UNL     1       3.701   3.394  19.118  0.00  0.00    +0.000 C 
ATOM     24  F   UNL     1       3.518   2.483  20.122  0.00  0.00    +0.000 F 
ATOM     25  F   UNL     1       2.614   4.209  19.150  0.00  0.00    +0.000 F 
BRANCH  23  26
ATOM     26  C   UNL     1       3.816   2.687  17.782  0.00  0.00    +0.000 C 
ATOM     27  F   UNL     1       3.578   1.355  17.925  0.00  0.00    +0.000 F 
ATOM     28  F   UNL     1       2.876   3.151  16.915  0.00  0.00    +0.000 F 
ENDBRANCH  23  26
ENDBRANCH  22  23
ENDBRANCH  21  22
ENDBRANCH   4  21
TORSDOF 7
ENDMDL
MODEL 2
REMARK VINA RESULT:      -8.2      0.100      1.179
REMARK  Name = 
REMARK  7 active torsions:
REMARK  status: ('A' for Active; 'I' for Inactive)
REMARK    1  A    between atoms: C_2  and  C_22
REMARK    2  A    between atoms: N_3  and  C_4
REMARK    3  A    between atoms: C_7  and  O_8
REMARK    4  A    between atoms: O_8  and  C_9
REMARK    5  A    between atoms: C_9  and  C_10
REMARK    6  A    between atoms: C_10  and  C_13
REMARK    7  A    between atoms: C_16  and  C_17
REMARK                            x       y       z     vdW  Elec       q    Type
REMARK                         _______ _______ _______ _____ _____    ______ ____
ROOT
ATOM      1  C   UNL     1       7.866   7.990  17.860  0.00  0.00    +0.000 A 
ATOM      2  C   UNL     1       8.330   7.096  18.807  0.00  0.00    +0.000 A 
ATOM      3  C   UNL     1       7.709   5.870  18.984  0.00  0.00    +0.000 A 
ATOM      4  C   UNL     1       6.598   5.486  18.224  0.00  0.00    +0.000 A 
ATOM      5  C   UNL     1       6.101   6.388  17.264  0.00  0.00    +0.000 A 
ATOM      6  C   UNL     1       6.733   7.652  17.116  0.00  0.00    +0.000 A 
ENDROOT
BRANCH   1   9
ATOM      7  O   UNL     1       9.012   9.820  19.837  0.00  0.00    +0.000 OA
ATOM      8  C   UNL     1       8.979  10.058  18.634  0.00  0.00    +0.000 C 
ATOM      9  N   UNL     1       8.506   9.223  17.633  0.00  0.00    +0.000 N 
ATOM     10  H   UNL     1       8.759   9.445  16.678  0.00  0.00    +0.000 HD
BRANCH   8  11
ATOM     11  C   UNL     1       9.556  11.337  18.172  0.00  0.00    +0.000 A 
ATOM     12  C   UNL     1      10.935  11.388  17.929  0.00  0.00    +0.000 A 
ATOM     13  C   UNL     1      11.520  12.577  17.514  0.00  0.00    +0.000 A 
ATOM     14  C   UNL     1      10.728  13.717  17.354  0.00  0.00    +0.000 A 
ATOM     15  C   UNL     1       9.360  13.672  17.616  0.00  0.00    +0.000 A 
ATOM     16  C   UNL     1       8.767  12.484  18.030  0.00  0.00    +0.000 A 
ENDBRANCH   8  11
ENDBRANCH   1   9
BRANCH   5  17
ATOM     17  C   UNL     1       4.945   6.094  16.340  0.00  0.00    +0.000 C 
ATOM     18  F   UNL     1       4.734   6.984  15.336  0.00  0.00    +0.000 F 
ATOM     19  F   UNL     1       5.070   4.874  15.738  0.00  0.00    +0.000 F 
ATOM     20  F   UNL     1       3.762   6.027  17.024  0.00  0.00    +0.000 F 
ENDBRANCH   5  17
BRANCH   4  21
ATOM     21  O   UNL     1       5.992   4.258  18.392  0.00  0.00    +0.000 OA
BRANCH  21  22
ATOM     22  C   UNL     1       5.009   4.227  19.446  0.00  0.00    +0.000 C 
BRANCH  22  23
ATOM     23  C   UNL     1       3.763   3.418  19.138  0.00  0.00    +0.000 C 
ATOM     24  F   UNL     1       3.616   2.502  20.143  0.00  0.00    +0.000 F 
ATOM     25  F   UNL     1       2.669   4.221  19.201  0.00  0.00    +0.000 F 
BRANCH  23  26
ATOM     26  C   UNL     1       3.851   2.718  17.797  0.00  0.00    +0.000 C 
ATOM     27  F   UNL     1       3.575   1.392  17.932  0.00  0.00    +0.000 F 
ATOM     28  F   UNL     1       2.921   3.214  16.938  0.00  0.00    +0.000 F 
ENDBRANCH  23  26
ENDBRANCH  22  23
ENDBRANCH  21  22
ENDBRANCH   4  21
TORSDOF 7
ENDMDL
MODEL 3
REMARK VINA RESULT:      -8.2      0.587      1.548
REMARK  Name = 
REMARK  7 active torsions:
REMARK  status: ('A' for Active; 'I' for Inactive)
REMARK    1  A    between atoms: C_2  and  C_22
REMARK    2  A    between atoms: N_3  and  C_4
REMARK    3  A    between atoms: C_7  and  O_8
REMARK    4  A    between atoms: O_8  and  C_9
REMARK    5  A    between atoms: C_9  and  C_10
REMARK    6  A    between atoms: C_10  and  C_13
REMARK    7  A    between atoms: C_16  and  C_17
REMARK                            x       y       z     vdW  Elec       q    Type
REMARK                         _______ _______ _______ _____ _____    ______ ____
ROOT
ATOM      1  C   UNL     1       7.861   8.041  17.870  0.00  0.00    +0.000 A 
ATOM      2  C   UNL     1       8.345   7.161  18.820  0.00  0.00    +0.000 A 
ATOM      3  C   UNL     1       7.757   5.919  18.996  0.00  0.00    +0.000 A 
ATOM      4  C   UNL     1       6.660   5.503  18.232  0.00  0.00    +0.000 A 
ATOM      5  C   UNL     1       6.143   6.391  17.269  0.00  0.00    +0.000 A 
ATOM      6  C   UNL     1       6.741   7.671  17.122  0.00  0.00    +0.000 A 
ENDROOT
BRANCH   1   9
ATOM      7  O   UNL     1       9.058   9.848  19.837  0.00  0.00    +0.000 OA
ATOM      8  C   UNL     1       8.969  10.112  18.643  0.00  0.00    +0.000 C 
ATOM      9  N   UNL     1       8.468   9.290  17.644  0.00  0.00    +0.000 N 
ATOM     10  H   UNL     1       8.676   9.538  16.685  0.00  0.00    +0.000 HD
BRANCH   8  11
ATOM     11  C   UNL     1       9.502  11.412  18.186  0.00  0.00    +0.000 A 
ATOM     12  C   UNL     1      10.848  11.472  17.800  0.00  0.00    +0.000 A 
ATOM     13  C   UNL     1      11.393  12.680  17.384  0.00  0.00    +0.000 A 
ATOM     14  C   UNL     1      10.597  13.828  17.367  0.00  0.00    +0.000 A 
ATOM     15  C   UNL     1       9.264  13.771  17.771  0.00  0.00    +0.000 A 
ATOM     16  C   UNL     1       8.710  12.565  18.186  0.00  0.00    +0.000 A 
ENDBRANCH   8  11
ENDBRANCH   1   9
BRANCH   5  17
ATOM     17  C   UNL     1       4.999   6.064  16.340  0.00  0.00    +0.000 C 
ATOM     18  F   UNL     1       5.050   4.856  15.722  0.00  0.00    +0.000 F 
ATOM     19  F   UNL     1       3.793   6.106  16.981  0.00  0.00    +0.000 F 
ATOM     20  F   UNL     1       4.893   6.985  15.334  0.00  0.00    +0.000 F 
ENDBRANCH   5  17
BRANCH   4  21
ATOM     21  O   UNL     1       6.087   4.260  18.399  0.00  0.00    +0.000 OA
BRANCH  21  22
ATOM     22  C   UNL     1       5.031   4.226  19.380  0.00  0.00    +0.000 C 
BRANCH  22  23
ATOM     23  C   UNL     1       3.845   3.353  19.017  0.00  0.00    +0.000 C 
ATOM     24  F   UNL     1       3.996   2.987  17.708  0.00  0.00    +0.000 F 
ATOM     25  F   UNL     1       3.890   2.199  19.734  0.00  0.00    +0.000 F 
BRANCH  23  26
ATOM     26  C   UNL     1       2.524   4.068  19.214  0.00  0.00    +0.000 C 
ATOM     27  F   UNL     1       2.731   5.342  19.645  0.00  0.00    +0.000 F 
ATOM     28  F   UNL     1       1.855   4.169  18.035  0.00  0.00    +0.000 F 
ENDBRANCH  23  26
ENDBRANCH  22  23
ENDBRANCH  21  22
ENDBRANCH   4  21
TORSDOF 7
ENDMDL
MODEL 4
REMARK VINA RESULT:      -8.0      0.632      1.546
REMARK  Name = 
REMARK  7 active torsions:
REMARK  status: ('A' for Active; 'I' for Inactive)
REMARK    1  A    between atoms: C_2  and  C_22
REMARK    2  A    between atoms: N_3  and  C_4
REMARK    3  A    between atoms: C_7  and  O_8
REMARK    4  A    between atoms: O_8  and  C_9
REMARK    5  A    between atoms: C_9  and  C_10
REMARK    6  A    between atoms: C_10  and  C_13
REMARK    7  A    between atoms: C_16  and  C_17
REMARK                            x       y       z     vdW  Elec       q    Type
REMARK                         _______ _______ _______ _____ _____    ______ ____
ROOT
ATOM      1  C   UNL     1       7.861   7.996  17.866  0.00  0.00    +0.000 A 
ATOM      2  C   UNL     1       8.322   7.120  18.830  0.00  0.00    +0.000 A 
ATOM      3  C   UNL     1       7.702   5.897  19.028  0.00  0.00    +0.000 A 
ATOM      4  C   UNL     1       6.593   5.498  18.272  0.00  0.00    +0.000 A 
ATOM      5  C   UNL     1       6.099   6.383  17.294  0.00  0.00    +0.000 A 
ATOM      6  C   UNL     1       6.731   7.643  17.125  0.00  0.00    +0.000 A 
ENDROOT
BRANCH   1   9
ATOM      7  O   UNL     1       9.029   9.847  19.810  0.00  0.00    +0.000 OA
ATOM      8  C   UNL     1       8.985  10.071  18.605  0.00  0.00    +0.000 C 
ATOM      9  N   UNL     1       8.501   9.225  17.618  0.00  0.00    +0.000 N 
ATOM     10  H   UNL     1       8.746   9.435  16.659  0.00  0.00    +0.000 HD
BRANCH   8  11
ATOM     11  C   UNL     1       9.560  11.343  18.122  0.00  0.00    +0.000 A 
ATOM     12  C   UNL     1      10.953  11.430  17.993  0.00  0.00    +0.000 A 
ATOM     13  C   UNL     1      11.534  12.616  17.562  0.00  0.00    +0.000 A 
ATOM     14  C   UNL     1      10.724  13.717  17.274  0.00  0.00    +0.000 A 
ATOM     15  C   UNL     1       9.341  13.637  17.423  0.00  0.00    +0.000 A 
ATOM     16  C   UNL     1       8.751  12.452  17.850  0.00  0.00    +0.000 A 
ENDBRANCH   8  11
ENDBRANCH   1   9
BRANCH   5  17
ATOM     17  C   UNL     1       4.946   6.071  16.373  0.00  0.00    +0.000 C 
ATOM     18  F   UNL     1       4.958   4.848  15.783  0.00  0.00    +0.000 F 
ATOM     19  F   UNL     1       3.741   6.166  17.010  0.00  0.00    +0.000 F 
ATOM     20  F   UNL     1       4.869   6.971  15.345  0.00  0.00    +0.000 F 
ENDBRANCH   5  17
BRANCH   4  21
ATOM     21  O   UNL     1       5.987   4.274  18.461  0.00  0.00    +0.000 OA
BRANCH  21  22
ATOM     22  C   UNL     1       5.008   4.259  19.519  0.00  0.00    +0.000 C 
BRANCH  22  23
ATOM     23  C   UNL     1       3.663   3.670  19.140  0.00  0.00    +0.000 C 
ATOM     24  F   UNL     1       2.761   4.698  19.118  0.00  0.00    +0.000 F 
ATOM     25  F   UNL     1       3.714   3.191  17.869  0.00  0.00    +0.000 F 
BRANCH  23  26
ATOM     26  C   UNL     1       3.212   2.597  20.111  0.00  0.00    +0.000 C 
ATOM     27  F   UNL     1       2.821   3.153  21.289  0.00  0.00    +0.000 F 
ATOM     28  F   UNL     1       2.128   1.937  19.623  0.00  0.00    +0.000 F 
ENDBRANCH  23  26
ENDBRANCH  22  23
ENDBRANCH  21  22
ENDBRANCH   4  21
TORSDOF 7
ENDMDL
MODEL 5
REMARK VINA RESULT:      -8.0      0.580      1.443
REMARK  Name = 
REMARK  7 active torsions:
REMARK  status: ('A' for Active; 'I' for Inactive)
REMARK    1  A    between atoms: C_2  and  C_22
REMARK    2  A    between atoms: N_3  and  C_4
REMARK    3  A    between atoms: C_7  and  O_8
REMARK    4  A    between atoms: O_8  and  C_9
REMARK    5  A    between atoms: C_9  and  C_10
REMARK    6  A    between atoms: C_10  and  C_13
REMARK    7  A    between atoms: C_16  and  C_17
REMARK                            x       y       z     vdW  Elec       q    Type
REMARK                         _______ _______ _______ _____ _____    ______ ____
ROOT
ATOM      1  C   UNL     1       7.870   7.998  17.900  0.00  0.00    +0.000 A 
ATOM      2  C   UNL     1       8.342   7.113  18.851  0.00  0.00    +0.000 A 
ATOM      3  C   UNL     1       7.743   5.876  19.024  0.00  0.00    +0.000 A 
ATOM      4  C   UNL     1       6.646   5.470  18.254  0.00  0.00    +0.000 A 
ATOM      5  C   UNL     1       6.142   6.363  17.289  0.00  0.00    +0.000 A 
ATOM      6  C   UNL     1       6.752   7.637  17.146  0.00  0.00    +0.000 A 
ENDROOT
BRANCH   1   9
ATOM      7  O   UNL     1       9.072   9.795  19.874  0.00  0.00    +0.000 OA
ATOM      8  C   UNL     1       8.991  10.060  18.680  0.00  0.00    +0.000 C 
ATOM      9  N   UNL     1       8.489   9.242  17.677  0.00  0.00    +0.000 N 
ATOM     10  H   UNL     1       8.705   9.489  16.720  0.00  0.00    +0.000 HD
BRANCH   8  11
ATOM     11  C   UNL     1       9.538  11.355  18.226  0.00  0.00    +0.000 A 
ATOM     12  C   UNL     1       8.668  12.452  18.167  0.00  0.00    +0.000 A 
ATOM     13  C   UNL     1       9.138  13.683  17.726  0.00  0.00    +0.000 A 
ATOM     14  C   UNL     1      10.472  13.812  17.332  0.00  0.00    +0.000 A 
ATOM     15  C   UNL     1      11.331  12.715  17.371  0.00  0.00    +0.000 A 
ATOM     16  C   UNL     1      10.869  11.480  17.814  0.00  0.00    +0.000 A 
ENDBRANCH   8  11
ENDBRANCH   1   9
BRANCH   5  17
ATOM     17  C   UNL     1       5.000   6.046  16.355  0.00  0.00    +0.000 C 
ATOM     18  F   UNL     1       3.771   5.934  16.920  0.00  0.00    +0.000 F 
ATOM     19  F   UNL     1       4.873   6.983  15.368  0.00  0.00    +0.000 F 
ATOM     20  F   UNL     1       5.207   4.867  15.693  0.00  0.00    +0.000 F 
ENDBRANCH   5  17
BRANCH   4  21
ATOM     21  O   UNL     1       6.062   4.232  18.418  0.00  0.00    +0.000 OA
BRANCH  21  22
ATOM     22  C   UNL     1       4.983   4.212  19.373  0.00  0.00    +0.000 C 
BRANCH  22  23
ATOM     23  C   UNL     1       3.837   3.280  19.028  0.00  0.00    +0.000 C 
ATOM     24  F   UNL     1       3.895   3.046  17.683  0.00  0.00    +0.000 F 
ATOM     25  F   UNL     1       4.031   2.075  19.626  0.00  0.00    +0.000 F 
BRANCH  23  26
ATOM     26  C   UNL     1       2.490   3.865  19.402  0.00  0.00    +0.000 C 
ATOM     27  F   UNL     1       1.823   4.276  18.290  0.00  0.00    +0.000 F 
ATOM     28  F   UNL     1       1.706   2.921  19.989  0.00  0.00    +0.000 F 
ENDBRANCH  23  26
ENDBRANCH  22  23
ENDBRANCH  21  22
ENDBRANCH   4  21
TORSDOF 7
ENDMDL
MODEL 6
REMARK VINA RESULT:      -8.0      5.336      7.265
REMARK  Name = 
REMARK  7 active torsions:
REMARK  status: ('A' for Active; 'I' for Inactive)
REMARK    1  A    between atoms: C_2  and  C_22
REMARK    2  A    between atoms: N_3  and  C_4
REMARK    3  A    between atoms: C_7  and  O_8
REMARK    4  A    between atoms: O_8  and  C_9
REMARK    5  A    between atoms: C_9  and  C_10
REMARK    6  A    between atoms: C_10  and  C_13
REMARK    7  A    between atoms: C_16  and  C_17
REMARK                            x       y       z     vdW  Elec       q    Type
REMARK                         _______ _______ _______ _____ _____    ______ ____
ROOT
ATOM      1  C   UNL     1       2.439   6.510  19.800  0.00  0.00    +0.000 A 
ATOM      2  C   UNL     1       3.014   6.896  18.604  0.00  0.00    +0.000 A 
ATOM      3  C   UNL     1       3.766   6.002  17.860  0.00  0.00    +0.000 A 
ATOM      4  C   UNL     1       3.977   4.683  18.281  0.00  0.00    +0.000 A 
ATOM      5  C   UNL     1       3.412   4.274  19.504  0.00  0.00    +0.000 A 
ATOM      6  C   UNL     1       2.667   5.213  20.266  0.00  0.00    +0.000 A 
ENDROOT
BRANCH   1   9
ATOM      7  O   UNL     1       1.433   9.146  19.022  0.00  0.00    +0.000 OA
ATOM      8  C   UNL     1       1.241   8.649  20.126  0.00  0.00    +0.000 C 
ATOM      9  N   UNL     1       1.635   7.388  20.551  0.00  0.00    +0.000 N 
ATOM     10  H   UNL     1       1.206   7.021  21.390  0.00  0.00    +0.000 HD
BRANCH   8  11
ATOM     11  C   UNL     1       0.456   9.430  21.103  0.00  0.00    +0.000 A 
ATOM     12  C   UNL     1      -0.145  10.618  20.666  0.00  0.00    +0.000 A 
ATOM     13  C   UNL     1      -0.875  11.392  21.559  0.00  0.00    +0.000 A 
ATOM     14  C   UNL     1      -0.992  10.985  22.890  0.00  0.00    +0.000 A 
ATOM     15  C   UNL     1      -0.376   9.814  23.330  0.00  0.00    +0.000 A 
ATOM     16  C   UNL     1       0.354   9.032  22.441  0.00  0.00    +0.000 A 
ENDBRANCH   8  11
ENDBRANCH   1   9
BRANCH   5  17
ATOM     17  C   UNL     1       3.513   2.875  20.060  0.00  0.00    +0.000 C 
ATOM     18  F   UNL     1       4.766   2.378  20.221  0.00  0.00    +0.000 F 
ATOM     19  F   UNL     1       2.908   2.765  21.281  0.00  0.00    +0.000 F 
ATOM     20  F   UNL     1       2.861   1.972  19.265  0.00  0.00    +0.000 F 
ENDBRANCH   5  17
BRANCH   4  21
ATOM     21  O   UNL     1       4.714   3.790  17.531  0.00  0.00    +0.000 OA
BRANCH  21  22
ATOM     22  C   UNL     1       4.821   4.141  16.137  0.00  0.00    +0.000 C 
BRANCH  22  23
ATOM     23  C   UNL     1       6.214   4.526  15.678  0.00  0.00    +0.000 C 
ATOM     24  F   UNL     1       6.322   5.883  15.803  0.00  0.00    +0.000 F 
ATOM     25  F   UNL     1       7.138   3.998  16.524  0.00  0.00    +0.000 F 
BRANCH  23  26
ATOM     26  C   UNL     1       6.483   4.107  14.246  0.00  0.00    +0.000 C 
ATOM     27  F   UNL     1       5.315   3.971  13.561  0.00  0.00    +0.000 F 
ATOM     28  F   UNL     1       7.196   5.064  13.595  0.00  0.00    +0.000 F 
ENDBRANCH  23  26
ENDBRANCH  22  23
ENDBRANCH  21  22
ENDBRANCH   4  21
TORSDOF 7
ENDMDL
MODEL 7
REMARK VINA RESULT:      -7.9      4.693      6.769
REMARK  Name = 
REMARK  7 active torsions:
REMARK  status: ('A' for Active; 'I' for Inactive)
REMARK    1  A    between atoms: C_2  and  C_22
REMARK    2  A    between atoms: N_3  and  C_4
REMARK    3  A    between atoms: C_7  and  O_8
REMARK    4  A    between atoms: O_8  and  C_9
REMARK    5  A    between atoms: C_9  and  C_10
REMARK    6  A    between atoms: C_10  and  C_13
REMARK    7  A    between atoms: C_16  and  C_17
REMARK                            x       y       z     vdW  Elec       q    Type
REMARK                         _______ _______ _______ _____ _____    ______ ____
ROOT
ATOM      1  C   UNL     1       3.425   6.185  18.312  0.00  0.00    +0.000 A 
ATOM      2  C   UNL     1       2.978   5.022  17.715  0.00  0.00    +0.000 A 
ATOM      3  C   UNL     1       3.868   4.157  17.099  0.00  0.00    +0.000 A 
ATOM      4  C   UNL     1       5.243   4.418  17.053  0.00  0.00    +0.000 A 
ATOM      5  C   UNL     1       5.717   5.605  17.644  0.00  0.00    +0.000 A 
ATOM      6  C   UNL     1       4.786   6.493  18.246  0.00  0.00    +0.000 A 
ENDROOT
BRANCH   1   9
ATOM      7  O   UNL     1       2.335   8.729  17.358  0.00  0.00    +0.000 OA
ATOM      8  C   UNL     1       2.114   8.275  18.476  0.00  0.00    +0.000 C 
ATOM      9  N   UNL     1       2.546   7.057  18.981  0.00  0.00    +0.000 N 
ATOM     10  H   UNL     1       2.094   6.710  19.817  0.00  0.00    +0.000 HD
BRANCH   8  11
ATOM     11  C   UNL     1       1.247   9.062  19.376  0.00  0.00    +0.000 A 
ATOM     12  C   UNL     1       1.223   8.718  20.735  0.00  0.00    +0.000 A 
ATOM     13  C   UNL     1       0.404   9.420  21.611  0.00  0.00    +0.000 A 
ATOM     14  C   UNL     1      -0.399  10.455  21.125  0.00  0.00    +0.000 A 
ATOM     15  C   UNL     1      -0.391  10.782  19.771  0.00  0.00    +0.000 A 
ATOM     16  C   UNL     1       0.428  10.087  18.888  0.00  0.00    +0.000 A 
ENDBRANCH   8  11
ENDBRANCH   1   9
BRANCH   5  17
ATOM     17  C   UNL     1       7.173   5.995  17.716  0.00  0.00    +0.000 C 
ATOM     18  F   UNL     1       7.639   6.776  16.708  0.00  0.00    +0.000 F 
ATOM     19  F   UNL     1       7.467   6.663  18.871  0.00  0.00    +0.000 F 
ATOM     20  F   UNL     1       7.986   4.895  17.732  0.00  0.00    +0.000 F 
ENDBRANCH   5  17
BRANCH   4  21
ATOM     21  O   UNL     1       6.129   3.547  16.453  0.00  0.00    +0.000 OA
BRANCH  21  22
ATOM     22  C   UNL     1       5.830   3.264  15.072  0.00  0.00    +0.000 C 
BRANCH  22  23
ATOM     23  C   UNL     1       6.359   4.281  14.079  0.00  0.00    +0.000 C 
ATOM     24  F   UNL     1       5.483   5.330  14.067  0.00  0.00    +0.000 F 
ATOM     25  F   UNL     1       7.540   4.785  14.525  0.00  0.00    +0.000 F 
BRANCH  23  26
ATOM     26  C   UNL     1       6.505   3.701  12.686  0.00  0.00    +0.000 C 
ATOM     27  F   UNL     1       5.292   3.619  12.074  0.00  0.00    +0.000 F 
ATOM     28  F   UNL     1       7.269   4.514  11.909  0.00  0.00    +0.000 F 
ENDBRANCH  23  26
ENDBRANCH  22  23
ENDBRANCH  21  22
ENDBRANCH   4  21
TORSDOF 7
ENDMDL
MODEL 8
REMARK VINA RESULT:      -7.9      5.085      7.356
REMARK  Name = 
REMARK  7 active torsions:
REMARK  status: ('A' for Active; 'I' for Inactive)
REMARK    1  A    between atoms: C_2  and  C_22
REMARK    2  A    between atoms: N_3  and  C_4
REMARK    3  A    between atoms: C_7  and  O_8
REMARK    4  A    between atoms: O_8  and  C_9
REMARK    5  A    between atoms: C_9  and  C_10
REMARK    6  A    between atoms: C_10  and  C_13
REMARK    7  A    between atoms: C_16  and  C_17
REMARK                            x       y       z     vdW  Elec       q    Type
REMARK                         _______ _______ _______ _____ _____    ______ ____
ROOT
ATOM      1  C   UNL     1       2.179   6.694  20.141  0.00  0.00    +0.000 A 
ATOM      2  C   UNL     1       2.957   7.006  19.042  0.00  0.00    +0.000 A 
ATOM      3  C   UNL     1       3.647   6.016  18.361  0.00  0.00    +0.000 A 
ATOM      4  C   UNL     1       3.591   4.672  18.751  0.00  0.00    +0.000 A 
ATOM      5  C   UNL     1       2.815   4.335  19.877  0.00  0.00    +0.000 A 
ATOM      6  C   UNL     1       2.138   5.368  20.578  0.00  0.00    +0.000 A 
ENDROOT
BRANCH   1   9
ATOM      7  O   UNL     1       1.194   9.250  19.109  0.00  0.00    +0.000 OA
ATOM      8  C   UNL     1       1.048   8.889  20.272  0.00  0.00    +0.000 C 
ATOM      9  N   UNL     1       1.435   7.675  20.822  0.00  0.00    +0.000 N 
ATOM     10  H   UNL     1       1.041   7.420  21.719  0.00  0.00    +0.000 HD
BRANCH   8  11
ATOM     11  C   UNL     1       0.332   9.799  21.188  0.00  0.00    +0.000 A 
ATOM     12  C   UNL     1      -0.126   9.281  22.407  0.00  0.00    +0.000 A 
ATOM     13  C   UNL     1      -0.822  10.100  23.288  0.00  0.00    +0.000 A 
ATOM     14  C   UNL     1      -1.071  11.430  22.943  0.00  0.00    +0.000 A 
ATOM     15  C   UNL     1      -0.635  11.939  21.721  0.00  0.00    +0.000 A 
ATOM     16  C   UNL     1       0.066  11.127  20.835  0.00  0.00    +0.000 A 
ENDBRANCH   8  11
ENDBRANCH   1   9
BRANCH   5  17
ATOM     17  C   UNL     1       2.621   2.928  20.384  0.00  0.00    +0.000 C 
ATOM     18  F   UNL     1       2.121   2.030  19.495  0.00  0.00    +0.000 F 
ATOM     19  F   UNL     1       3.786   2.385  20.846  0.00  0.00    +0.000 F 
ATOM     20  F   UNL     1       1.770   2.894  21.455  0.00  0.00    +0.000 F 
ENDBRANCH   5  17
BRANCH   4  21
ATOM     21  O   UNL     1       4.267   3.687  18.062  0.00  0.00    +0.000 OA
BRANCH  21  22
ATOM     22  C   UNL     1       4.469   3.979  16.665  0.00  0.00    +0.000 C 
BRANCH  22  23
ATOM     23  C   UNL     1       5.913   4.197  16.257  0.00  0.00    +0.000 C 
ATOM     24  F   UNL     1       6.681   4.026  17.375  0.00  0.00    +0.000 F 
ATOM     25  F   UNL     1       6.296   3.224  15.388  0.00  0.00    +0.000 F 
BRANCH  23  26
ATOM     26  C   UNL     1       6.141   5.575  15.668  0.00  0.00    +0.000 C 
ATOM     27  F   UNL     1       4.962   6.127  15.275  0.00  0.00    +0.000 F 
ATOM     28  F   UNL     1       6.661   6.414  16.604  0.00  0.00    +0.000 F 
ENDBRANCH  23  26
ENDBRANCH  22  23
ENDBRANCH  21  22
ENDBRANCH   4  21
TORSDOF 7
ENDMDL
MODEL 9
REMARK VINA RESULT:      -7.9      5.158      7.127
REMARK  Name = 
REMARK  7 active torsions:
REMARK  status: ('A' for Active; 'I' for Inactive)
REMARK    1  A    between atoms: C_2  and  C_22
REMARK    2  A    between atoms: N_3  and  C_4
REMARK    3  A    between atoms: C_7  and  O_8
REMARK    4  A    between atoms: O_8  and  C_9
REMARK    5  A    between atoms: C_9  and  C_10
REMARK    6  A    between atoms: C_10  and  C_13
REMARK    7  A    between atoms: C_16  and  C_17
REMARK                            x       y       z     vdW  Elec       q    Type
REMARK                         _______ _______ _______ _____ _____    ______ ____
ROOT
ATOM      1  C   UNL     1       2.309   7.754  17.921  0.00  0.00    +0.000 A 
ATOM      2  C   UNL     1       3.592   8.057  17.504  0.00  0.00    +0.000 A 
ATOM      3  C   UNL     1       4.505   7.049  17.238  0.00  0.00    +0.000 A 
ATOM      4  C   UNL     1       4.176   5.695  17.379  0.00  0.00    +0.000 A 
ATOM      5  C   UNL     1       2.878   5.366  17.816  0.00  0.00    +0.000 A 
ATOM      6  C   UNL     1       1.965   6.414  18.110  0.00  0.00    +0.000 A 
ENDROOT
BRANCH   1   9
ATOM      7  O   UNL     1       1.430   8.844  20.491  0.00  0.00    +0.000 OA
ATOM      8  C   UNL     1       0.954   9.185  19.414  0.00  0.00    +0.000 C 
ATOM      9  N   UNL     1       1.352   8.759  18.155  0.00  0.00    +0.000 N 
ATOM     10  H   UNL     1       1.040   9.297  17.357  0.00  0.00    +0.000 HD
BRANCH   8  11
ATOM     11  C   UNL     1      -0.115  10.204  19.428  0.00  0.00    +0.000 A 
ATOM     12  C   UNL     1      -0.353  10.893  20.625  0.00  0.00    +0.000 A 
ATOM     13  C   UNL     1      -1.363  11.844  20.686  0.00  0.00    +0.000 A 
ATOM     14  C   UNL     1      -2.143  12.096  19.555  0.00  0.00    +0.000 A 
ATOM     15  C   UNL     1      -1.921  11.395  18.371  0.00  0.00    +0.000 A 
ATOM     16  C   UNL     1      -0.909  10.443  18.301  0.00  0.00    +0.000 A 
ENDBRANCH   8  11
ENDBRANCH   1   9
BRANCH   5  17
ATOM     17  C   UNL     1       2.366   3.955  17.966  0.00  0.00    +0.000 C 
ATOM     18  F   UNL     1       3.011   3.171  18.868  0.00  0.00    +0.000 F 
ATOM     19  F   UNL     1       1.047   3.925  18.321  0.00  0.00    +0.000 F 
ATOM     20  F   UNL     1       2.424   3.273  16.782  0.00  0.00    +0.000 F 
ENDBRANCH   5  17
BRANCH   4  21
ATOM     21  O   UNL     1       5.082   4.694  17.099  0.00  0.00    +0.000 OA
BRANCH  21  22
ATOM     22  C   UNL     1       6.039   4.457  18.150  0.00  0.00    +0.000 C 
BRANCH  22  23
ATOM     23  C   UNL     1       7.398   5.097  17.938  0.00  0.00    +0.000 C 
ATOM     24  F   UNL     1       8.302   4.085  17.775  0.00  0.00    +0.000 F 
ATOM     25  F   UNL     1       7.399   5.791  16.770  0.00  0.00    +0.000 F 
BRANCH  23  26
ATOM     26  C   UNL     1       7.803   5.982  19.100  0.00  0.00    +0.000 C 
ATOM     27  F   UNL     1       8.721   5.352  19.882  0.00  0.00    +0.000 F 
ATOM     28  F   UNL     1       8.401   7.117  18.650  0.00  0.00    +0.000 F 
ENDBRANCH  23  26
ENDBRANCH  22  23
ENDBRANCH  21  22
ENDBRANCH   4  21
TORSDOF 7
ENDMDL
