MODEL 1
REMARK VINA RESULT:      -7.5      0.000      0.000
REMARK  Name = 
REMARK  3 active torsions:
REMARK  status: ('A' for Active; 'I' for Inactive)
REMARK    1  A    between atoms: N_1  and  C_2
REMARK    2  A    between atoms: C_2  and  C_3
REMARK    3  A    between atoms: C_11  and  N_12
REMARK                            x       y       z     vdW  Elec       q    Type
REMARK                         _______ _______ _______ _____ _____    ______ ____
ROOT
ATOM      1  C   UNL     1       0.202  11.645  20.159  0.00  0.00    +0.000 C 
ATOM      2  O   UNL     1       1.146  12.529  19.506  0.00  0.00    +0.000 OA
ATOM      3  C   UNL     1       1.857  11.827  18.577  0.00  0.00    +0.000 C 
ATOM      4  O   UNL     1       2.705  12.320  17.855  0.00  0.00    +0.000 OA
ATOM      5  N   UNL     1       1.470  10.528  18.599  0.00  0.00    +0.000 N 
ATOM      6  C   UNL     1       2.052   9.447  17.863  0.00  0.00    +0.000 C 
ATOM      7  C   UNL     1       2.075   8.210  18.713  0.00  0.00    +0.000 A 
ATOM      8  C   UNL     1       2.674   7.036  18.230  0.00  0.00    +0.000 A 
ATOM      9  C   UNL     1       2.691   5.842  18.973  0.00  0.00    +0.000 A 
ATOM     10  C   UNL     1       2.087   5.888  20.244  0.00  0.00    +0.000 A 
ATOM     11  F   UNL     1       2.086   4.801  21.033  0.00  0.00    +0.000 F 
ATOM     12  C   UNL     1       1.506   7.054  20.753  0.00  0.00    +0.000 A 
ATOM     13  C   UNL     1       1.484   8.209  19.979  0.00  0.00    +0.000 A 
ATOM     14  O   UNL     1       0.901   9.326  20.524  0.00  0.00    +0.000 OA
ATOM     15  C   UNL     1       0.443  10.269  19.544  0.00  0.00    +0.000 C 
ENDROOT
BRANCH   9  16
ATOM     16  N   UNL     1       3.258   4.709  18.418  0.00  0.00    +0.000 N 
ATOM     17  C   UNL     1       2.511   3.785  17.549  0.00  0.00    +0.000 C 
ATOM     18  C   UNL     1       2.380   2.401  18.197  0.00  0.00    +0.000 C 
ATOM     19  O   UNL     1       3.662   1.882  18.597  0.00  0.00    +0.000 OA
ATOM     20  C   UNL     1       4.272   2.763  19.553  0.00  0.00    +0.000 C 
ATOM     21  C   UNL     1       4.512   4.162  18.962  0.00  0.00    +0.000 C 
ENDBRANCH   9  16
BRANCH   1  22
ATOM     22  C   UNL     1      -1.204  12.200  19.885  0.00  0.00    +0.000 C 
BRANCH  22  23
ATOM     23  N   UNL     1      -1.403  12.670  18.515  0.00  0.00    +0.000 NA
ATOM     24  H   UNL     1      -0.789  12.144  17.891  0.00  0.00    +0.000 HD
ATOM     25  H   UNL     1      -1.088  13.640  18.438  0.00  0.00    +0.000 HD
ENDBRANCH  22  23
ENDBRANCH   1  22
TORSDOF 3
ENDMDL
MODEL 2
REMARK VINA RESULT:      -7.3      2.922      7.304
REMARK  Name = 
REMARK  3 active torsions:
REMARK  status: ('A' for Active; 'I' for Inactive)
REMARK    1  A    between atoms: N_1  and  C_2
REMARK    2  A    between atoms: C_2  and  C_3
REMARK    3  A    between atoms: C_11  and  N_12
REMARK                            x       y       z     vdW  Elec       q    Type
REMARK                         _______ _______ _______ _____ _____    ______ ____
ROOT
ATOM      1  C   UNL     1       5.328   5.595  16.623  0.00  0.00    +0.000 C 
ATOM      2  O   UNL     1       6.198   5.117  17.679  0.00  0.00    +0.000 OA
ATOM      3  C   UNL     1       5.532   5.161  18.869  0.00  0.00    +0.000 C 
ATOM      4  O   UNL     1       6.008   4.792  19.928  0.00  0.00    +0.000 OA
ATOM      5  N   UNL     1       4.290   5.669  18.675  0.00  0.00    +0.000 N 
ATOM      6  C   UNL     1       3.325   5.985  19.683  0.00  0.00    +0.000 C 
ATOM      7  C   UNL     1       2.597   7.243  19.311  0.00  0.00    +0.000 A 
ATOM      8  C   UNL     1       1.652   7.796  20.190  0.00  0.00    +0.000 A 
ATOM      9  C   UNL     1       0.919   8.953  19.872  0.00  0.00    +0.000 A 
ATOM     10  C   UNL     1       1.195   9.546  18.626  0.00  0.00    +0.000 A 
ATOM     11  F   UNL     1       0.562  10.671  18.256  0.00  0.00    +0.000 F 
ATOM     12  C   UNL     1       2.149   9.025  17.746  0.00  0.00    +0.000 A 
ATOM     13  C   UNL     1       2.836   7.864  18.082  0.00  0.00    +0.000 A 
ATOM     14  O   UNL     1       3.761   7.392  17.183  0.00  0.00    +0.000 OA
ATOM     15  C   UNL     1       4.026   5.988  17.317  0.00  0.00    +0.000 C 
ENDROOT
BRANCH   9  16
ATOM     16  N   UNL     1      -0.030   9.418  20.765  0.00  0.00    +0.000 N 
ATOM     17  C   UNL     1      -0.534  10.800  20.747  0.00  0.00    +0.000 C 
ATOM     18  C   UNL     1      -0.155  11.544  22.034  0.00  0.00    +0.000 C 
ATOM     19  O   UNL     1      -0.563  10.813  23.206  0.00  0.00    +0.000 OA
ATOM     20  C   UNL     1       0.078   9.528  23.230  0.00  0.00    +0.000 C 
ATOM     21  C   UNL     1      -0.307   8.679  22.008  0.00  0.00    +0.000 C 
ENDBRANCH   9  16
BRANCH   1  22
ATOM     22  C   UNL     1       5.161   4.445  15.618  0.00  0.00    +0.000 C 
BRANCH  22  23
ATOM     23  N   UNL     1       6.031   3.298  15.874  0.00  0.00    +0.000 NA
ATOM     24  H   UNL     1       6.819   3.601  16.449  0.00  0.00    +0.000 HD
ATOM     25  H   UNL     1       6.452   2.986  14.995  0.00  0.00    +0.000 HD
ENDBRANCH  22  23
ENDBRANCH   1  22
TORSDOF 3
ENDMDL
MODEL 3
REMARK VINA RESULT:      -7.1      1.168      1.701
REMARK  Name = 
REMARK  3 active torsions:
REMARK  status: ('A' for Active; 'I' for Inactive)
REMARK    1  A    between atoms: N_1  and  C_2
REMARK    2  A    between atoms: C_2  and  C_3
REMARK    3  A    between atoms: C_11  and  N_12
REMARK                            x       y       z     vdW  Elec       q    Type
REMARK                         _______ _______ _______ _____ _____    ______ ____
ROOT
ATOM      1  C   UNL     1      -0.151  11.257  19.996  0.00  0.00    +0.000 C 
ATOM      2  O   UNL     1       0.735  12.269  19.460  0.00  0.00    +0.000 OA
ATOM      3  C   UNL     1       1.625  11.686  18.605  0.00  0.00    +0.000 C 
ATOM      4  O   UNL     1       2.474  12.301  17.985  0.00  0.00    +0.000 OA
ATOM      5  N   UNL     1       1.407  10.348  18.568  0.00  0.00    +0.000 N 
ATOM      6  C   UNL     1       2.197   9.369  17.887  0.00  0.00    +0.000 C 
ATOM      7  C   UNL     1       2.288   8.123  18.719  0.00  0.00    +0.000 A 
ATOM      8  C   UNL     1       3.081   7.047  18.289  0.00  0.00    +0.000 A 
ATOM      9  C   UNL     1       3.171   5.846  19.015  0.00  0.00    +0.000 A 
ATOM     10  C   UNL     1       2.436   5.783  20.214  0.00  0.00    +0.000 A 
ATOM     11  F   UNL     1       2.490   4.684  20.984  0.00  0.00    +0.000 F 
ATOM     12  C   UNL     1       1.660   6.852  20.671  0.00  0.00    +0.000 A 
ATOM     13  C   UNL     1       1.572   8.015  19.914  0.00  0.00    +0.000 A 
ATOM     14  O   UNL     1       0.796   9.035  20.406  0.00  0.00    +0.000 OA
ATOM     15  C   UNL     1       0.327   9.938  19.394  0.00  0.00    +0.000 C 
ENDROOT
BRANCH   9  16
ATOM     16  N   UNL     1       3.935   4.808  18.511  0.00  0.00    +0.000 N 
ATOM     17  C   UNL     1       5.259   4.456  19.049  0.00  0.00    +0.000 C 
ATOM     18  C   UNL     1       6.357   4.679  18.001  0.00  0.00    +0.000 C 
ATOM     19  O   UNL     1       6.054   4.002  16.767  0.00  0.00    +0.000 OA
ATOM     20  C   UNL     1       4.820   4.497  16.226  0.00  0.00    +0.000 C 
ATOM     21  C   UNL     1       3.641   4.246  17.182  0.00  0.00    +0.000 C 
ENDBRANCH   9  16
BRANCH   1  22
ATOM     22  C   UNL     1      -1.580  11.636  19.579  0.00  0.00    +0.000 C 
BRANCH  22  23
ATOM     23  N   UNL     1      -1.702  12.985  19.029  0.00  0.00    +0.000 NA
ATOM     24  H   UNL     1      -0.867  13.196  18.479  0.00  0.00    +0.000 HD
ATOM     25  H   UNL     1      -1.694  13.667  19.791  0.00  0.00    +0.000 HD
ENDBRANCH  22  23
ENDBRANCH   1  22
TORSDOF 3
ENDMDL
MODEL 4
REMARK VINA RESULT:      -6.9      2.245      7.800
REMARK  Name = 
REMARK  3 active torsions:
REMARK  status: ('A' for Active; 'I' for Inactive)
REMARK    1  A    between atoms: N_1  and  C_2
REMARK    2  A    between atoms: C_2  and  C_3
REMARK    3  A    between atoms: C_11  and  N_12
REMARK                            x       y       z     vdW  Elec       q    Type
REMARK                         _______ _______ _______ _____ _____    ______ ____
ROOT
ATOM      1  C   UNL     1       3.693   3.084  18.921  0.00  0.00    +0.000 C 
ATOM      2  O   UNL     1       3.749   2.599  20.285  0.00  0.00    +0.000 OA
ATOM      3  C   UNL     1       2.887   3.320  21.059  0.00  0.00    +0.000 C 
ATOM      4  O   UNL     1       2.705   3.114  22.245  0.00  0.00    +0.000 OA
ATOM      5  N   UNL     1       2.290   4.273  20.303  0.00  0.00    +0.000 N 
ATOM      6  C   UNL     1       1.411   5.306  20.761  0.00  0.00    +0.000 C 
ATOM      7  C   UNL     1       1.685   6.575  20.008  0.00  0.00    +0.000 A 
ATOM      8  C   UNL     1       0.996   7.753  20.340  0.00  0.00    +0.000 A 
ATOM      9  C   UNL     1       1.192   8.958  19.643  0.00  0.00    +0.000 A 
ATOM     10  C   UNL     1       2.133   8.930  18.597  0.00  0.00    +0.000 A 
ATOM     11  F   UNL     1       2.404  10.045  17.899  0.00  0.00    +0.000 F 
ATOM     12  C   UNL     1       2.847   7.774  18.266  0.00  0.00    +0.000 A 
ATOM     13  C   UNL     1       2.609   6.593  18.960  0.00  0.00    +0.000 A 
ATOM     14  O   UNL     1       3.334   5.485  18.595  0.00  0.00    +0.000 OA
ATOM     15  C   UNL     1       2.701   4.245  18.944  0.00  0.00    +0.000 C 
ENDROOT
BRANCH   9  16
ATOM     16  N   UNL     1       0.446  10.069  19.993  0.00  0.00    +0.000 N 
ATOM     17  C   UNL     1      -0.780  10.465  19.281  0.00  0.00    +0.000 C 
ATOM     18  C   UNL     1      -0.603  11.823  18.590  0.00  0.00    +0.000 C 
ATOM     19  O   UNL     1      -0.139  12.828  19.510  0.00  0.00    +0.000 OA
ATOM     20  C   UNL     1       1.130  12.442  20.060  0.00  0.00    +0.000 C 
ATOM     21  C   UNL     1       1.031  11.121  20.841  0.00  0.00    +0.000 C 
ENDBRANCH   9  16
BRANCH   1  22
ATOM     22  C   UNL     1       3.238   1.911  18.041  0.00  0.00    +0.000 C 
BRANCH  22  23
ATOM     23  N   UNL     1       4.075   0.718  18.157  0.00  0.00    +0.000 NA
ATOM     24  H   UNL     1       3.755   0.165  18.954  0.00  0.00    +0.000 HD
ATOM     25  H   UNL     1       5.031   0.993  18.394  0.00  0.00    +0.000 HD
ENDBRANCH  22  23
ENDBRANCH   1  22
TORSDOF 3
ENDMDL
MODEL 5
REMARK VINA RESULT:      -6.9      2.312      3.297
REMARK  Name = 
REMARK  3 active torsions:
REMARK  status: ('A' for Active; 'I' for Inactive)
REMARK    1  A    between atoms: N_1  and  C_2
REMARK    2  A    between atoms: C_2  and  C_3
REMARK    3  A    between atoms: C_11  and  N_12
REMARK                            x       y       z     vdW  Elec       q    Type
REMARK                         _______ _______ _______ _____ _____    ______ ____
ROOT
ATOM      1  C   UNL     1      -0.173  12.772  20.888  0.00  0.00    +0.000 C 
ATOM      2  O   UNL     1      -1.183  12.454  21.876  0.00  0.00    +0.000 OA
ATOM      3  C   UNL     1      -0.913  11.233  22.424  0.00  0.00    +0.000 C 
ATOM      4  O   UNL     1      -1.581  10.721  23.304  0.00  0.00    +0.000 OA
ATOM      5  N   UNL     1       0.190  10.708  21.836  0.00  0.00    +0.000 N 
ATOM      6  C   UNL     1       0.731   9.400  22.044  0.00  0.00    +0.000 C 
ATOM      7  C   UNL     1       1.242   8.851  20.744  0.00  0.00    +0.000 A 
ATOM      8  C   UNL     1       1.750   7.543  20.683  0.00  0.00    +0.000 A 
ATOM      9  C   UNL     1       2.272   6.996  19.498  0.00  0.00    +0.000 A 
ATOM     10  C   UNL     1       2.244   7.825  18.360  0.00  0.00    +0.000 A 
ATOM     11  F   UNL     1       2.694   7.370  17.180  0.00  0.00    +0.000 F 
ATOM     12  C   UNL     1       1.720   9.121  18.394  0.00  0.00    +0.000 A 
ATOM     13  C   UNL     1       1.237   9.639  19.590  0.00  0.00    +0.000 A 
ATOM     14  O   UNL     1       0.735  10.917  19.570  0.00  0.00    +0.000 OA
ATOM     15  C   UNL     1       0.756  11.561  20.853  0.00  0.00    +0.000 C 
ENDROOT
BRANCH   9  16
ATOM     16  N   UNL     1       2.799   5.717  19.519  0.00  0.00    +0.000 N 
ATOM     17  C   UNL     1       4.243   5.446  19.431  0.00  0.00    +0.000 C 
ATOM     18  C   UNL     1       4.583   4.677  18.148  0.00  0.00    +0.000 C 
ATOM     19  O   UNL     1       3.780   3.489  18.016  0.00  0.00    +0.000 OA
ATOM     20  C   UNL     1       2.389   3.840  17.966  0.00  0.00    +0.000 C 
ATOM     21  C   UNL     1       1.938   4.553  19.252  0.00  0.00    +0.000 C 
ENDBRANCH   9  16
BRANCH   1  22
ATOM     22  C   UNL     1       0.523  14.062  21.348  0.00  0.00    +0.000 C 
BRANCH  22  23
ATOM     23  N   UNL     1       1.951  13.906  21.620  0.00  0.00    +0.000 NA
ATOM     24  H   UNL     1       2.078  13.686  22.609  0.00  0.00    +0.000 HD
ATOM     25  H   UNL     1       2.424  14.802  21.486  0.00  0.00    +0.000 HD
ENDBRANCH  22  23
ENDBRANCH   1  22
TORSDOF 3
ENDMDL
MODEL 6
REMARK VINA RESULT:      -6.8      1.156      1.183
REMARK  Name = 
REMARK  3 active torsions:
REMARK  status: ('A' for Active; 'I' for Inactive)
REMARK    1  A    between atoms: N_1  and  C_2
REMARK    2  A    between atoms: C_2  and  C_3
REMARK    3  A    between atoms: C_11  and  N_12
REMARK                            x       y       z     vdW  Elec       q    Type
REMARK                         _______ _______ _______ _____ _____    ______ ____
ROOT
ATOM      1  C   UNL     1       0.268  11.801  21.137  0.00  0.00    +0.000 C 
ATOM      2  O   UNL     1       1.057  12.785  20.425  0.00  0.00    +0.000 OA
ATOM      3  C   UNL     1       1.559  12.226  19.286  0.00  0.00    +0.000 C 
ATOM      4  O   UNL     1       2.239  12.829  18.476  0.00  0.00    +0.000 OA
ATOM      5  N   UNL     1       1.181  10.926  19.216  0.00  0.00    +0.000 N 
ATOM      6  C   UNL     1       1.595   9.964  18.241  0.00  0.00    +0.000 C 
ATOM      7  C   UNL     1       1.791   8.629  18.897  0.00  0.00    +0.000 A 
ATOM      8  C   UNL     1       2.274   7.541  18.152  0.00  0.00    +0.000 A 
ATOM      9  C   UNL     1       2.442   6.263  18.712  0.00  0.00    +0.000 A 
ATOM     10  C   UNL     1       2.115   6.130  20.075  0.00  0.00    +0.000 A 
ATOM     11  F   UNL     1       2.275   4.950  20.697  0.00  0.00    +0.000 F 
ATOM     12  C   UNL     1       1.655   7.205  20.841  0.00  0.00    +0.000 A 
ATOM     13  C   UNL     1       1.476   8.449  20.247  0.00  0.00    +0.000 A 
ATOM     14  O   UNL     1       1.021   9.472  21.042  0.00  0.00    +0.000 OA
ATOM     15  C   UNL     1       0.372  10.522  20.310  0.00  0.00    +0.000 C 
ENDROOT
BRANCH   9  16
ATOM     16  N   UNL     1       2.879   5.225  17.908  0.00  0.00    +0.000 N 
ATOM     17  C   UNL     1       1.994   4.139  17.455  0.00  0.00    +0.000 C 
ATOM     18  C   UNL     1       2.440   2.788  18.029  0.00  0.00    +0.000 C 
ATOM     19  O   UNL     1       3.830   2.531  17.757  0.00  0.00    +0.000 OA
ATOM     20  C   UNL     1       4.644   3.555  18.349  0.00  0.00    +0.000 C 
ATOM     21  C   UNL     1       4.317   4.943  17.774  0.00  0.00    +0.000 C 
ENDBRANCH   9  16
BRANCH   1  22
ATOM     22  C   UNL     1      -1.163  12.351  21.233  0.00  0.00    +0.000 C 
BRANCH  22  23
ATOM     23  N   UNL     1      -1.827  12.068  22.505  0.00  0.00    +0.000 NA
ATOM     24  H   UNL     1      -1.650  11.095  22.762  0.00  0.00    +0.000 HD
ATOM     25  H   UNL     1      -2.840  12.128  22.383  0.00  0.00    +0.000 HD
ENDBRANCH  22  23
ENDBRANCH   1  22
TORSDOF 3
ENDMDL
MODEL 7
REMARK VINA RESULT:      -6.8      1.924      7.568
REMARK  Name = 
REMARK  3 active torsions:
REMARK  status: ('A' for Active; 'I' for Inactive)
REMARK    1  A    between atoms: N_1  and  C_2
REMARK    2  A    between atoms: C_2  and  C_3
REMARK    3  A    between atoms: C_11  and  N_12
REMARK                            x       y       z     vdW  Elec       q    Type
REMARK                         _______ _______ _______ _____ _____    ______ ____
ROOT
ATOM      1  C   UNL     1       2.981   3.188  20.275  0.00  0.00    +0.000 C 
ATOM      2  O   UNL     1       2.595   2.517  19.050  0.00  0.00    +0.000 OA
ATOM      3  C   UNL     1       2.499   3.433  18.043  0.00  0.00    +0.000 C 
ATOM      4  O   UNL     1       2.217   3.150  16.892  0.00  0.00    +0.000 OA
ATOM      5  N   UNL     1       2.763   4.670  18.530  0.00  0.00    +0.000 N 
ATOM      6  C   UNL     1       2.655   5.911  17.825  0.00  0.00    +0.000 C 
ATOM      7  C   UNL     1       2.118   6.970  18.742  0.00  0.00    +0.000 A 
ATOM      8  C   UNL     1       1.851   8.258  18.251  0.00  0.00    +0.000 A 
ATOM      9  C   UNL     1       1.381   9.293  19.077  0.00  0.00    +0.000 A 
ATOM     10  C   UNL     1       1.173   8.968  20.431  0.00  0.00    +0.000 A 
ATOM     11  F   UNL     1       0.696   9.889  21.284  0.00  0.00    +0.000 F 
ATOM     12  C   UNL     1       1.410   7.686  20.935  0.00  0.00    +0.000 A 
ATOM     13  C   UNL     1       1.900   6.693  20.094  0.00  0.00    +0.000 A 
ATOM     14  O   UNL     1       2.119   5.451  20.639  0.00  0.00    +0.000 OA
ATOM     15  C   UNL     1       3.078   4.668  19.914  0.00  0.00    +0.000 C 
ENDROOT
BRANCH   9  16
ATOM     16  N   UNL     1       1.182  10.551  18.537  0.00  0.00    +0.000 N 
ATOM     17  C   UNL     1       2.262  11.542  18.400  0.00  0.00    +0.000 C 
ATOM     18  C   UNL     1       1.993  12.776  19.270  0.00  0.00    +0.000 C 
ATOM     19  O   UNL     1       0.689  13.329  19.015  0.00  0.00    +0.000 OA
ATOM     20  C   UNL     1      -0.323  12.353  19.305  0.00  0.00    +0.000 C 
ATOM     21  C   UNL     1      -0.178  11.104  18.420  0.00  0.00    +0.000 C 
ENDBRANCH   9  16
BRANCH   1  22
ATOM     22  C   UNL     1       4.319   2.579  20.722  0.00  0.00    +0.000 C 
BRANCH  22  23
ATOM     23  N   UNL     1       4.978   1.769  19.699  0.00  0.00    +0.000 NA
ATOM     24  H   UNL     1       4.427   1.808  18.840  0.00  0.00    +0.000 HD
ATOM     25  H   UNL     1       4.960   0.785  19.978  0.00  0.00    +0.000 HD
ENDBRANCH  22  23
ENDBRANCH   1  22
TORSDOF 3
ENDMDL
MODEL 8
REMARK VINA RESULT:      -6.7      2.361      7.622
REMARK  Name = 
REMARK  3 active torsions:
REMARK  status: ('A' for Active; 'I' for Inactive)
REMARK    1  A    between atoms: N_1  and  C_2
REMARK    2  A    between atoms: C_2  and  C_3
REMARK    3  A    between atoms: C_11  and  N_12
REMARK                            x       y       z     vdW  Elec       q    Type
REMARK                         _______ _______ _______ _____ _____    ______ ____
ROOT
ATOM      1  C   UNL     1       3.204   2.985  18.893  0.00  0.00    +0.000 C 
ATOM      2  O   UNL     1       3.357   2.566  20.271  0.00  0.00    +0.000 OA
ATOM      3  C   UNL     1       2.671   3.422  21.084  0.00  0.00    +0.000 C 
ATOM      4  O   UNL     1       2.598   3.300  22.293  0.00  0.00    +0.000 OA
ATOM      5  N   UNL     1       2.104   4.400  20.335  0.00  0.00    +0.000 N 
ATOM      6  C   UNL     1       1.402   5.550  20.815  0.00  0.00    +0.000 C 
ATOM      7  C   UNL     1       1.731   6.739  19.960  0.00  0.00    +0.000 A 
ATOM      8  C   UNL     1       1.219   8.005  20.286  0.00  0.00    +0.000 A 
ATOM      9  C   UNL     1       1.469   9.141  19.498  0.00  0.00    +0.000 A 
ATOM     10  C   UNL     1       2.281   8.949  18.364  0.00  0.00    +0.000 A 
ATOM     11  F   UNL     1       2.596   9.988  17.572  0.00  0.00    +0.000 F 
ATOM     12  C   UNL     1       2.821   7.702  18.035  0.00  0.00    +0.000 A 
ATOM     13  C   UNL     1       2.530   6.594  18.822  0.00  0.00    +0.000 A 
ATOM     14  O   UNL     1       3.082   5.392  18.455  0.00  0.00    +0.000 OA
ATOM     15  C   UNL     1       2.358   4.255  18.945  0.00  0.00    +0.000 C 
ENDROOT
BRANCH   9  16
ATOM     16  N   UNL     1       0.896  10.349  19.852  0.00  0.00    +0.000 N 
ATOM     17  C   UNL     1       0.790  10.804  21.248  0.00  0.00    +0.000 C 
ATOM     18  C   UNL     1      -0.677  10.920  21.681  0.00  0.00    +0.000 C 
ATOM     19  O   UNL     1      -1.435  11.734  20.767  0.00  0.00    +0.000 OA
ATOM     20  C   UNL     1      -1.405  11.154  19.454  0.00  0.00    +0.000 C 
ATOM     21  C   UNL     1       0.029  11.068  18.904  0.00  0.00    +0.000 C 
ENDBRANCH   9  16
BRANCH   1  22
ATOM     22  C   UNL     1       2.527   1.830  18.140  0.00  0.00    +0.000 C 
BRANCH  22  23
ATOM     23  N   UNL     1       1.074   1.789  18.293  0.00  0.00    +0.000 NA
ATOM     24  H   UNL     1       0.744   0.846  18.081  0.00  0.00    +0.000 HD
ATOM     25  H   UNL     1       0.639   2.386  17.585  0.00  0.00    +0.000 HD
ENDBRANCH  22  23
ENDBRANCH   1  22
TORSDOF 3
ENDMDL
MODEL 9
REMARK VINA RESULT:      -6.7      1.986      2.957
REMARK  Name = 
REMARK  3 active torsions:
REMARK  status: ('A' for Active; 'I' for Inactive)
REMARK    1  A    between atoms: N_1  and  C_2
REMARK    2  A    between atoms: C_2  and  C_3
REMARK    3  A    between atoms: C_11  and  N_12
REMARK                            x       y       z     vdW  Elec       q    Type
REMARK                         _______ _______ _______ _____ _____    ______ ____
ROOT
ATOM      1  C   UNL     1       0.188  12.117  20.398  0.00  0.00    +0.000 C 
ATOM      2  O   UNL     1      -0.812  11.964  21.434  0.00  0.00    +0.000 OA
ATOM      3  C   UNL     1      -0.576  10.812  22.127  0.00  0.00    +0.000 C 
ATOM      4  O   UNL     1      -1.244  10.440  23.075  0.00  0.00    +0.000 OA
ATOM      5  N   UNL     1       0.496  10.175  21.593  0.00  0.00    +0.000 N 
ATOM      6  C   UNL     1       0.994   8.884  21.956  0.00  0.00    +0.000 C 
ATOM      7  C   UNL     1       1.459   8.157  20.728  0.00  0.00    +0.000 A 
ATOM      8  C   UNL     1       1.918   6.834  20.824  0.00  0.00    +0.000 A 
ATOM      9  C   UNL     1       2.397   6.123  19.710  0.00  0.00    +0.000 A 
ATOM     10  C   UNL     1       2.375   6.803  18.478  0.00  0.00    +0.000 A 
ATOM     11  F   UNL     1       2.785   6.187  17.357  0.00  0.00    +0.000 F 
ATOM     12  C   UNL     1       1.899   8.112  18.356  0.00  0.00    +0.000 A 
ATOM     13  C   UNL     1       1.458   8.794  19.484  0.00  0.00    +0.000 A 
ATOM     14  O   UNL     1       1.003  10.078  19.311  0.00  0.00    +0.000 OA
ATOM     15  C   UNL     1       1.073  10.876  20.502  0.00  0.00    +0.000 C 
ENDROOT
BRANCH   9  16
ATOM     16  N   UNL     1       2.878   4.837  19.885  0.00  0.00    +0.000 N 
ATOM     17  C   UNL     1       4.203   4.409  19.409  0.00  0.00    +0.000 C 
ATOM     18  C   UNL     1       4.078   3.332  18.324  0.00  0.00    +0.000 C 
ATOM     19  O   UNL     1       3.257   2.233  18.762  0.00  0.00    +0.000 OA
ATOM     20  C   UNL     1       1.937   2.702  19.075  0.00  0.00    +0.000 C 
ATOM     21  C   UNL     1       1.957   3.737  20.213  0.00  0.00    +0.000 C 
ENDBRANCH   9  16
BRANCH   1  22
ATOM     22  C   UNL     1       0.939  13.427  20.681  0.00  0.00    +0.000 C 
BRANCH  22  23
ATOM     23  N   UNL     1       2.292  13.239  21.200  0.00  0.00    +0.000 NA
ATOM     24  H   UNL     1       2.960  13.366  20.438  0.00  0.00    +0.000 HD
ATOM     25  H   UNL     1       2.413  12.267  21.496  0.00  0.00    +0.000 HD
ENDBRANCH  22  23
ENDBRANCH   1  22
TORSDOF 3
ENDMDL
