MODEL 1
REMARK VINA RESULT:      -8.7      0.000      0.000
REMARK  Name = 
REMARK  4 active torsions:
REMARK  status: ('A' for Active; 'I' for Inactive)
REMARK    1  A    between atoms: N_7  and  C_8
REMARK    2  A    between atoms: C_8  and  C_9
REMARK    3  A    between atoms: C_9  and  C_10
REMARK    4  A    between atoms: N_21  and  C_22
REMARK                            x       y       z     vdW  Elec       q    Type
REMARK                         _______ _______ _______ _____ _____    ______ ____
ROOT
ATOM      1 CL   UNL     1      -6.062  11.229  18.367  0.00  0.00    +0.000 Cl
ATOM      2  C   UNL     1      -4.363  11.023  18.189  0.00  0.00    +0.000 A 
ATOM      3  C   UNL     1      -3.843   9.813  17.753  0.00  0.00    +0.000 A 
ATOM      4  C   UNL     1      -2.449   9.636  17.676  0.00  0.00    +0.000 A 
ATOM      5  C   UNL     1      -1.561  10.678  18.055  0.00  0.00    +0.000 A 
ATOM      6  C   UNL     1      -0.137  10.617  18.122  0.00  0.00    +0.000 A 
ATOM      7  N   UNL     1       0.568   9.448  17.765  0.00  0.00    +0.000 N 
ATOM      8  N   UNL     1       0.560  11.677  18.551  0.00  0.00    +0.000 NA
ATOM      9  C   UNL     1      -0.091  12.807  18.890  0.00  0.00    +0.000 A 
ATOM     10  N   UNL     1       0.549  13.899  19.415  0.00  0.00    +0.000 N 
ATOM     11  N   UNL     1      -1.419  12.935  18.837  0.00  0.00    +0.000 NA
ATOM     12  C   UNL     1      -2.134  11.899  18.457  0.00  0.00    +0.000 A 
ATOM     13  C   UNL     1      -3.510  12.063  18.512  0.00  0.00    +0.000 A 
ATOM     14  H   UNL     1       0.406   9.255  16.770  0.00  0.00    +0.000 HD
ATOM     15  H   UNL     1      -0.132  14.599  19.659  0.00  0.00    +0.000 HD
ENDROOT
BRANCH  10  16
ATOM     16  C   UNL     1       1.884  14.161  19.693  0.00  0.00    +0.000 A 
ATOM     17  C   UNL     1       2.322  14.059  21.024  0.00  0.00    +0.000 A 
ATOM     18  C   UNL     1       3.650  14.279  21.393  0.00  0.00    +0.000 A 
ATOM     19  C   UNL     1       4.526  14.636  20.366  0.00  0.00    +0.000 A 
ATOM     20  N   UNL     1       5.852  14.994  20.379  0.00  0.00    +0.000 N 
ATOM     21  N   UNL     1       6.365  15.238  19.163  0.00  0.00    +0.000 NA
ATOM     22  C   UNL     1       5.328  15.040  18.343  0.00  0.00    +0.000 A 
ATOM     23  C   UNL     1       4.148  14.706  19.039  0.00  0.00    +0.000 A 
ATOM     24  C   UNL     1       2.817  14.450  18.687  0.00  0.00    +0.000 A 
ATOM     25  H   UNL     1       6.439  15.119  21.188  0.00  0.00    +0.000 HD
ENDBRANCH  10  16
BRANCH   7  26
ATOM     26  C   UNL     1       2.032   9.305  18.126  0.00  0.00    +0.000 C 
BRANCH  26  27
ATOM     27  C   UNL     1       2.216   8.167  19.124  0.00  0.00    +0.000 C 
BRANCH  27  28
ATOM     28  C   UNL     1       2.566   6.705  18.888  0.00  0.00    +0.000 A 
ATOM     29  C   UNL     1       3.273   6.473  17.708  0.00  0.00    +0.000 A 
ATOM     30  N   UNL     1       3.671   5.174  17.709  0.00  0.00    +0.000 N 
ATOM     31  C   UNL     1       2.599   4.520  18.272  0.00  0.00    +0.000 A 
ATOM     32  C   UNL     1       2.036   3.295  17.926  0.00  0.00    +0.000 A 
ATOM     33  C   UNL     1       1.122   2.770  18.821  0.00  0.00    +0.000 A 
ATOM     34  C   UNL     1       0.924   3.400  20.052  0.00  0.00    +0.000 A 
ATOM     35  C   UNL     1       1.438   4.698  20.326  0.00  0.00    +0.000 A 
ATOM     36  C   UNL     1       2.182   5.358  19.321  0.00  0.00    +0.000 A 
ATOM     37  H   UNL     1       4.597   4.933  18.038  0.00  0.00    +0.000 HD
ENDBRANCH  27  28
ENDBRANCH  26  27
ENDBRANCH   7  26
TORSDOF 4
ENDMDL
MODEL 2
REMARK VINA RESULT:      -8.5      0.900      1.235
REMARK  Name = 
REMARK  4 active torsions:
REMARK  status: ('A' for Active; 'I' for Inactive)
REMARK    1  A    between atoms: N_7  and  C_8
REMARK    2  A    between atoms: C_8  and  C_9
REMARK    3  A    between atoms: C_9  and  C_10
REMARK    4  A    between atoms: N_21  and  C_22
REMARK                            x       y       z     vdW  Elec       q    Type
REMARK                         _______ _______ _______ _____ _____    ______ ____
ROOT
ATOM      1 CL   UNL     1      -6.059  10.942  18.487  0.00  0.00    +0.000 Cl
ATOM      2  C   UNL     1      -4.355  10.847  18.267  0.00  0.00    +0.000 A 
ATOM      3  C   UNL     1      -3.777   9.705  17.730  0.00  0.00    +0.000 A 
ATOM      4  C   UNL     1      -2.377   9.613  17.618  0.00  0.00    +0.000 A 
ATOM      5  C   UNL     1      -1.541  10.672  18.064  0.00  0.00    +0.000 A 
ATOM      6  C   UNL     1      -0.114  10.686  18.104  0.00  0.00    +0.000 A 
ATOM      7  N   UNL     1       0.646   9.589  17.647  0.00  0.00    +0.000 N 
ATOM      8  N   UNL     1       0.531  11.746  18.604  0.00  0.00    +0.000 NA
ATOM      9  C   UNL     1      -0.174  12.809  19.041  0.00  0.00    +0.000 A 
ATOM     10  N   UNL     1       0.415  13.892  19.639  0.00  0.00    +0.000 N 
ATOM     11  N   UNL     1      -1.508  12.866  19.018  0.00  0.00    +0.000 NA
ATOM     12  C   UNL     1      -2.172  11.823  18.570  0.00  0.00    +0.000 A 
ATOM     13  C   UNL     1      -3.554  11.905  18.657  0.00  0.00    +0.000 A 
ATOM     14  H   UNL     1       0.475   9.465  16.642  0.00  0.00    +0.000 HD
ATOM     15  H   UNL     1      -0.299  14.531  19.948  0.00  0.00    +0.000 HD
ENDROOT
BRANCH  10  16
ATOM     16  C   UNL     1       1.739  14.206  19.917  0.00  0.00    +0.000 A 
ATOM     17  C   UNL     1       2.150  14.242  21.259  0.00  0.00    +0.000 A 
ATOM     18  C   UNL     1       3.465  14.523  21.632  0.00  0.00    +0.000 A 
ATOM     19  C   UNL     1       4.357  14.797  20.592  0.00  0.00    +0.000 A 
ATOM     20  N   UNL     1       5.675  15.180  20.596  0.00  0.00    +0.000 N 
ATOM     21  N   UNL     1       6.210  15.315  19.371  0.00  0.00    +0.000 NA
ATOM     22  C   UNL     1       5.194  15.019  18.554  0.00  0.00    +0.000 A 
ATOM     23  C   UNL     1       4.006  14.731  19.257  0.00  0.00    +0.000 A 
ATOM     24  C   UNL     1       2.687  14.415  18.905  0.00  0.00    +0.000 A 
ATOM     25  H   UNL     1       6.242  15.395  21.399  0.00  0.00    +0.000 HD
ENDBRANCH  10  16
BRANCH   7  26
ATOM     26  C   UNL     1       2.123   9.501  17.972  0.00  0.00    +0.000 C 
BRANCH  26  27
ATOM     27  C   UNL     1       2.602   8.061  17.838  0.00  0.00    +0.000 C 
BRANCH  27  28
ATOM     28  C   UNL     1       2.263   6.834  18.674  0.00  0.00    +0.000 A 
ATOM     29  C   UNL     1       2.355   7.041  20.050  0.00  0.00    +0.000 A 
ATOM     30  N   UNL     1       1.861   5.938  20.671  0.00  0.00    +0.000 N 
ATOM     31  C   UNL     1       2.302   4.907  19.874  0.00  0.00    +0.000 A 
ATOM     32  C   UNL     1       2.790   3.657  20.242  0.00  0.00    +0.000 A 
ATOM     33  C   UNL     1       2.928   2.732  19.225  0.00  0.00    +0.000 A 
ATOM     34  C   UNL     1       2.452   3.038  17.947  0.00  0.00    +0.000 A 
ATOM     35  C   UNL     1       2.055   4.356  17.586  0.00  0.00    +0.000 A 
ATOM     36  C   UNL     1       2.136   5.378  18.559  0.00  0.00    +0.000 A 
ATOM     37  H   UNL     1       0.895   5.922  20.973  0.00  0.00    +0.000 HD
ENDBRANCH  27  28
ENDBRANCH  26  27
ENDBRANCH   7  26
TORSDOF 4
ENDMDL
MODEL 3
REMARK VINA RESULT:      -8.5      3.880      7.405
REMARK  Name = 
REMARK  4 active torsions:
REMARK  status: ('A' for Active; 'I' for Inactive)
REMARK    1  A    between atoms: N_7  and  C_8
REMARK    2  A    between atoms: C_8  and  C_9
REMARK    3  A    between atoms: C_9  and  C_10
REMARK    4  A    between atoms: N_21  and  C_22
REMARK                            x       y       z     vdW  Elec       q    Type
REMARK                         _______ _______ _______ _____ _____    ______ ____
ROOT
ATOM      1 CL   UNL     1      -1.834  12.127  23.408  0.00  0.00    +0.000 Cl
ATOM      2  C   UNL     1      -0.817  11.315  22.283  0.00  0.00    +0.000 A 
ATOM      3  C   UNL     1      -0.406  11.951  21.119  0.00  0.00    +0.000 A 
ATOM      4  C   UNL     1       0.370  11.253  20.175  0.00  0.00    +0.000 A 
ATOM      5  C   UNL     1       0.726   9.894  20.388  0.00  0.00    +0.000 A 
ATOM      6  C   UNL     1       1.421   9.032  19.487  0.00  0.00    +0.000 A 
ATOM      7  N   UNL     1       1.873   9.490  18.232  0.00  0.00    +0.000 N 
ATOM      8  N   UNL     1       1.637   7.753  19.816  0.00  0.00    +0.000 NA
ATOM      9  C   UNL     1       1.221   7.295  21.014  0.00  0.00    +0.000 A 
ATOM     10  N   UNL     1       1.335   5.980  21.382  0.00  0.00    +0.000 N 
ATOM     11  N   UNL     1       0.579   8.052  21.908  0.00  0.00    +0.000 NA
ATOM     12  C   UNL     1       0.316   9.302  21.597  0.00  0.00    +0.000 A 
ATOM     13  C   UNL     1      -0.433  10.009  22.526  0.00  0.00    +0.000 A 
ATOM     14  H   UNL     1       2.571  10.228  18.381  0.00  0.00    +0.000 HD
ATOM     15  H   UNL     1       0.901   5.847  22.281  0.00  0.00    +0.000 HD
ENDROOT
BRANCH  10  16
ATOM     16  C   UNL     1       1.868   4.869  20.742  0.00  0.00    +0.000 A 
ATOM     17  C   UNL     1       2.376   3.824  21.530  0.00  0.00    +0.000 A 
ATOM     18  C   UNL     1       2.907   2.658  20.975  0.00  0.00    +0.000 A 
ATOM     19  C   UNL     1       2.933   2.594  19.580  0.00  0.00    +0.000 A 
ATOM     20  N   UNL     1       3.443   1.656  18.718  0.00  0.00    +0.000 N 
ATOM     21  N   UNL     1       3.240   1.936  17.420  0.00  0.00    +0.000 NA
ATOM     22  C   UNL     1       2.586   3.102  17.453  0.00  0.00    +0.000 A 
ATOM     23  C   UNL     1       2.406   3.580  18.768  0.00  0.00    +0.000 A 
ATOM     24  C   UNL     1       1.848   4.727  19.347  0.00  0.00    +0.000 A 
ATOM     25  H   UNL     1       3.965   0.830  18.959  0.00  0.00    +0.000 HD
ENDBRANCH  10  16
BRANCH   7  26
ATOM     26  C   UNL     1       2.332   8.498  17.183  0.00  0.00    +0.000 C 
BRANCH  26  27
ATOM     27  C   UNL     1       3.794   8.134  17.413  0.00  0.00    +0.000 C 
BRANCH  27  28
ATOM     28  C   UNL     1       4.481   6.776  17.383  0.00  0.00    +0.000 A 
ATOM     29  C   UNL     1       4.976   6.362  18.621  0.00  0.00    +0.000 A 
ATOM     30  N   UNL     1       5.398   5.078  18.492  0.00  0.00    +0.000 N 
ATOM     31  C   UNL     1       5.957   5.057  17.235  0.00  0.00    +0.000 A 
ATOM     32  C   UNL     1       7.113   4.417  16.797  0.00  0.00    +0.000 A 
ATOM     33  C   UNL     1       7.300   4.367  15.429  0.00  0.00    +0.000 A 
ATOM     34  C   UNL     1       6.286   4.816  14.578  0.00  0.00    +0.000 A 
ATOM     35  C   UNL     1       5.169   5.553  15.060  0.00  0.00    +0.000 A 
ATOM     36  C   UNL     1       5.083   5.824  16.445  0.00  0.00    +0.000 A 
ATOM     37  H   UNL     1       4.779   4.318  18.747  0.00  0.00    +0.000 HD
ENDBRANCH  27  28
ENDBRANCH  26  27
ENDBRANCH   7  26
TORSDOF 4
ENDMDL
MODEL 4
REMARK VINA RESULT:      -8.4      0.837      1.476
REMARK  Name = 
REMARK  4 active torsions:
REMARK  status: ('A' for Active; 'I' for Inactive)
REMARK    1  A    between atoms: N_7  and  C_8
REMARK    2  A    between atoms: C_8  and  C_9
REMARK    3  A    between atoms: C_9  and  C_10
REMARK    4  A    between atoms: N_21  and  C_22
REMARK                            x       y       z     vdW  Elec       q    Type
REMARK                         _______ _______ _______ _____ _____    ______ ____
ROOT
ATOM      1 CL   UNL     1      -6.049  11.130  18.404  0.00  0.00    +0.000 Cl
ATOM      2  C   UNL     1      -4.344  10.974  18.234  0.00  0.00    +0.000 A 
ATOM      3  C   UNL     1      -3.789   9.794  17.758  0.00  0.00    +0.000 A 
ATOM      4  C   UNL     1      -2.391   9.654  17.688  0.00  0.00    +0.000 A 
ATOM      5  C   UNL     1      -1.533  10.704  18.114  0.00  0.00    +0.000 A 
ATOM      6  C   UNL     1      -0.108  10.676  18.192  0.00  0.00    +0.000 A 
ATOM      7  N   UNL     1       0.629   9.539  17.799  0.00  0.00    +0.000 N 
ATOM      8  N   UNL     1       0.558  11.736  18.667  0.00  0.00    +0.000 NA
ATOM      9  C   UNL     1      -0.124  12.837  19.041  0.00  0.00    +0.000 A 
ATOM     10  N   UNL     1       0.483  13.924  19.612  0.00  0.00    +0.000 N 
ATOM     11  N   UNL     1      -1.455  12.933  18.980  0.00  0.00    +0.000 NA
ATOM     12  C   UNL     1      -2.140  11.894  18.556  0.00  0.00    +0.000 A 
ATOM     13  C   UNL     1      -3.520  12.022  18.603  0.00  0.00    +0.000 A 
ATOM     14  H   UNL     1       0.480   9.379  16.796  0.00  0.00    +0.000 HD
ATOM     15  H   UNL     1      -0.218  14.597  19.875  0.00  0.00    +0.000 HD
ENDROOT
BRANCH  10  16
ATOM     16  C   UNL     1       1.809  14.208  19.912  0.00  0.00    +0.000 A 
ATOM     17  C   UNL     1       2.667  14.581  18.865  0.00  0.00    +0.000 A 
ATOM     18  C   UNL     1       4.007  14.908  19.076  0.00  0.00    +0.000 A 
ATOM     19  C   UNL     1       4.465  14.820  20.393  0.00  0.00    +0.000 A 
ATOM     20  N   UNL     1       5.713  14.989  20.940  0.00  0.00    +0.000 N 
ATOM     21  N   UNL     1       5.749  14.853  22.275  0.00  0.00    +0.000 NA
ATOM     22  C   UNL     1       4.480  14.575  22.593  0.00  0.00    +0.000 A 
ATOM     23  C   UNL     1       3.646  14.499  21.459  0.00  0.00    +0.000 A 
ATOM     24  C   UNL     1       2.296  14.205  21.227  0.00  0.00    +0.000 A 
ATOM     25  H   UNL     1       6.573  15.163  20.447  0.00  0.00    +0.000 HD
ENDBRANCH  10  16
BRANCH   7  26
ATOM     26  C   UNL     1       2.093   9.419  18.168  0.00  0.00    +0.000 C 
BRANCH  26  27
ATOM     27  C   UNL     1       2.670   8.126  17.602  0.00  0.00    +0.000 C 
BRANCH  27  28
ATOM     28  C   UNL     1       3.181   6.885  18.321  0.00  0.00    +0.000 A 
ATOM     29  C   UNL     1       4.226   6.237  17.661  0.00  0.00    +0.000 A 
ATOM     30  N   UNL     1       4.699   5.266  18.484  0.00  0.00    +0.000 N 
ATOM     31  C   UNL     1       3.560   4.781  19.083  0.00  0.00    +0.000 A 
ATOM     32  C   UNL     1       3.218   3.466  19.388  0.00  0.00    +0.000 A 
ATOM     33  C   UNL     1       2.119   3.297  20.209  0.00  0.00    +0.000 A 
ATOM     34  C   UNL     1       1.514   4.416  20.789  0.00  0.00    +0.000 A 
ATOM     35  C   UNL     1       1.825   5.741  20.374  0.00  0.00    +0.000 A 
ATOM     36  C   UNL     1       2.786   5.923  19.353  0.00  0.00    +0.000 A 
ATOM     37  H   UNL     1       5.499   5.455  19.075  0.00  0.00    +0.000 HD
ENDBRANCH  27  28
ENDBRANCH  26  27
ENDBRANCH   7  26
TORSDOF 4
ENDMDL
MODEL 5
REMARK VINA RESULT:      -8.3      3.886      5.248
REMARK  Name = 
REMARK  4 active torsions:
REMARK  status: ('A' for Active; 'I' for Inactive)
REMARK    1  A    between atoms: N_7  and  C_8
REMARK    2  A    between atoms: C_8  and  C_9
REMARK    3  A    between atoms: C_9  and  C_10
REMARK    4  A    between atoms: N_21  and  C_22
REMARK                            x       y       z     vdW  Elec       q    Type
REMARK                         _______ _______ _______ _____ _____    ______ ____
ROOT
ATOM      1 CL   UNL     1      -4.312   9.991  14.009  0.00  0.00    +0.000 Cl
ATOM      2  C   UNL     1      -3.395  10.247  15.442  0.00  0.00    +0.000 A 
ATOM      3  C   UNL     1      -2.225   9.533  15.666  0.00  0.00    +0.000 A 
ATOM      4  C   UNL     1      -1.520   9.702  16.872  0.00  0.00    +0.000 A 
ATOM      5  C   UNL     1      -2.000  10.586  17.877  0.00  0.00    +0.000 A 
ATOM      6  C   UNL     1      -1.452  10.790  19.179  0.00  0.00    +0.000 A 
ATOM      7  N   UNL     1      -0.291  10.110  19.604  0.00  0.00    +0.000 N 
ATOM      8  N   UNL     1      -2.053  11.624  20.035  0.00  0.00    +0.000 NA
ATOM      9  C   UNL     1      -3.160  12.291  19.648  0.00  0.00    +0.000 A 
ATOM     10  N   UNL     1      -3.872  13.096  20.498  0.00  0.00    +0.000 N 
ATOM     11  N   UNL     1      -3.714  12.156  18.441  0.00  0.00    +0.000 NA
ATOM     12  C   UNL     1      -3.169  11.313  17.591  0.00  0.00    +0.000 A 
ATOM     13  C   UNL     1      -3.843  11.148  16.390  0.00  0.00    +0.000 A 
ATOM     14  H   UNL     1       0.495  10.396  19.009  0.00  0.00    +0.000 HD
ATOM     15  H   UNL     1      -4.693  13.435  20.024  0.00  0.00    +0.000 HD
ENDROOT
BRANCH  10  16
ATOM     16  C   UNL     1      -3.689  13.453  21.827  0.00  0.00    +0.000 A 
ATOM     17  C   UNL     1      -4.304  12.674  22.820  0.00  0.00    +0.000 A 
ATOM     18  C   UNL     1      -4.154  12.944  24.181  0.00  0.00    +0.000 A 
ATOM     19  C   UNL     1      -3.376  14.056  24.510  0.00  0.00    +0.000 A 
ATOM     20  N   UNL     1      -3.088  14.646  25.715  0.00  0.00    +0.000 N 
ATOM     21  N   UNL     1      -2.259  15.698  25.626  0.00  0.00    +0.000 NA
ATOM     22  C   UNL     1      -2.017  15.792  24.314  0.00  0.00    +0.000 A 
ATOM     23  C   UNL     1      -2.719  14.824  23.567  0.00  0.00    +0.000 A 
ATOM     24  C   UNL     1      -2.857  14.516  22.208  0.00  0.00    +0.000 A 
ATOM     25  H   UNL     1      -3.455  14.393  26.618  0.00  0.00    +0.000 HD
ENDBRANCH  10  16
BRANCH   7  26
ATOM     26  C   UNL     1       0.094  10.111  21.069  0.00  0.00    +0.000 C 
BRANCH  26  27
ATOM     27  C   UNL     1       1.138   9.032  21.335  0.00  0.00    +0.000 C 
BRANCH  27  28
ATOM     28  C   UNL     1       1.548   7.836  20.486  0.00  0.00    +0.000 A 
ATOM     29  C   UNL     1       1.552   6.624  21.177  0.00  0.00    +0.000 A 
ATOM     30  N   UNL     1       1.758   5.630  20.274  0.00  0.00    +0.000 N 
ATOM     31  C   UNL     1       2.667   6.184  19.402  0.00  0.00    +0.000 A 
ATOM     32  C   UNL     1       3.769   5.596  18.788  0.00  0.00    +0.000 A 
ATOM     33  C   UNL     1       4.359   6.322  17.771  0.00  0.00    +0.000 A 
ATOM     34  C   UNL     1       3.756   7.502  17.327  0.00  0.00    +0.000 A 
ATOM     35  C   UNL     1       2.694   8.121  18.043  0.00  0.00    +0.000 A 
ATOM     36  C   UNL     1       2.232   7.511  19.232  0.00  0.00    +0.000 A 
ATOM     37  H   UNL     1       0.967   5.137  19.881  0.00  0.00    +0.000 HD
ENDBRANCH  27  28
ENDBRANCH  26  27
ENDBRANCH   7  26
TORSDOF 4
ENDMDL
MODEL 6
REMARK VINA RESULT:      -8.2      3.403      8.329
REMARK  Name = 
REMARK  4 active torsions:
REMARK  status: ('A' for Active; 'I' for Inactive)
REMARK    1  A    between atoms: N_7  and  C_8
REMARK    2  A    between atoms: C_8  and  C_9
REMARK    3  A    between atoms: C_9  and  C_10
REMARK    4  A    between atoms: N_21  and  C_22
REMARK                            x       y       z     vdW  Elec       q    Type
REMARK                         _______ _______ _______ _____ _____    ______ ____
ROOT
ATOM      1 CL   UNL     1      -0.824  15.355  23.621  0.00  0.00    +0.000 Cl
ATOM      2  C   UNL     1      -0.853  14.244  22.308  0.00  0.00    +0.000 A 
ATOM      3  C   UNL     1      -1.750  14.414  21.262  0.00  0.00    +0.000 A 
ATOM      4  C   UNL     1      -1.810  13.461  20.229  0.00  0.00    +0.000 A 
ATOM      5  C   UNL     1      -0.973  12.312  20.248  0.00  0.00    +0.000 A 
ATOM      6  C   UNL     1      -0.985  11.220  19.330  0.00  0.00    +0.000 A 
ATOM      7  N   UNL     1      -1.868  11.193  18.229  0.00  0.00    +0.000 N 
ATOM      8  N   UNL     1      -0.163  10.180  19.514  0.00  0.00    +0.000 NA
ATOM      9  C   UNL     1       0.695  10.187  20.555  0.00  0.00    +0.000 A 
ATOM     10  N   UNL     1       1.505   9.123  20.852  0.00  0.00    +0.000 N 
ATOM     11  N   UNL     1       0.767  11.184  21.441  0.00  0.00    +0.000 NA
ATOM     12  C   UNL     1      -0.056  12.201  21.309  0.00  0.00    +0.000 A 
ATOM     13  C   UNL     1       0.003  13.158  22.312  0.00  0.00    +0.000 A 
ATOM     14  H   UNL     1      -1.642  11.976  17.605  0.00  0.00    +0.000 HD
ATOM     15  H   UNL     1       2.008   9.315  21.703  0.00  0.00    +0.000 HD
ENDROOT
BRANCH  10  16
ATOM     16  C   UNL     1       1.695   7.889  20.243  0.00  0.00    +0.000 A 
ATOM     17  C   UNL     1       2.253   7.858  18.955  0.00  0.00    +0.000 A 
ATOM     18  C   UNL     1       2.504   6.664  18.277  0.00  0.00    +0.000 A 
ATOM     19  C   UNL     1       2.141   5.489  18.940  0.00  0.00    +0.000 A 
ATOM     20  N   UNL     1       2.170   4.174  18.549  0.00  0.00    +0.000 N 
ATOM     21  N   UNL     1       1.766   3.312  19.496  0.00  0.00    +0.000 NA
ATOM     22  C   UNL     1       1.456   4.106  20.526  0.00  0.00    +0.000 A 
ATOM     23  C   UNL     1       1.629   5.472  20.223  0.00  0.00    +0.000 A 
ATOM     24  C   UNL     1       1.416   6.681  20.897  0.00  0.00    +0.000 A 
ATOM     25  H   UNL     1       2.423   3.815  17.643  0.00  0.00    +0.000 HD
ENDBRANCH  10  16
BRANCH   7  26
ATOM     26  C   UNL     1      -2.073   9.909  17.453  0.00  0.00    +0.000 C 
BRANCH  26  27
ATOM     27  C   UNL     1      -3.561   9.596  17.346  0.00  0.00    +0.000 C 
BRANCH  27  28
ATOM     28  C   UNL     1      -4.766  10.523  17.438  0.00  0.00    +0.000 A 
ATOM     29  C   UNL     1      -4.655  11.678  16.665  0.00  0.00    +0.000 A 
ATOM     30  N   UNL     1      -5.852  12.318  16.698  0.00  0.00    +0.000 N 
ATOM     31  C   UNL     1      -6.272  12.128  17.994  0.00  0.00    +0.000 A 
ATOM     32  C   UNL     1      -6.912  13.018  18.852  0.00  0.00    +0.000 A 
ATOM     33  C   UNL     1      -7.436  12.478  20.011  0.00  0.00    +0.000 A 
ATOM     34  C   UNL     1      -7.424  11.092  20.192  0.00  0.00    +0.000 A 
ATOM     35  C   UNL     1      -6.673  10.228  19.346  0.00  0.00    +0.000 A 
ATOM     36  C   UNL     1      -5.930  10.796  18.287  0.00  0.00    +0.000 A 
ATOM     37  H   UNL     1      -6.524  12.166  15.957  0.00  0.00    +0.000 HD
ENDBRANCH  27  28
ENDBRANCH  26  27
ENDBRANCH   7  26
TORSDOF 4
ENDMDL
MODEL 7
REMARK VINA RESULT:      -8.2      1.109      2.040
REMARK  Name = 
REMARK  4 active torsions:
REMARK  status: ('A' for Active; 'I' for Inactive)
REMARK    1  A    between atoms: N_7  and  C_8
REMARK    2  A    between atoms: C_8  and  C_9
REMARK    3  A    between atoms: C_9  and  C_10
REMARK    4  A    between atoms: N_21  and  C_22
REMARK                            x       y       z     vdW  Elec       q    Type
REMARK                         _______ _______ _______ _____ _____    ______ ____
ROOT
ATOM      1 CL   UNL     1      -6.151  11.086  18.385  0.00  0.00    +0.000 Cl
ATOM      2  C   UNL     1      -4.448  10.943  18.182  0.00  0.00    +0.000 A 
ATOM      3  C   UNL     1      -3.897   9.777  17.668  0.00  0.00    +0.000 A 
ATOM      4  C   UNL     1      -2.499   9.646  17.571  0.00  0.00    +0.000 A 
ATOM      5  C   UNL     1      -1.638  10.690  18.008  0.00  0.00    +0.000 A 
ATOM      6  C   UNL     1      -0.213  10.667  18.060  0.00  0.00    +0.000 A 
ATOM      7  N   UNL     1       0.523   9.544  17.627  0.00  0.00    +0.000 N 
ATOM      8  N   UNL     1       0.457  11.719  18.549  0.00  0.00    +0.000 NA
ATOM      9  C   UNL     1      -0.224  12.807  18.961  0.00  0.00    +0.000 A 
ATOM     10  N   UNL     1       0.388  13.883  19.548  0.00  0.00    +0.000 N 
ATOM     11  N   UNL     1      -1.556  12.898  18.925  0.00  0.00    +0.000 NA
ATOM     12  C   UNL     1      -2.243  11.866  18.488  0.00  0.00    +0.000 A 
ATOM     13  C   UNL     1      -3.623  11.986  18.562  0.00  0.00    +0.000 A 
ATOM     14  H   UNL     1       0.357   9.408  16.623  0.00  0.00    +0.000 HD
ATOM     15  H   UNL     1      -0.311  14.546  19.839  0.00  0.00    +0.000 HD
ENDROOT
BRANCH  10  16
ATOM     16  C   UNL     1       1.718  14.167  19.832  0.00  0.00    +0.000 A 
ATOM     17  C   UNL     1       2.155  14.051  21.161  0.00  0.00    +0.000 A 
ATOM     18  C   UNL     1       3.479  14.292  21.536  0.00  0.00    +0.000 A 
ATOM     19  C   UNL     1       4.349  14.684  20.516  0.00  0.00    +0.000 A 
ATOM     20  N   UNL     1       5.667  15.067  20.537  0.00  0.00    +0.000 N 
ATOM     21  N   UNL     1       6.176  15.342  19.325  0.00  0.00    +0.000 NA
ATOM     22  C   UNL     1       5.144  15.138  18.501  0.00  0.00    +0.000 A 
ATOM     23  C   UNL     1       3.970  14.769  19.190  0.00  0.00    +0.000 A 
ATOM     24  C   UNL     1       2.645  14.492  18.832  0.00  0.00    +0.000 A 
ATOM     25  H   UNL     1       6.250  15.191  21.348  0.00  0.00    +0.000 HD
ENDBRANCH  10  16
BRANCH   7  26
ATOM     26  C   UNL     1       1.994   9.422  17.968  0.00  0.00    +0.000 C 
BRANCH  26  27
ATOM     27  C   UNL     1       2.259   8.096  18.671  0.00  0.00    +0.000 C 
BRANCH  27  28
ATOM     28  C   UNL     1       2.797   6.784  18.116  0.00  0.00    +0.000 A 
ATOM     29  C   UNL     1       2.293   5.649  18.752  0.00  0.00    +0.000 A 
ATOM     30  N   UNL     1       2.709   4.562  18.054  0.00  0.00    +0.000 N 
ATOM     31  C   UNL     1       3.988   4.902  17.678  0.00  0.00    +0.000 A 
ATOM     32  C   UNL     1       5.133   4.111  17.637  0.00  0.00    +0.000 A 
ATOM     33  C   UNL     1       6.225   4.653  16.986  0.00  0.00    +0.000 A 
ATOM     34  C   UNL     1       6.088   5.864  16.301  0.00  0.00    +0.000 A 
ATOM     35  C   UNL     1       4.938   6.688  16.451  0.00  0.00    +0.000 A 
ATOM     36  C   UNL     1       3.902   6.256  17.311  0.00  0.00    +0.000 A 
ATOM     37  H   UNL     1       2.104   4.153  17.352  0.00  0.00    +0.000 HD
ENDBRANCH  27  28
ENDBRANCH  26  27
ENDBRANCH   7  26
TORSDOF 4
ENDMDL
MODEL 8
REMARK VINA RESULT:      -8.2      3.784      4.968
REMARK  Name = 
REMARK  4 active torsions:
REMARK  status: ('A' for Active; 'I' for Inactive)
REMARK    1  A    between atoms: N_7  and  C_8
REMARK    2  A    between atoms: C_8  and  C_9
REMARK    3  A    between atoms: C_9  and  C_10
REMARK    4  A    between atoms: N_21  and  C_22
REMARK                            x       y       z     vdW  Elec       q    Type
REMARK                         _______ _______ _______ _____ _____    ______ ____
ROOT
ATOM      1 CL   UNL     1      -4.321  10.018  13.962  0.00  0.00    +0.000 Cl
ATOM      2  C   UNL     1      -3.409  10.242  15.404  0.00  0.00    +0.000 A 
ATOM      3  C   UNL     1      -2.261   9.496  15.634  0.00  0.00    +0.000 A 
ATOM      4  C   UNL     1      -1.562   9.640  16.847  0.00  0.00    +0.000 A 
ATOM      5  C   UNL     1      -2.027  10.531  17.852  0.00  0.00    +0.000 A 
ATOM      6  C   UNL     1      -1.485  10.714  19.160  0.00  0.00    +0.000 A 
ATOM      7  N   UNL     1      -0.346  10.002  19.591  0.00  0.00    +0.000 N 
ATOM      8  N   UNL     1      -2.071  11.559  20.016  0.00  0.00    +0.000 NA
ATOM      9  C   UNL     1      -3.156  12.256  19.623  0.00  0.00    +0.000 A 
ATOM     10  N   UNL     1      -3.855  13.075  20.471  0.00  0.00    +0.000 N 
ATOM     11  N   UNL     1      -3.704  12.143  18.410  0.00  0.00    +0.000 NA
ATOM     12  C   UNL     1      -3.174  11.290  17.561  0.00  0.00    +0.000 A 
ATOM     13  C   UNL     1      -3.842  11.150  16.353  0.00  0.00    +0.000 A 
ATOM     14  H   UNL     1       0.453  10.269  19.004  0.00  0.00    +0.000 HD
ATOM     15  H   UNL     1      -4.663  13.439  19.993  0.00  0.00    +0.000 HD
ENDROOT
BRANCH  10  16
ATOM     16  C   UNL     1      -3.673  13.421  21.804  0.00  0.00    +0.000 A 
ATOM     17  C   UNL     1      -4.350  12.680  22.785  0.00  0.00    +0.000 A 
ATOM     18  C   UNL     1      -4.208  12.939  24.149  0.00  0.00    +0.000 A 
ATOM     19  C   UNL     1      -3.371  14.004  24.492  0.00  0.00    +0.000 A 
ATOM     20  N   UNL     1      -3.070  14.575  25.704  0.00  0.00    +0.000 N 
ATOM     21  N   UNL     1      -2.178  15.577  25.630  0.00  0.00    +0.000 NA
ATOM     22  C   UNL     1      -1.909  15.657  24.322  0.00  0.00    +0.000 A 
ATOM     23  C   UNL     1      -2.654  14.732  23.562  0.00  0.00    +0.000 A 
ATOM     24  C   UNL     1      -2.787  14.433  22.201  0.00  0.00    +0.000 A 
ATOM     25  H   UNL     1      -3.467  14.344  26.599  0.00  0.00    +0.000 HD
ENDBRANCH  10  16
BRANCH   7  26
ATOM     26  C   UNL     1       0.027   9.984  21.059  0.00  0.00    +0.000 C 
BRANCH  26  27
ATOM     27  C   UNL     1       1.003   8.846  21.337  0.00  0.00    +0.000 C 
BRANCH  27  28
ATOM     28  C   UNL     1       1.698   7.895  20.372  0.00  0.00    +0.000 A 
ATOM     29  C   UNL     1       2.020   8.469  19.142  0.00  0.00    +0.000 A 
ATOM     30  N   UNL     1       2.783   7.580  18.455  0.00  0.00    +0.000 N 
ATOM     31  C   UNL     1       2.214   6.369  18.773  0.00  0.00    +0.000 A 
ATOM     32  C   UNL     1       1.983   5.264  17.958  0.00  0.00    +0.000 A 
ATOM     33  C   UNL     1       1.621   4.097  18.602  0.00  0.00    +0.000 A 
ATOM     34  C   UNL     1       1.644   4.045  19.998  0.00  0.00    +0.000 A 
ATOM     35  C   UNL     1       1.785   5.216  20.794  0.00  0.00    +0.000 A 
ATOM     36  C   UNL     1       1.918   6.464  20.144  0.00  0.00    +0.000 A 
ATOM     37  H   UNL     1       3.792   7.651  18.490  0.00  0.00    +0.000 HD
ENDBRANCH  27  28
ENDBRANCH  26  27
ENDBRANCH   7  26
TORSDOF 4
ENDMDL
MODEL 9
REMARK VINA RESULT:      -8.2      3.751      7.409
REMARK  Name = 
REMARK  4 active torsions:
REMARK  status: ('A' for Active; 'I' for Inactive)
REMARK    1  A    between atoms: N_7  and  C_8
REMARK    2  A    between atoms: C_8  and  C_9
REMARK    3  A    between atoms: C_9  and  C_10
REMARK    4  A    between atoms: N_21  and  C_22
REMARK                            x       y       z     vdW  Elec       q    Type
REMARK                         _______ _______ _______ _____ _____    ______ ____
ROOT
ATOM      1 CL   UNL     1       3.681   4.844  19.647  0.00  0.00    +0.000 Cl
ATOM      2  C   UNL     1       2.881   6.345  19.387  0.00  0.00    +0.000 A 
ATOM      3  C   UNL     1       3.089   7.059  18.215  0.00  0.00    +0.000 A 
ATOM      4  C   UNL     1       2.482   8.317  18.043  0.00  0.00    +0.000 A 
ATOM      5  C   UNL     1       1.667   8.877  19.065  0.00  0.00    +0.000 A 
ATOM      6  C   UNL     1       1.067  10.172  19.076  0.00  0.00    +0.000 A 
ATOM      7  N   UNL     1       1.213  11.061  17.991  0.00  0.00    +0.000 N 
ATOM      8  N   UNL     1       0.365  10.575  20.142  0.00  0.00    +0.000 NA
ATOM      9  C   UNL     1       0.206   9.740  21.188  0.00  0.00    +0.000 A 
ATOM     10  N   UNL     1      -0.428  10.115  22.344  0.00  0.00    +0.000 N 
ATOM     11  N   UNL     1       0.728   8.512  21.234  0.00  0.00    +0.000 NA
ATOM     12  C   UNL     1       1.457   8.102  20.219  0.00  0.00    +0.000 A 
ATOM     13  C   UNL     1       2.048   6.856  20.366  0.00  0.00    +0.000 A 
ATOM     14  H   UNL     1       0.774  10.645  17.161  0.00  0.00    +0.000 HD
ATOM     15  H   UNL     1      -0.372   9.365  23.013  0.00  0.00    +0.000 HD
ENDROOT
BRANCH  10  16
ATOM     16  C   UNL     1      -1.047  11.296  22.734  0.00  0.00    +0.000 A 
ATOM     17  C   UNL     1      -2.294  11.216  23.374  0.00  0.00    +0.000 A 
ATOM     18  C   UNL     1      -2.978  12.348  23.823  0.00  0.00    +0.000 A 
ATOM     19  C   UNL     1      -2.364  13.579  23.578  0.00  0.00    +0.000 A 
ATOM     20  N   UNL     1      -2.778  14.867  23.806  0.00  0.00    +0.000 N 
ATOM     21  N   UNL     1      -1.878  15.801  23.459  0.00  0.00    +0.000 NA
ATOM     22  C   UNL     1      -0.856  15.085  22.981  0.00  0.00    +0.000 A 
ATOM     23  C   UNL     1      -1.119  13.699  22.990  0.00  0.00    +0.000 A 
ATOM     24  C   UNL     1      -0.437  12.549  22.576  0.00  0.00    +0.000 A 
ATOM     25  H   UNL     1      -3.673  15.163  24.162  0.00  0.00    +0.000 HD
ENDBRANCH  10  16
BRANCH   7  26
ATOM     26  C   UNL     1       0.830  12.519  18.147  0.00  0.00    +0.000 C 
BRANCH  26  27
ATOM     27  C   UNL     1      -0.600  12.737  17.665  0.00  0.00    +0.000 C 
BRANCH  27  28
ATOM     28  C   UNL     1      -1.878  11.988  18.018  0.00  0.00    +0.000 A 
ATOM     29  C   UNL     1      -2.350  11.159  17.000  0.00  0.00    +0.000 A 
ATOM     30  N   UNL     1      -3.376  10.426  17.502  0.00  0.00    +0.000 N 
ATOM     31  C   UNL     1      -4.025  11.319  18.324  0.00  0.00    +0.000 A 
ATOM     32  C   UNL     1      -5.391  11.503  18.518  0.00  0.00    +0.000 A 
ATOM     33  C   UNL     1      -5.752  12.303  19.585  0.00  0.00    +0.000 A 
ATOM     34  C   UNL     1      -4.770  12.756  20.471  0.00  0.00    +0.000 A 
ATOM     35  C   UNL     1      -3.382  12.633  20.182  0.00  0.00    +0.000 A 
ATOM     36  C   UNL     1      -2.993  12.024  18.968  0.00  0.00    +0.000 A 
ATOM     37  H   UNL     1      -3.201   9.496  17.861  0.00  0.00    +0.000 HD
ENDBRANCH  27  28
ENDBRANCH  26  27
ENDBRANCH   7  26
TORSDOF 4
ENDMDL
