MODEL 1
REMARK VINA RESULT:      -6.9      0.000      0.000
REMARK  Name = 
REMARK  15 active torsions:
REMARK  status: ('A' for Active; 'I' for Inactive)
REMARK    1  A    between atoms: C_1  and  C_2
REMARK    2  A    between atoms: C_2  and  C_3
REMARK    3  A    between atoms: C_4  and  C_5
REMARK    4  A    between atoms: C_5  and  C_6
REMARK    5  A    between atoms: C_6  and  C_7
REMARK    6  A    between atoms: C_7  and  C_8
REMARK    7  A    between atoms: C_9  and  C_10
REMARK    8  A    between atoms: C_10  and  C_11
REMARK    9  A    between atoms: C_11  and  C_12
REMARK   10  A    between atoms: C_12  and  C_13
REMARK   11  A    between atoms: C_14  and  C_15
REMARK   12  A    between atoms: C_15  and  C_16
REMARK   13  A    between atoms: C_16  and  C_17
REMARK   14  A    between atoms: N_19  and  S_20
REMARK   15  A    between atoms: S_20  and  O_23
REMARK                            x       y       z     vdW  Elec       q    Type
REMARK                         _______ _______ _______ _____ _____    ______ ____
ROOT
ATOM      1  C   UNL     1       6.773   6.495  17.469  0.00  0.00    +0.000 C 
ATOM      2  C   UNL     1       7.118   5.301  16.623  0.00  0.00    +0.000 C 
ATOM      3  C   UNL     1       5.517   6.966  17.601  0.00  0.00    +0.000 C 
ENDROOT
BRANCH   1   4
ATOM      4  C   UNL     1       7.914   7.121  18.234  0.00  0.00    +0.000 C 
BRANCH   4   5
ATOM      5  C   UNL     1       8.105   8.575  17.793  0.00  0.00    +0.000 C 
BRANCH   5   8
ATOM      6  C   UNL     1       9.061  10.677  18.869  0.00  0.00    +0.000 C 
ATOM      7  C   UNL     1       8.450  11.587  17.838  0.00  0.00    +0.000 C 
ATOM      8  C   UNL     1       8.890   9.339  18.815  0.00  0.00    +0.000 C 
BRANCH   6   9
ATOM      9  C   UNL     1       9.869  11.376  19.956  0.00  0.00    +0.000 C 
BRANCH   9  10
ATOM     10  C   UNL     1      11.381  11.403  19.701  0.00  0.00    +0.000 C 
BRANCH  10  14
ATOM     11  C   UNL     1      12.331  13.440  16.541  0.00  0.00    +0.000 C 
ATOM     12  C   UNL     1      11.909  13.088  17.937  0.00  0.00    +0.000 C 
ATOM     13  C   UNL     1      11.617  14.225  18.882  0.00  0.00    +0.000 C 
ATOM     14  C   UNL     1      11.799  11.798  18.314  0.00  0.00    +0.000 C 
ENDBRANCH  10  14
ENDBRANCH   9  10
ENDBRANCH   6   9
ENDBRANCH   5   8
ENDBRANCH   4   5
ENDBRANCH   1   4
BRANCH   3  15
ATOM     15  C   UNL     1       4.306   6.395  16.926  0.00  0.00    +0.000 C 
BRANCH  15  16
ATOM     16  C   UNL     1       3.206   6.070  17.932  0.00  0.00    +0.000 C 
BRANCH  16  17
ATOM     17  C   UNL     1       3.078   4.576  18.066  0.00  0.00    +0.000 C 
ATOM     18  O   UNL     1       2.475   3.882  17.256  0.00  0.00    +0.000 OA
ATOM     19  N   UNL     1       3.682   4.012  19.194  0.00  0.00    +0.000 N 
ATOM     20  H   UNL     1       4.219   4.553  19.864  0.00  0.00    +0.000 HD
BRANCH  19  21
ATOM     21  S   UNL     1       3.760   2.381  19.449  0.00  0.00    +0.000 S 
ATOM     22  O   UNL     1       4.924   2.128  20.263  0.00  0.00    +0.000 OA
ATOM     23  O   UNL     1       2.439   1.978  19.865  0.00  0.00    +0.000 OA
BRANCH  21  24
ATOM     24  O   UNL     1       4.048   1.774  17.992  0.00  0.00    +0.000 OA
ATOM     25  H   UNL     1       4.769   1.108  18.076  0.00  0.00    +0.000 HD
ENDBRANCH  21  24
ENDBRANCH  19  21
ENDBRANCH  16  17
ENDBRANCH  15  16
ENDBRANCH   3  15
TORSDOF 11
ENDMDL
MODEL 2
REMARK VINA RESULT:      -6.9      6.176      9.859
REMARK  Name = 
REMARK  15 active torsions:
REMARK  status: ('A' for Active; 'I' for Inactive)
REMARK    1  A    between atoms: C_1  and  C_2
REMARK    2  A    between atoms: C_2  and  C_3
REMARK    3  A    between atoms: C_4  and  C_5
REMARK    4  A    between atoms: C_5  and  C_6
REMARK    5  A    between atoms: C_6  and  C_7
REMARK    6  A    between atoms: C_7  and  C_8
REMARK    7  A    between atoms: C_9  and  C_10
REMARK    8  A    between atoms: C_10  and  C_11
REMARK    9  A    between atoms: C_11  and  C_12
REMARK   10  A    between atoms: C_12  and  C_13
REMARK   11  A    between atoms: C_14  and  C_15
REMARK   12  A    between atoms: C_15  and  C_16
REMARK   13  A    between atoms: C_16  and  C_17
REMARK   14  A    between atoms: N_19  and  S_20
REMARK   15  A    between atoms: S_20  and  O_23
REMARK                            x       y       z     vdW  Elec       q    Type
REMARK                         _______ _______ _______ _____ _____    ______ ____
ROOT
ATOM      1  C   UNL     1       7.320   6.168  17.712  0.00  0.00    +0.000 C 
ATOM      2  C   UNL     1       7.298   5.622  19.113  0.00  0.00    +0.000 C 
ATOM      3  C   UNL     1       7.759   7.406  17.411  0.00  0.00    +0.000 C 
ENDROOT
BRANCH   1   4
ATOM      4  C   UNL     1       6.875   5.222  16.622  0.00  0.00    +0.000 C 
BRANCH   4   5
ATOM      5  C   UNL     1       5.657   5.797  15.894  0.00  0.00    +0.000 C 
BRANCH   5   8
ATOM      6  C   UNL     1       3.640   5.327  17.377  0.00  0.00    +0.000 C 
ATOM      7  C   UNL     1       3.578   3.876  16.983  0.00  0.00    +0.000 C 
ATOM      8  C   UNL     1       4.577   6.154  16.869  0.00  0.00    +0.000 C 
BRANCH   6   9
ATOM      9  C   UNL     1       2.581   5.773  18.379  0.00  0.00    +0.000 C 
BRANCH   9  10
ATOM     10  C   UNL     1       2.971   5.561  19.847  0.00  0.00    +0.000 C 
BRANCH  10  14
ATOM     11  C   UNL     1       1.409   2.541  21.713  0.00  0.00    +0.000 C 
ATOM     12  C   UNL     1       2.353   3.390  20.914  0.00  0.00    +0.000 C 
ATOM     13  C   UNL     1       3.632   2.749  20.438  0.00  0.00    +0.000 C 
ATOM     14  C   UNL     1       2.053   4.676  20.642  0.00  0.00    +0.000 C 
ENDBRANCH  10  14
ENDBRANCH   9  10
ENDBRANCH   6   9
ENDBRANCH   5   8
ENDBRANCH   4   5
ENDBRANCH   1   4
BRANCH   3  15
ATOM     15  C   UNL     1       8.263   8.408  18.406  0.00  0.00    +0.000 C 
BRANCH  15  16
ATOM     16  C   UNL     1       8.443   9.785  17.771  0.00  0.00    +0.000 C 
BRANCH  16  17
ATOM     17  C   UNL     1       9.189  10.680  18.725  0.00  0.00    +0.000 C 
ATOM     18  O   UNL     1       9.597  10.301  19.815  0.00  0.00    +0.000 OA
ATOM     19  N   UNL     1       9.380  11.997  18.298  0.00  0.00    +0.000 N 
ATOM     20  H   UNL     1       9.086  12.334  17.387  0.00  0.00    +0.000 HD
BRANCH  19  21
ATOM     21  S   UNL     1      10.283  13.093  19.146  0.00  0.00    +0.000 S 
ATOM     22  O   UNL     1      10.844  14.018  18.191  0.00  0.00    +0.000 OA
ATOM     23  O   UNL     1       9.450  13.536  20.237  0.00  0.00    +0.000 OA
BRANCH  21  24
ATOM     24  O   UNL     1      11.490  12.220  19.742  0.00  0.00    +0.000 OA
ATOM     25  H   UNL     1      12.008  12.794  20.354  0.00  0.00    +0.000 HD
ENDBRANCH  21  24
ENDBRANCH  19  21
ENDBRANCH  16  17
ENDBRANCH  15  16
ENDBRANCH   3  15
TORSDOF 11
ENDMDL
MODEL 3
REMARK VINA RESULT:      -6.7      1.944      3.462
REMARK  Name = 
REMARK  15 active torsions:
REMARK  status: ('A' for Active; 'I' for Inactive)
REMARK    1  A    between atoms: C_1  and  C_2
REMARK    2  A    between atoms: C_2  and  C_3
REMARK    3  A    between atoms: C_4  and  C_5
REMARK    4  A    between atoms: C_5  and  C_6
REMARK    5  A    between atoms: C_6  and  C_7
REMARK    6  A    between atoms: C_7  and  C_8
REMARK    7  A    between atoms: C_9  and  C_10
REMARK    8  A    between atoms: C_10  and  C_11
REMARK    9  A    between atoms: C_11  and  C_12
REMARK   10  A    between atoms: C_12  and  C_13
REMARK   11  A    between atoms: C_14  and  C_15
REMARK   12  A    between atoms: C_15  and  C_16
REMARK   13  A    between atoms: C_16  and  C_17
REMARK   14  A    between atoms: N_19  and  S_20
REMARK   15  A    between atoms: S_20  and  O_23
REMARK                            x       y       z     vdW  Elec       q    Type
REMARK                         _______ _______ _______ _____ _____    ______ ____
ROOT
ATOM      1  C   UNL     1       4.687   5.201  16.980  0.00  0.00    +0.000 C 
ATOM      2  C   UNL     1       3.779   5.795  18.020  0.00  0.00    +0.000 C 
ATOM      3  C   UNL     1       4.914   3.877  16.871  0.00  0.00    +0.000 C 
ENDROOT
BRANCH   1   4
ATOM      4  C   UNL     1       5.302   6.170  15.999  0.00  0.00    +0.000 C 
BRANCH   4   5
ATOM      5  C   UNL     1       6.828   6.066  16.044  0.00  0.00    +0.000 C 
BRANCH   5   8
ATOM      6  C   UNL     1       7.901   7.139  18.091  0.00  0.00    +0.000 C 
ATOM      7  C   UNL     1       7.896   5.854  18.875  0.00  0.00    +0.000 C 
ATOM      8  C   UNL     1       7.413   7.196  16.834  0.00  0.00    +0.000 C 
BRANCH   6   9
ATOM      9  C   UNL     1       8.493   8.341  18.817  0.00  0.00    +0.000 C 
BRANCH   9  10
ATOM     10  C   UNL     1       8.392   9.660  18.042  0.00  0.00    +0.000 C 
BRANCH  10  14
ATOM     11  C   UNL     1      10.105  13.095  18.597  0.00  0.00    +0.000 C 
ATOM     12  C   UNL     1       9.150  12.037  18.129  0.00  0.00    +0.000 C 
ATOM     13  C   UNL     1       8.003  12.474  17.255  0.00  0.00    +0.000 C 
ATOM     14  C   UNL     1       9.326  10.749  18.488  0.00  0.00    +0.000 C 
ENDBRANCH  10  14
ENDBRANCH   9  10
ENDBRANCH   6   9
ENDBRANCH   5   8
ENDBRANCH   4   5
ENDBRANCH   1   4
BRANCH   3  15
ATOM     15  C   UNL     1       4.323   2.824  17.760  0.00  0.00    +0.000 C 
BRANCH  15  16
ATOM     16  C   UNL     1       2.886   2.497  17.361  0.00  0.00    +0.000 C 
BRANCH  16  17
ATOM     17  C   UNL     1       1.954   2.917  18.467  0.00  0.00    +0.000 C 
ATOM     18  O   UNL     1       0.737   2.956  18.336  0.00  0.00    +0.000 OA
ATOM     19  N   UNL     1       2.565   3.281  19.671  0.00  0.00    +0.000 N 
ATOM     20  H   UNL     1       3.566   3.226  19.824  0.00  0.00    +0.000 HD
BRANCH  19  21
ATOM     21  S   UNL     1       1.708   3.647  21.037  0.00  0.00    +0.000 S 
ATOM     22  O   UNL     1       2.501   3.229  22.167  0.00  0.00    +0.000 OA
ATOM     23  O   UNL     1       1.268   5.012  20.878  0.00  0.00    +0.000 OA
BRANCH  21  24
ATOM     24  O   UNL     1       0.428   2.683  20.960  0.00  0.00    +0.000 OA
ATOM     25  H   UNL     1      -0.306   3.184  20.532  0.00  0.00    +0.000 HD
ENDBRANCH  21  24
ENDBRANCH  19  21
ENDBRANCH  16  17
ENDBRANCH  15  16
ENDBRANCH   3  15
TORSDOF 11
ENDMDL
MODEL 4
REMARK VINA RESULT:      -6.6      6.477      8.576
REMARK  Name = 
REMARK  15 active torsions:
REMARK  status: ('A' for Active; 'I' for Inactive)
REMARK    1  A    between atoms: C_1  and  C_2
REMARK    2  A    between atoms: C_2  and  C_3
REMARK    3  A    between atoms: C_4  and  C_5
REMARK    4  A    between atoms: C_5  and  C_6
REMARK    5  A    between atoms: C_6  and  C_7
REMARK    6  A    between atoms: C_7  and  C_8
REMARK    7  A    between atoms: C_9  and  C_10
REMARK    8  A    between atoms: C_10  and  C_11
REMARK    9  A    between atoms: C_11  and  C_12
REMARK   10  A    between atoms: C_12  and  C_13
REMARK   11  A    between atoms: C_14  and  C_15
REMARK   12  A    between atoms: C_15  and  C_16
REMARK   13  A    between atoms: C_16  and  C_17
REMARK   14  A    between atoms: N_19  and  S_20
REMARK   15  A    between atoms: S_20  and  O_23
REMARK                            x       y       z     vdW  Elec       q    Type
REMARK                         _______ _______ _______ _____ _____    ______ ____
ROOT
ATOM      1  C   UNL     1       2.115   4.622  20.120  0.00  0.00    +0.000 C 
ATOM      2  C   UNL     1       0.969   3.801  19.596  0.00  0.00    +0.000 C 
ATOM      3  C   UNL     1       3.403   4.245  20.005  0.00  0.00    +0.000 C 
ENDROOT
BRANCH   1   4
ATOM      4  C   UNL     1       1.753   5.950  20.742  0.00  0.00    +0.000 C 
BRANCH   4   5
ATOM      5  C   UNL     1       2.189   7.095  19.824  0.00  0.00    +0.000 C 
BRANCH   5   8
ATOM      6  C   UNL     1       1.212   9.383  19.279  0.00  0.00    +0.000 C 
ATOM      7  C   UNL     1       1.840   9.422  17.912  0.00  0.00    +0.000 C 
ATOM      8  C   UNL     1       1.393   8.332  20.105  0.00  0.00    +0.000 C 
BRANCH   6   9
ATOM      9  C   UNL     1       0.371  10.601  19.642  0.00  0.00    +0.000 C 
BRANCH   9  10
ATOM     10  C   UNL     1      -1.098  10.505  19.213  0.00  0.00    +0.000 C 
BRANCH  10  14
ATOM     11  C   UNL     1      -2.714  10.888  15.708  0.00  0.00    +0.000 C 
ATOM     12  C   UNL     1      -2.457  10.448  17.119  0.00  0.00    +0.000 C 
ATOM     13  C   UNL     1      -3.429   9.472  17.732  0.00  0.00    +0.000 C 
ATOM     14  C   UNL     1      -1.391  10.919  17.799  0.00  0.00    +0.000 C 
ENDBRANCH  10  14
ENDBRANCH   9  10
ENDBRANCH   6   9
ENDBRANCH   5   8
ENDBRANCH   4   5
ENDBRANCH   1   4
BRANCH   3  15
ATOM     15  C   UNL     1       3.876   2.973  19.367  0.00  0.00    +0.000 C 
BRANCH  15  16
ATOM     16  C   UNL     1       4.071   3.140  17.862  0.00  0.00    +0.000 C 
BRANCH  16  17
ATOM     17  C   UNL     1       5.296   3.979  17.608  0.00  0.00    +0.000 C 
ATOM     18  O   UNL     1       6.139   4.206  18.466  0.00  0.00    +0.000 OA
ATOM     19  N   UNL     1       5.414   4.507  16.319  0.00  0.00    +0.000 N 
ATOM     20  H   UNL     1       4.753   4.309  15.575  0.00  0.00    +0.000 HD
BRANCH  19  21
ATOM     21  S   UNL     1       6.747   5.343  15.811  0.00  0.00    +0.000 S 
ATOM     22  O   UNL     1       6.866   5.139  14.388  0.00  0.00    +0.000 OA
ATOM     23  O   UNL     1       6.632   6.663  16.384  0.00  0.00    +0.000 OA
BRANCH  21  24
ATOM     24  O   UNL     1       7.972   4.583  16.514  0.00  0.00    +0.000 OA
ATOM     25  H   UNL     1       8.477   5.243  17.044  0.00  0.00    +0.000 HD
ENDBRANCH  21  24
ENDBRANCH  19  21
ENDBRANCH  16  17
ENDBRANCH  15  16
ENDBRANCH   3  15
TORSDOF 11
ENDMDL
MODEL 5
REMARK VINA RESULT:      -6.6      1.679      2.340
REMARK  Name = 
REMARK  15 active torsions:
REMARK  status: ('A' for Active; 'I' for Inactive)
REMARK    1  A    between atoms: C_1  and  C_2
REMARK    2  A    between atoms: C_2  and  C_3
REMARK    3  A    between atoms: C_4  and  C_5
REMARK    4  A    between atoms: C_5  and  C_6
REMARK    5  A    between atoms: C_6  and  C_7
REMARK    6  A    between atoms: C_7  and  C_8
REMARK    7  A    between atoms: C_9  and  C_10
REMARK    8  A    between atoms: C_10  and  C_11
REMARK    9  A    between atoms: C_11  and  C_12
REMARK   10  A    between atoms: C_12  and  C_13
REMARK   11  A    between atoms: C_14  and  C_15
REMARK   12  A    between atoms: C_15  and  C_16
REMARK   13  A    between atoms: C_16  and  C_17
REMARK   14  A    between atoms: N_19  and  S_20
REMARK   15  A    between atoms: S_20  and  O_23
REMARK                            x       y       z     vdW  Elec       q    Type
REMARK                         _______ _______ _______ _____ _____    ______ ____
ROOT
ATOM      1  C   UNL     1       7.182   6.647  17.889  0.00  0.00    +0.000 C 
ATOM      2  C   UNL     1       7.788   5.956  19.079  0.00  0.00    +0.000 C 
ATOM      3  C   UNL     1       5.950   6.364  17.421  0.00  0.00    +0.000 C 
ENDROOT
BRANCH   1   4
ATOM      4  C   UNL     1       8.010   7.742  17.261  0.00  0.00    +0.000 C 
BRANCH   4   5
ATOM      5  C   UNL     1       7.734   9.075  17.961  0.00  0.00    +0.000 C 
BRANCH   5   8
ATOM      6  C   UNL     1       9.446  10.855  18.587  0.00  0.00    +0.000 C 
ATOM      7  C   UNL     1       8.734  11.935  17.817  0.00  0.00    +0.000 C 
ATOM      8  C   UNL     1       8.974   9.592  18.626  0.00  0.00    +0.000 C 
BRANCH   6   9
ATOM      9  C   UNL     1      10.714  11.300  19.306  0.00  0.00    +0.000 C 
BRANCH   9  10
ATOM     10  C   UNL     1      10.474  11.907  20.694  0.00  0.00    +0.000 C 
BRANCH  10  14
ATOM     11  C   UNL     1      10.046  15.630  21.692  0.00  0.00    +0.000 C 
ATOM     12  C   UNL     1       9.875  14.141  21.633  0.00  0.00    +0.000 C 
ATOM     13  C   UNL     1       8.855  13.521  22.555  0.00  0.00    +0.000 C 
ATOM     14  C   UNL     1      10.614  13.400  20.783  0.00  0.00    +0.000 C 
ENDBRANCH  10  14
ENDBRANCH   9  10
ENDBRANCH   6   9
ENDBRANCH   5   8
ENDBRANCH   4   5
ENDBRANCH   1   4
BRANCH   3  15
ATOM     15  C   UNL     1       5.027   5.330  17.994  0.00  0.00    +0.000 C 
BRANCH  15  16
ATOM     16  C   UNL     1       3.959   4.914  16.985  0.00  0.00    +0.000 C 
BRANCH  16  17
ATOM     17  C   UNL     1       2.971   3.998  17.656  0.00  0.00    +0.000 C 
ATOM     18  O   UNL     1       2.140   3.344  17.038  0.00  0.00    +0.000 OA
ATOM     19  N   UNL     1       3.042   3.943  19.052  0.00  0.00    +0.000 N 
ATOM     20  H   UNL     1       3.741   4.443  19.591  0.00  0.00    +0.000 HD
BRANCH  19  21
ATOM     21  S   UNL     1       2.130   2.904  19.957  0.00  0.00    +0.000 S 
ATOM     22  O   UNL     1       2.886   2.592  21.146  0.00  0.00    +0.000 OA
ATOM     23  O   UNL     1       0.811   3.484  20.024  0.00  0.00    +0.000 OA
BRANCH  21  24
ATOM     24  O   UNL     1       2.061   1.572  19.065  0.00  0.00    +0.000 OA
ATOM     25  H   UNL     1       1.183   1.149  19.217  0.00  0.00    +0.000 HD
ENDBRANCH  21  24
ENDBRANCH  19  21
ENDBRANCH  16  17
ENDBRANCH  15  16
ENDBRANCH   3  15
TORSDOF 11
ENDMDL
MODEL 6
REMARK VINA RESULT:      -6.6      6.117      7.480
REMARK  Name = 
REMARK  15 active torsions:
REMARK  status: ('A' for Active; 'I' for Inactive)
REMARK    1  A    between atoms: C_1  and  C_2
REMARK    2  A    between atoms: C_2  and  C_3
REMARK    3  A    between atoms: C_4  and  C_5
REMARK    4  A    between atoms: C_5  and  C_6
REMARK    5  A    between atoms: C_6  and  C_7
REMARK    6  A    between atoms: C_7  and  C_8
REMARK    7  A    between atoms: C_9  and  C_10
REMARK    8  A    between atoms: C_10  and  C_11
REMARK    9  A    between atoms: C_11  and  C_12
REMARK   10  A    between atoms: C_12  and  C_13
REMARK   11  A    between atoms: C_14  and  C_15
REMARK   12  A    between atoms: C_15  and  C_16
REMARK   13  A    between atoms: C_16  and  C_17
REMARK   14  A    between atoms: N_19  and  S_20
REMARK   15  A    between atoms: S_20  and  O_23
REMARK                            x       y       z     vdW  Elec       q    Type
REMARK                         _______ _______ _______ _____ _____    ______ ____
ROOT
ATOM      1  C   UNL     1       1.714   2.913  19.615  0.00  0.00    +0.000 C 
ATOM      2  C   UNL     1       0.704   3.089  18.515  0.00  0.00    +0.000 C 
ATOM      3  C   UNL     1       2.949   2.415  19.408  0.00  0.00    +0.000 C 
ENDROOT
BRANCH   1   4
ATOM      4  C   UNL     1       1.295   3.387  20.985  0.00  0.00    +0.000 C 
BRANCH   4   5
ATOM      5  C   UNL     1       1.945   4.738  21.295  0.00  0.00    +0.000 C 
BRANCH   5   8
ATOM      6  C   UNL     1       2.333   6.719  19.740  0.00  0.00    +0.000 C 
ATOM      7  C   UNL     1       1.730   7.705  20.704  0.00  0.00    +0.000 C 
ATOM      8  C   UNL     1       2.408   5.404  20.035  0.00  0.00    +0.000 C 
BRANCH   6   9
ATOM      9  C   UNL     1       2.843   7.316  18.434  0.00  0.00    +0.000 C 
BRANCH   9  10
ATOM     10  C   UNL     1       1.885   8.322  17.783  0.00  0.00    +0.000 C 
BRANCH  10  14
ATOM     11  C   UNL     1       1.778  12.109  18.613  0.00  0.00    +0.000 C 
ATOM     12  C   UNL     1       1.377  10.672  18.455  0.00  0.00    +0.000 C 
ATOM     13  C   UNL     1      -0.020  10.290  18.872  0.00  0.00    +0.000 C 
ATOM     14  C   UNL     1       2.247   9.769  17.956  0.00  0.00    +0.000 C 
ENDBRANCH  10  14
ENDBRANCH   9  10
ENDBRANCH   6   9
ENDBRANCH   5   8
ENDBRANCH   4   5
ENDBRANCH   1   4
BRANCH   3  15
ATOM     15  C   UNL     1       3.484   1.957  18.084  0.00  0.00    +0.000 C 
BRANCH  15  16
ATOM     16  C   UNL     1       3.804   3.138  17.171  0.00  0.00    +0.000 C 
BRANCH  16  17
ATOM     17  C   UNL     1       5.038   3.838  17.676  0.00  0.00    +0.000 C 
ATOM     18  O   UNL     1       5.384   3.816  18.851  0.00  0.00    +0.000 OA
ATOM     19  N   UNL     1       5.774   4.540  16.717  0.00  0.00    +0.000 N 
ATOM     20  H   UNL     1       5.535   4.548  15.731  0.00  0.00    +0.000 HD
BRANCH  19  21
ATOM     21  S   UNL     1       7.223   5.264  17.050  0.00  0.00    +0.000 S 
ATOM     22  O   UNL     1       8.183   4.214  17.290  0.00  0.00    +0.000 OA
ATOM     23  O   UNL     1       7.419   6.256  16.021  0.00  0.00    +0.000 OA
BRANCH  21  24
ATOM     24  O   UNL     1       6.968   6.015  18.445  0.00  0.00    +0.000 OA
ATOM     25  H   UNL     1       6.753   6.956  18.250  0.00  0.00    +0.000 HD
ENDBRANCH  21  24
ENDBRANCH  19  21
ENDBRANCH  16  17
ENDBRANCH  15  16
ENDBRANCH   3  15
TORSDOF 11
ENDMDL
MODEL 7
REMARK VINA RESULT:      -6.5      1.780      2.349
REMARK  Name = 
REMARK  15 active torsions:
REMARK  status: ('A' for Active; 'I' for Inactive)
REMARK    1  A    between atoms: C_1  and  C_2
REMARK    2  A    between atoms: C_2  and  C_3
REMARK    3  A    between atoms: C_4  and  C_5
REMARK    4  A    between atoms: C_5  and  C_6
REMARK    5  A    between atoms: C_6  and  C_7
REMARK    6  A    between atoms: C_7  and  C_8
REMARK    7  A    between atoms: C_9  and  C_10
REMARK    8  A    between atoms: C_10  and  C_11
REMARK    9  A    between atoms: C_11  and  C_12
REMARK   10  A    between atoms: C_12  and  C_13
REMARK   11  A    between atoms: C_14  and  C_15
REMARK   12  A    between atoms: C_15  and  C_16
REMARK   13  A    between atoms: C_16  and  C_17
REMARK   14  A    between atoms: N_19  and  S_20
REMARK   15  A    between atoms: S_20  and  O_23
REMARK                            x       y       z     vdW  Elec       q    Type
REMARK                         _______ _______ _______ _____ _____    ______ ____
ROOT
ATOM      1  C   UNL     1       7.028   6.172  17.943  0.00  0.00    +0.000 C 
ATOM      2  C   UNL     1       7.699   5.765  19.225  0.00  0.00    +0.000 C 
ATOM      3  C   UNL     1       6.012   5.479  17.391  0.00  0.00    +0.000 C 
ENDROOT
BRANCH   1   4
ATOM      4  C   UNL     1       7.513   7.457  17.316  0.00  0.00    +0.000 C 
BRANCH   4   5
ATOM      5  C   UNL     1       8.236   8.310  18.361  0.00  0.00    +0.000 C 
BRANCH   5   8
ATOM      6  C   UNL     1       9.065  10.715  18.498  0.00  0.00    +0.000 C 
ATOM      7  C   UNL     1       9.546  10.560  19.916  0.00  0.00    +0.000 C 
ATOM      8  C   UNL     1       8.482   9.692  17.839  0.00  0.00    +0.000 C 
BRANCH   6   9
ATOM      9  C   UNL     1       9.289  12.092  17.884  0.00  0.00    +0.000 C 
BRANCH   9  10
ATOM     10  C   UNL     1      10.755  12.410  17.564  0.00  0.00    +0.000 C 
BRANCH  10  14
ATOM     11  C   UNL     1      12.326  15.464  19.365  0.00  0.00    +0.000 C 
ATOM     12  C   UNL     1      11.617  14.617  18.350  0.00  0.00    +0.000 C 
ATOM     13  C   UNL     1      11.099  15.303  17.112  0.00  0.00    +0.000 C 
ATOM     14  C   UNL     1      11.459  13.293  18.554  0.00  0.00    +0.000 C 
ENDBRANCH  10  14
ENDBRANCH   9  10
ENDBRANCH   6   9
ENDBRANCH   5   8
ENDBRANCH   4   5
ENDBRANCH   1   4
BRANCH   3  15
ATOM     15  C   UNL     1       5.424   4.218  17.951  0.00  0.00    +0.000 C 
BRANCH  15  16
ATOM     16  C   UNL     1       4.062   3.914  17.332  0.00  0.00    +0.000 C 
BRANCH  16  17
ATOM     17  C   UNL     1       2.976   4.411  18.249  0.00  0.00    +0.000 C 
ATOM     18  O   UNL     1       2.138   5.236  17.906  0.00  0.00    +0.000 OA
ATOM     19  N   UNL     1       2.983   3.883  19.543  0.00  0.00    +0.000 N 
ATOM     20  H   UNL     1       3.640   3.173  19.849  0.00  0.00    +0.000 HD
BRANCH  19  21
ATOM     21  S   UNL     1       1.801   4.208  20.652  0.00  0.00    +0.000 S 
ATOM     22  O   UNL     1       1.822   5.629  20.899  0.00  0.00    +0.000 OA
ATOM     23  O   UNL     1       0.616   3.534  20.181  0.00  0.00    +0.000 OA
BRANCH  21  24
ATOM     24  O   UNL     1       2.310   3.477  21.987  0.00  0.00    +0.000 OA
ATOM     25  H   UNL     1       1.774   2.659  22.110  0.00  0.00    +0.000 HD
ENDBRANCH  21  24
ENDBRANCH  19  21
ENDBRANCH  16  17
ENDBRANCH  15  16
ENDBRANCH   3  15
TORSDOF 11
ENDMDL
MODEL 8
REMARK VINA RESULT:      -6.5      6.238      8.106
REMARK  Name = 
REMARK  15 active torsions:
REMARK  status: ('A' for Active; 'I' for Inactive)
REMARK    1  A    between atoms: C_1  and  C_2
REMARK    2  A    between atoms: C_2  and  C_3
REMARK    3  A    between atoms: C_4  and  C_5
REMARK    4  A    between atoms: C_5  and  C_6
REMARK    5  A    between atoms: C_6  and  C_7
REMARK    6  A    between atoms: C_7  and  C_8
REMARK    7  A    between atoms: C_9  and  C_10
REMARK    8  A    between atoms: C_10  and  C_11
REMARK    9  A    between atoms: C_11  and  C_12
REMARK   10  A    between atoms: C_12  and  C_13
REMARK   11  A    between atoms: C_14  and  C_15
REMARK   12  A    between atoms: C_15  and  C_16
REMARK   13  A    between atoms: C_16  and  C_17
REMARK   14  A    between atoms: N_19  and  S_20
REMARK   15  A    between atoms: S_20  and  O_23
REMARK                            x       y       z     vdW  Elec       q    Type
REMARK                         _______ _______ _______ _____ _____    ______ ____
ROOT
ATOM      1  C   UNL     1       1.852   4.316  19.581  0.00  0.00    +0.000 C 
ATOM      2  C   UNL     1       2.270   3.134  20.411  0.00  0.00    +0.000 C 
ATOM      3  C   UNL     1       1.936   4.337  18.236  0.00  0.00    +0.000 C 
ENDROOT
BRANCH   1   4
ATOM      4  C   UNL     1       1.263   5.484  20.335  0.00  0.00    +0.000 C 
BRANCH   4   5
ATOM      5  C   UNL     1       2.302   6.600  20.468  0.00  0.00    +0.000 C 
BRANCH   5   8
ATOM      6  C   UNL     1       2.156   8.328  18.602  0.00  0.00    +0.000 C 
ATOM      7  C   UNL     1       3.131   7.589  17.724  0.00  0.00    +0.000 C 
ATOM      8  C   UNL     1       1.814   7.859  19.820  0.00  0.00    +0.000 C 
BRANCH   6   9
ATOM      9  C   UNL     1       1.599   9.618  18.011  0.00  0.00    +0.000 C 
BRANCH   9  10
ATOM     10  C   UNL     1       0.068   9.705  18.016  0.00  0.00    +0.000 C 
BRANCH  10  14
ATOM     11  C   UNL     1      -2.324  12.212  19.757  0.00  0.00    +0.000 C 
ATOM     12  C   UNL     1      -1.771  11.201  18.796  0.00  0.00    +0.000 C 
ATOM     13  C   UNL     1      -2.662  10.759  17.664  0.00  0.00    +0.000 C 
ATOM     14  C   UNL     1      -0.522  10.718  18.955  0.00  0.00    +0.000 C 
ENDBRANCH  10  14
ENDBRANCH   9  10
ENDBRANCH   6   9
ENDBRANCH   5   8
ENDBRANCH   4   5
ENDBRANCH   1   4
BRANCH   3  15
ATOM     15  C   UNL     1       2.461   3.219  17.387  0.00  0.00    +0.000 C 
BRANCH  15  16
ATOM     16  C   UNL     1       3.893   2.851  17.769  0.00  0.00    +0.000 C 
BRANCH  16  17
ATOM     17  C   UNL     1       4.851   3.757  17.044  0.00  0.00    +0.000 C 
ATOM     18  O   UNL     1       4.658   4.158  15.903  0.00  0.00    +0.000 OA
ATOM     19  N   UNL     1       6.004   4.114  17.751  0.00  0.00    +0.000 N 
ATOM     20  H   UNL     1       6.177   3.829  18.709  0.00  0.00    +0.000 HD
BRANCH  19  21
ATOM     21  S   UNL     1       7.110   5.199  17.176  0.00  0.00    +0.000 S 
ATOM     22  O   UNL     1       7.693   5.863  18.316  0.00  0.00    +0.000 OA
ATOM     23  O   UNL     1       7.915   4.480  16.219  0.00  0.00    +0.000 OA
BRANCH  21  24
ATOM     24  O   UNL     1       6.220   6.279  16.390  0.00  0.00    +0.000 OA
ATOM     25  H   UNL     1       5.820   5.832  15.607  0.00  0.00    +0.000 HD
ENDBRANCH  21  24
ENDBRANCH  19  21
ENDBRANCH  16  17
ENDBRANCH  15  16
ENDBRANCH   3  15
TORSDOF 11
ENDMDL
MODEL 9
REMARK VINA RESULT:      -6.5      1.688      2.305
REMARK  Name = 
REMARK  15 active torsions:
REMARK  status: ('A' for Active; 'I' for Inactive)
REMARK    1  A    between atoms: C_1  and  C_2
REMARK    2  A    between atoms: C_2  and  C_3
REMARK    3  A    between atoms: C_4  and  C_5
REMARK    4  A    between atoms: C_5  and  C_6
REMARK    5  A    between atoms: C_6  and  C_7
REMARK    6  A    between atoms: C_7  and  C_8
REMARK    7  A    between atoms: C_9  and  C_10
REMARK    8  A    between atoms: C_10  and  C_11
REMARK    9  A    between atoms: C_11  and  C_12
REMARK   10  A    between atoms: C_12  and  C_13
REMARK   11  A    between atoms: C_14  and  C_15
REMARK   12  A    between atoms: C_15  and  C_16
REMARK   13  A    between atoms: C_16  and  C_17
REMARK   14  A    between atoms: N_19  and  S_20
REMARK   15  A    between atoms: S_20  and  O_23
REMARK                            x       y       z     vdW  Elec       q    Type
REMARK                         _______ _______ _______ _____ _____    ______ ____
ROOT
ATOM      1  C   UNL     1       7.243   7.314  17.712  0.00  0.00    +0.000 C 
ATOM      2  C   UNL     1       7.911   6.438  18.735  0.00  0.00    +0.000 C 
ATOM      3  C   UNL     1       6.140   6.942  17.032  0.00  0.00    +0.000 C 
ENDROOT
BRANCH   1   4
ATOM      4  C   UNL     1       7.839   8.687  17.518  0.00  0.00    +0.000 C 
BRANCH   4   5
ATOM      5  C   UNL     1       8.724   9.048  18.714  0.00  0.00    +0.000 C 
BRANCH   5   8
ATOM      6  C   UNL     1       9.635  11.307  19.460  0.00  0.00    +0.000 C 
ATOM      7  C   UNL     1       9.280  11.071  20.904  0.00  0.00    +0.000 C 
ATOM      8  C   UNL     1       9.369  10.385  18.512  0.00  0.00    +0.000 C 
BRANCH   6   9
ATOM      9  C   UNL     1      10.309  12.642  19.168  0.00  0.00    +0.000 C 
BRANCH   9  10
ATOM     10  C   UNL     1      10.108  13.151  17.735  0.00  0.00    +0.000 C 
BRANCH  10  14
ATOM     11  C   UNL     1      11.257  16.789  17.038  0.00  0.00    +0.000 C 
ATOM     12  C   UNL     1      10.416  15.609  17.427  0.00  0.00    +0.000 C 
ATOM     13  C   UNL     1       9.009  15.881  17.895  0.00  0.00    +0.000 C 
ATOM     14  C   UNL     1      10.916  14.358  17.354  0.00  0.00    +0.000 C 
ENDBRANCH  10  14
ENDBRANCH   9  10
ENDBRANCH   6   9
ENDBRANCH   5   8
ENDBRANCH   4   5
ENDBRANCH   1   4
BRANCH   3  15
ATOM     15  C   UNL     1       5.440   5.624  17.178  0.00  0.00    +0.000 C 
BRANCH  15  16
ATOM     16  C   UNL     1       3.946   5.808  17.427  0.00  0.00    +0.000 C 
BRANCH  16  17
ATOM     17  C   UNL     1       3.356   4.509  17.907  0.00  0.00    +0.000 C 
ATOM     18  O   UNL     1       3.849   3.417  17.652  0.00  0.00    +0.000 OA
ATOM     19  N   UNL     1       2.184   4.615  18.663  0.00  0.00    +0.000 N 
ATOM     20  H   UNL     1       1.771   5.504  18.923  0.00  0.00    +0.000 HD
BRANCH  19  21
ATOM     21  S   UNL     1       1.461   3.315  19.385  0.00  0.00    +0.000 S 
ATOM     22  O   UNL     1       0.775   3.801  20.557  0.00  0.00    +0.000 OA
ATOM     23  O   UNL     1       0.767   2.611  18.334  0.00  0.00    +0.000 OA
BRANCH  21  24
ATOM     24  O   UNL     1       2.691   2.414  19.882  0.00  0.00    +0.000 OA
ATOM     25  H   UNL     1       2.347   1.513  20.084  0.00  0.00    +0.000 HD
ENDBRANCH  21  24
ENDBRANCH  19  21
ENDBRANCH  16  17
ENDBRANCH  15  16
ENDBRANCH   3  15
TORSDOF 11
ENDMDL
