MODEL 1
REMARK VINA RESULT:      -6.0      0.000      0.000
REMARK  Name = 
REMARK  17 active torsions:
REMARK  status: ('A' for Active; 'I' for Inactive)
REMARK    1  A    between atoms: C_1  and  N_2
REMARK    2  A    between atoms: N_2  and  C_3
REMARK    3  A    between atoms: N_2  and  N_7
REMARK    4  A    between atoms: C_3  and  C_4
REMARK    5  A    between atoms: C_4  and  O_6
REMARK    6  A    between atoms: C_8  and  C_10
REMARK    7  A    between atoms: C_10  and  C_11
REMARK    8  A    between atoms: C_11  and  C_12
REMARK    9  A    between atoms: C_11  and  N_15
REMARK   10  A    between atoms: C_12  and  C_13
REMARK   11  A    between atoms: C_13  and  N_14
REMARK   12  A    between atoms: C_16  and  C_18
REMARK   13  A    between atoms: C_18  and  N_19
REMARK   14  A    between atoms: C_18  and  C_20
REMARK   15  A    between atoms: C_20  and  C_21
REMARK   16  A    between atoms: C_21  and  C_22
REMARK   17  A    between atoms: C_22  and  O_24
REMARK                            x       y       z     vdW  Elec       q    Type
REMARK                         _______ _______ _______ _____ _____    ______ ____
ROOT
ATOM      1  C   UNL     1       2.526   6.443  18.184  0.00  0.00    +0.000 C 
ENDROOT
BRANCH   1   2
ATOM      2  N   UNL     1       3.129   5.114  17.984  0.00  0.00    +0.000 N 
ATOM      3  C   UNL     1       2.378   4.003  17.644  0.00  0.00    +0.000 C 
ATOM      4  O   UNL     1       1.191   4.092  17.331  0.00  0.00    +0.000 OA
ATOM      5  H   UNL     1       4.061   4.960  18.355  0.00  0.00    +0.000 HD
BRANCH   3   6
ATOM      6  C   UNL     1       3.126   2.634  17.707  0.00  0.00    +0.000 C 
BRANCH   6   7
ATOM      7  N   UNL     1       4.538   2.867  17.347  0.00  0.00    +0.000 NA
ATOM      8  H   UNL     1       4.801   3.799  17.676  0.00  0.00    +0.000 HD
ATOM      9  H   UNL     1       4.623   2.923  16.331  0.00  0.00    +0.000 HD
ENDBRANCH   6   7
BRANCH   6  10
ATOM     10  C   UNL     1       3.099   1.994  19.101  0.00  0.00    +0.000 C 
BRANCH  10  11
ATOM     11  C   UNL     1       1.689   1.825  19.673  0.00  0.00    +0.000 C 
BRANCH  11  12
ATOM     12  C   UNL     1       1.427   2.787  20.815  0.00  0.00    +0.000 C 
ATOM     13  O   UNL     1       1.860   2.654  21.949  0.00  0.00    +0.000 OA
BRANCH  12  14
ATOM     14  O   UNL     1       0.588   3.804  20.501  0.00  0.00    +0.000 OA
ATOM     15  H   UNL     1      -0.176   3.479  19.960  0.00  0.00    +0.000 HD
ENDBRANCH  12  14
ENDBRANCH  11  12
ENDBRANCH  10  11
ENDBRANCH   6  10
ENDBRANCH   3   6
ENDBRANCH   1   2
BRANCH   1  16
ATOM     16  C   UNL     1       2.437   6.754  19.703  0.00  0.00    +0.000 C 
BRANCH  16  17
ATOM     17  C   UNL     1       1.796   8.113  20.017  0.00  0.00    +0.000 C 
BRANCH  17  18
ATOM     18  N   UNL     1       1.485   8.242  21.436  0.00  0.00    +0.000 NA
ATOM     19  H   UNL     1       0.841   9.018  21.586  0.00  0.00    +0.000 HD
ATOM     20  H   UNL     1       2.334   8.483  21.948  0.00  0.00    +0.000 HD
ENDBRANCH  17  18
ENDBRANCH  16  17
ENDBRANCH   1  16
BRANCH   1  21
ATOM     21  C   UNL     1       3.322   7.517  17.437  0.00  0.00    +0.000 C 
BRANCH  21  23
ATOM     22  N   UNL     1       5.774   7.427  17.717  0.00  0.00    +0.000 N 
ATOM     23  C   UNL     1       4.694   7.149  16.882  0.00  0.00    +0.000 C 
ATOM     24  O   UNL     1       4.739   6.566  15.805  0.00  0.00    +0.000 OA
ATOM     25  H   UNL     1       5.629   8.020  18.528  0.00  0.00    +0.000 HD
BRANCH  22  27
ATOM     26  C   UNL     1       8.179   7.924  17.991  0.00  0.00    +0.000 C 
ATOM     27  N   UNL     1       7.138   7.027  17.465  0.00  0.00    +0.000 NA
BRANCH  27  28
ATOM     28  C   UNL     1       7.382   5.623  17.862  0.00  0.00    +0.000 C 
BRANCH  28  29
ATOM     29  C   UNL     1       6.902   5.347  19.265  0.00  0.00    +0.000 C 
ATOM     30  O   UNL     1       7.589   5.459  20.273  0.00  0.00    +0.000 OA
BRANCH  29  31
ATOM     31  O   UNL     1       5.618   4.947  19.349  0.00  0.00    +0.000 OA
ATOM     32  H   UNL     1       5.449   4.118  19.833  0.00  0.00    +0.000 HD
ENDBRANCH  29  31
ENDBRANCH  28  29
ENDBRANCH  27  28
ENDBRANCH  22  27
ENDBRANCH  21  23
ENDBRANCH   1  21
TORSDOF 16
ENDMDL
MODEL 2
REMARK VINA RESULT:      -5.9      1.561      1.980
REMARK  Name = 
REMARK  17 active torsions:
REMARK  status: ('A' for Active; 'I' for Inactive)
REMARK    1  A    between atoms: C_1  and  N_2
REMARK    2  A    between atoms: N_2  and  C_3
REMARK    3  A    between atoms: N_2  and  N_7
REMARK    4  A    between atoms: C_3  and  C_4
REMARK    5  A    between atoms: C_4  and  O_6
REMARK    6  A    between atoms: C_8  and  C_10
REMARK    7  A    between atoms: C_10  and  C_11
REMARK    8  A    between atoms: C_11  and  C_12
REMARK    9  A    between atoms: C_11  and  N_15
REMARK   10  A    between atoms: C_12  and  C_13
REMARK   11  A    between atoms: C_13  and  N_14
REMARK   12  A    between atoms: C_16  and  C_18
REMARK   13  A    between atoms: C_18  and  N_19
REMARK   14  A    between atoms: C_18  and  C_20
REMARK   15  A    between atoms: C_20  and  C_21
REMARK   16  A    between atoms: C_21  and  C_22
REMARK   17  A    between atoms: C_22  and  O_24
REMARK                            x       y       z     vdW  Elec       q    Type
REMARK                         _______ _______ _______ _____ _____    ______ ____
ROOT
ATOM      1  C   UNL     1       4.161   5.559  16.590  0.00  0.00    +0.000 C 
ENDROOT
BRANCH   1   2
ATOM      2  N   UNL     1       4.434   4.373  17.419  0.00  0.00    +0.000 N 
ATOM      3  C   UNL     1       3.563   3.300  17.486  0.00  0.00    +0.000 C 
ATOM      4  O   UNL     1       2.592   3.202  16.736  0.00  0.00    +0.000 OA
ATOM      5  H   UNL     1       5.136   4.459  18.146  0.00  0.00    +0.000 HD
BRANCH   3   6
ATOM      6  C   UNL     1       3.879   2.239  18.587  0.00  0.00    +0.000 C 
BRANCH   6   7
ATOM      7  N   UNL     1       4.797   2.854  19.567  0.00  0.00    +0.000 NA
ATOM      8  H   UNL     1       5.744   2.817  19.180  0.00  0.00    +0.000 HD
ATOM      9  H   UNL     1       4.840   2.269  20.402  0.00  0.00    +0.000 HD
ENDBRANCH   6   7
BRANCH   6  10
ATOM     10  C   UNL     1       2.633   1.768  19.348  0.00  0.00    +0.000 C 
BRANCH  10  11
ATOM     11  C   UNL     1       2.348   2.572  20.619  0.00  0.00    +0.000 C 
BRANCH  11  12
ATOM     12  C   UNL     1       1.209   3.553  20.419  0.00  0.00    +0.000 C 
ATOM     13  O   UNL     1       1.219   4.716  20.791  0.00  0.00    +0.000 OA
BRANCH  12  14
ATOM     14  O   UNL     1       0.107   3.012  19.844  0.00  0.00    +0.000 OA
ATOM     15  H   UNL     1       0.189   3.006  18.857  0.00  0.00    +0.000 HD
ENDBRANCH  12  14
ENDBRANCH  11  12
ENDBRANCH  10  11
ENDBRANCH   6  10
ENDBRANCH   3   6
ENDBRANCH   1   2
BRANCH   1  16
ATOM     16  C   UNL     1       4.071   6.819  17.494  0.00  0.00    +0.000 C 
BRANCH  16  17
ATOM     17  C   UNL     1       3.061   6.684  18.641  0.00  0.00    +0.000 C 
BRANCH  17  18
ATOM     18  N   UNL     1       3.641   5.988  19.784  0.00  0.00    +0.000 NA
ATOM     19  H   UNL     1       4.442   5.432  19.488  0.00  0.00    +0.000 HD
ATOM     20  H   UNL     1       2.962   5.322  20.156  0.00  0.00    +0.000 HD
ENDBRANCH  17  18
ENDBRANCH  16  17
ENDBRANCH   1  16
BRANCH   1  21
ATOM     21  C   UNL     1       5.230   5.721  15.506  0.00  0.00    +0.000 C 
BRANCH  21  23
ATOM     22  N   UNL     1       6.712   7.011  17.001  0.00  0.00    +0.000 N 
ATOM     23  C   UNL     1       6.639   6.123  15.930  0.00  0.00    +0.000 C 
ATOM     24  O   UNL     1       7.583   5.579  15.371  0.00  0.00    +0.000 OA
ATOM     25  H   UNL     1       5.869   7.489  17.303  0.00  0.00    +0.000 HD
BRANCH  22  27
ATOM     26  C   UNL     1       8.152   8.856  17.795  0.00  0.00    +0.000 C 
ATOM     27  N   UNL     1       7.932   7.407  17.665  0.00  0.00    +0.000 NA
BRANCH  27  28
ATOM     28  C   UNL     1       8.102   6.715  18.961  0.00  0.00    +0.000 C 
BRANCH  28  29
ATOM     29  C   UNL     1       7.521   5.324  18.934  0.00  0.00    +0.000 C 
ATOM     30  O   UNL     1       8.009   4.375  18.332  0.00  0.00    +0.000 OA
BRANCH  29  31
ATOM     31  O   UNL     1       6.380   5.180  19.636  0.00  0.00    +0.000 OA
ATOM     32  H   UNL     1       6.459   5.206  20.608  0.00  0.00    +0.000 HD
ENDBRANCH  29  31
ENDBRANCH  28  29
ENDBRANCH  27  28
ENDBRANCH  22  27
ENDBRANCH  21  23
ENDBRANCH   1  21
TORSDOF 16
ENDMDL
MODEL 3
REMARK VINA RESULT:      -5.8      3.239      6.181
REMARK  Name = 
REMARK  17 active torsions:
REMARK  status: ('A' for Active; 'I' for Inactive)
REMARK    1  A    between atoms: C_1  and  N_2
REMARK    2  A    between atoms: N_2  and  C_3
REMARK    3  A    between atoms: N_2  and  N_7
REMARK    4  A    between atoms: C_3  and  C_4
REMARK    5  A    between atoms: C_4  and  O_6
REMARK    6  A    between atoms: C_8  and  C_10
REMARK    7  A    between atoms: C_10  and  C_11
REMARK    8  A    between atoms: C_11  and  C_12
REMARK    9  A    between atoms: C_11  and  N_15
REMARK   10  A    between atoms: C_12  and  C_13
REMARK   11  A    between atoms: C_13  and  N_14
REMARK   12  A    between atoms: C_16  and  C_18
REMARK   13  A    between atoms: C_18  and  N_19
REMARK   14  A    between atoms: C_18  and  C_20
REMARK   15  A    between atoms: C_20  and  C_21
REMARK   16  A    between atoms: C_21  and  C_22
REMARK   17  A    between atoms: C_22  and  O_24
REMARK                            x       y       z     vdW  Elec       q    Type
REMARK                         _______ _______ _______ _____ _____    ______ ____
ROOT
ATOM      1  C   UNL     1       4.758   6.436  17.646  0.00  0.00    +0.000 C 
ENDROOT
BRANCH   1   2
ATOM      2  N   UNL     1       5.190   5.314  16.795  0.00  0.00    +0.000 N 
ATOM      3  C   UNL     1       6.390   5.325  16.108  0.00  0.00    +0.000 C 
ATOM      4  O   UNL     1       7.239   6.197  16.294  0.00  0.00    +0.000 OA
ATOM      5  H   UNL     1       4.484   4.645  16.505  0.00  0.00    +0.000 HD
BRANCH   3   6
ATOM      6  C   UNL     1       6.587   4.176  15.069  0.00  0.00    +0.000 C 
BRANCH   6   7
ATOM      7  N   UNL     1       6.062   2.929  15.660  0.00  0.00    +0.000 NA
ATOM      8  H   UNL     1       6.130   2.191  14.955  0.00  0.00    +0.000 HD
ATOM      9  H   UNL     1       5.060   3.030  15.826  0.00  0.00    +0.000 HD
ENDBRANCH   6   7
BRANCH   6  10
ATOM     10  C   UNL     1       5.840   4.418  13.752  0.00  0.00    +0.000 C 
BRANCH  10  11
ATOM     11  C   UNL     1       6.466   3.704  12.550  0.00  0.00    +0.000 C 
BRANCH  11  12
ATOM     12  C   UNL     1       5.461   2.822  11.835  0.00  0.00    +0.000 C 
ATOM     13  O   UNL     1       4.341   3.175  11.499  0.00  0.00    +0.000 OA
BRANCH  12  14
ATOM     14  O   UNL     1       5.876   1.545  11.653  0.00  0.00    +0.000 OA
ATOM     15  H   UNL     1       5.700   0.997  12.459  0.00  0.00    +0.000 HD
ENDBRANCH  12  14
ENDBRANCH  11  12
ENDBRANCH  10  11
ENDBRANCH   6  10
ENDBRANCH   3   6
ENDBRANCH   1   2
BRANCH   1  16
ATOM     16  C   UNL     1       3.336   6.896  17.224  0.00  0.00    +0.000 C 
BRANCH  16  17
ATOM     17  C   UNL     1       2.695   7.892  18.200  0.00  0.00    +0.000 C 
BRANCH  17  18
ATOM     18  N   UNL     1       2.210   9.080  17.509  0.00  0.00    +0.000 NA
ATOM     19  H   UNL     1       2.340   8.980  16.503  0.00  0.00    +0.000 HD
ATOM     20  H   UNL     1       2.773   9.886  17.783  0.00  0.00    +0.000 HD
ENDBRANCH  17  18
ENDBRANCH  16  17
ENDBRANCH   1  16
BRANCH   1  21
ATOM     21  C   UNL     1       4.806   6.044  19.125  0.00  0.00    +0.000 C 
BRANCH  21  23
ATOM     22  N   UNL     1       3.399   4.179  19.925  0.00  0.00    +0.000 N 
ATOM     23  C   UNL     1       4.663   4.570  19.490  0.00  0.00    +0.000 C 
ATOM     24  O   UNL     1       5.624   3.836  19.294  0.00  0.00    +0.000 OA
ATOM     25  H   UNL     1       2.719   4.893  20.165  0.00  0.00    +0.000 HD
BRANCH  22  27
ATOM     26  C   UNL     1       2.028   2.621  21.266  0.00  0.00    +0.000 C 
ATOM     27  N   UNL     1       2.997   2.815  20.175  0.00  0.00    +0.000 NA
BRANCH  27  28
ATOM     28  C   UNL     1       2.561   2.134  18.937  0.00  0.00    +0.000 C 
BRANCH  28  29
ATOM     29  C   UNL     1       1.285   2.726  18.391  0.00  0.00    +0.000 C 
ATOM     30  O   UNL     1       0.174   2.226  18.515  0.00  0.00    +0.000 OA
BRANCH  29  31
ATOM     31  O   UNL     1       1.448   3.887  17.725  0.00  0.00    +0.000 OA
ATOM     32  H   UNL     1       0.875   4.629  17.995  0.00  0.00    +0.000 HD
ENDBRANCH  29  31
ENDBRANCH  28  29
ENDBRANCH  27  28
ENDBRANCH  22  27
ENDBRANCH  21  23
ENDBRANCH   1  21
TORSDOF 16
ENDMDL
MODEL 4
REMARK VINA RESULT:      -5.7      3.154      6.133
REMARK  Name = 
REMARK  17 active torsions:
REMARK  status: ('A' for Active; 'I' for Inactive)
REMARK    1  A    between atoms: C_1  and  N_2
REMARK    2  A    between atoms: N_2  and  C_3
REMARK    3  A    between atoms: N_2  and  N_7
REMARK    4  A    between atoms: C_3  and  C_4
REMARK    5  A    between atoms: C_4  and  O_6
REMARK    6  A    between atoms: C_8  and  C_10
REMARK    7  A    between atoms: C_10  and  C_11
REMARK    8  A    between atoms: C_11  and  C_12
REMARK    9  A    between atoms: C_11  and  N_15
REMARK   10  A    between atoms: C_12  and  C_13
REMARK   11  A    between atoms: C_13  and  N_14
REMARK   12  A    between atoms: C_16  and  C_18
REMARK   13  A    between atoms: C_18  and  N_19
REMARK   14  A    between atoms: C_18  and  C_20
REMARK   15  A    between atoms: C_20  and  C_21
REMARK   16  A    between atoms: C_21  and  C_22
REMARK   17  A    between atoms: C_22  and  O_24
REMARK                            x       y       z     vdW  Elec       q    Type
REMARK                         _______ _______ _______ _____ _____    ______ ____
ROOT
ATOM      1  C   UNL     1       5.187   6.254  17.879  0.00  0.00    +0.000 C 
ENDROOT
BRANCH   1   2
ATOM      2  N   UNL     1       5.551   5.157  16.966  0.00  0.00    +0.000 N 
ATOM      3  C   UNL     1       6.596   5.258  16.066  0.00  0.00    +0.000 C 
ATOM      4  O   UNL     1       7.383   6.204  16.086  0.00  0.00    +0.000 OA
ATOM      5  H   UNL     1       4.865   4.424  16.816  0.00  0.00    +0.000 HD
BRANCH   3   6
ATOM      6  C   UNL     1       6.696   4.110  15.013  0.00  0.00    +0.000 C 
BRANCH   6   7
ATOM      7  N   UNL     1       5.999   2.928  15.555  0.00  0.00    +0.000 NA
ATOM      8  H   UNL     1       5.002   3.150  15.621  0.00  0.00    +0.000 HD
ATOM      9  H   UNL     1       6.290   2.778  16.521  0.00  0.00    +0.000 HD
ENDBRANCH   6   7
BRANCH   6  10
ATOM     10  C   UNL     1       6.042   4.462  13.671  0.00  0.00    +0.000 C 
BRANCH  10  11
ATOM     11  C   UNL     1       6.591   3.657  12.490  0.00  0.00    +0.000 C 
BRANCH  11  12
ATOM     12  C   UNL     1       5.518   2.799  11.848  0.00  0.00    +0.000 C 
ATOM     13  O   UNL     1       5.696   1.670  11.418  0.00  0.00    +0.000 OA
BRANCH  12  14
ATOM     14  O   UNL     1       4.322   3.420  11.710  0.00  0.00    +0.000 OA
ATOM     15  H   UNL     1       3.587   2.760  11.632  0.00  0.00    +0.000 HD
ENDBRANCH  12  14
ENDBRANCH  11  12
ENDBRANCH  10  11
ENDBRANCH   6  10
ENDBRANCH   3   6
ENDBRANCH   1   2
BRANCH   1  16
ATOM     16  C   UNL     1       4.176   7.203  17.180  0.00  0.00    +0.000 C 
BRANCH  16  17
ATOM     17  C   UNL     1       2.962   7.559  18.050  0.00  0.00    +0.000 C 
BRANCH  17  18
ATOM     18  N   UNL     1       2.241   8.709  17.516  0.00  0.00    +0.000 NA
ATOM     19  H   UNL     1       2.064   9.388  18.256  0.00  0.00    +0.000 HD
ATOM     20  H   UNL     1       1.322   8.409  17.187  0.00  0.00    +0.000 HD
ENDBRANCH  17  18
ENDBRANCH  16  17
ENDBRANCH   1  16
BRANCH   1  21
ATOM     21  C   UNL     1       4.624   5.703  19.192  0.00  0.00    +0.000 C 
BRANCH  21  23
ATOM     22  N   UNL     1       2.970   3.889  18.932  0.00  0.00    +0.000 N 
ATOM     23  C   UNL     1       4.281   4.219  19.268  0.00  0.00    +0.000 C 
ATOM     24  O   UNL     1       5.185   3.434  19.525  0.00  0.00    +0.000 OA
ATOM     25  H   UNL     1       2.280   4.629  18.856  0.00  0.00    +0.000 HD
BRANCH  22  27
ATOM     26  C   UNL     1       3.440   1.542  18.316  0.00  0.00    +0.000 C 
ATOM     27  N   UNL     1       2.468   2.542  18.787  0.00  0.00    +0.000 NA
BRANCH  27  28
ATOM     28  C   UNL     1       1.766   2.083  20.004  0.00  0.00    +0.000 C 
BRANCH  28  29
ATOM     29  C   UNL     1       1.525   3.214  20.973  0.00  0.00    +0.000 C 
ATOM     30  O   UNL     1       2.124   3.367  22.030  0.00  0.00    +0.000 OA
BRANCH  29  31
ATOM     31  O   UNL     1       0.566   4.082  20.592  0.00  0.00    +0.000 OA
ATOM     32  H   UNL     1      -0.316   3.959  20.989  0.00  0.00    +0.000 HD
ENDBRANCH  29  31
ENDBRANCH  28  29
ENDBRANCH  27  28
ENDBRANCH  22  27
ENDBRANCH  21  23
ENDBRANCH   1  21
TORSDOF 16
ENDMDL
MODEL 5
REMARK VINA RESULT:      -5.7      3.118      6.427
REMARK  Name = 
REMARK  17 active torsions:
REMARK  status: ('A' for Active; 'I' for Inactive)
REMARK    1  A    between atoms: C_1  and  N_2
REMARK    2  A    between atoms: N_2  and  C_3
REMARK    3  A    between atoms: N_2  and  N_7
REMARK    4  A    between atoms: C_3  and  C_4
REMARK    5  A    between atoms: C_4  and  O_6
REMARK    6  A    between atoms: C_8  and  C_10
REMARK    7  A    between atoms: C_10  and  C_11
REMARK    8  A    between atoms: C_11  and  C_12
REMARK    9  A    between atoms: C_11  and  N_15
REMARK   10  A    between atoms: C_12  and  C_13
REMARK   11  A    between atoms: C_13  and  N_14
REMARK   12  A    between atoms: C_16  and  C_18
REMARK   13  A    between atoms: C_18  and  N_19
REMARK   14  A    between atoms: C_18  and  C_20
REMARK   15  A    between atoms: C_20  and  C_21
REMARK   16  A    between atoms: C_21  and  C_22
REMARK   17  A    between atoms: C_22  and  O_24
REMARK                            x       y       z     vdW  Elec       q    Type
REMARK                         _______ _______ _______ _____ _____    ______ ____
ROOT
ATOM      1  C   UNL     1       7.615   5.878  18.379  0.00  0.00    +0.000 C 
ENDROOT
BRANCH   1   2
ATOM      2  N   UNL     1       7.011   5.823  17.037  0.00  0.00    +0.000 N 
ATOM      3  C   UNL     1       7.324   4.832  16.124  0.00  0.00    +0.000 C 
ATOM      4  O   UNL     1       7.999   3.851  16.434  0.00  0.00    +0.000 OA
ATOM      5  H   UNL     1       6.563   6.664  16.688  0.00  0.00    +0.000 HD
BRANCH   3   6
ATOM      6  C   UNL     1       6.787   5.053  14.674  0.00  0.00    +0.000 C 
BRANCH   6   7
ATOM      7  N   UNL     1       7.899   5.557  13.845  0.00  0.00    +0.000 NA
ATOM      8  H   UNL     1       8.204   4.799  13.229  0.00  0.00    +0.000 HD
ATOM      9  H   UNL     1       8.706   5.743  14.439  0.00  0.00    +0.000 HD
ENDBRANCH   6   7
BRANCH   6  10
ATOM     10  C   UNL     1       6.264   3.767  14.022  0.00  0.00    +0.000 C 
BRANCH  10  11
ATOM     11  C   UNL     1       4.976   3.965  13.218  0.00  0.00    +0.000 C 
BRANCH  11  12
ATOM     12  C   UNL     1       4.950   3.095  11.976  0.00  0.00    +0.000 C 
ATOM     13  O   UNL     1       4.083   3.138  11.116  0.00  0.00    +0.000 OA
BRANCH  12  14
ATOM     14  O   UNL     1       5.949   2.182  11.918  0.00  0.00    +0.000 OA
ATOM     15  H   UNL     1       6.812   2.615  11.694  0.00  0.00    +0.000 HD
ENDBRANCH  12  14
ENDBRANCH  11  12
ENDBRANCH  10  11
ENDBRANCH   6  10
ENDBRANCH   3   6
ENDBRANCH   1   2
BRANCH   1  16
ATOM     16  C   UNL     1       8.202   7.293  18.631  0.00  0.00    +0.000 C 
BRANCH  16  17
ATOM     17  C   UNL     1       7.745   8.341  17.607  0.00  0.00    +0.000 C 
BRANCH  17  18
ATOM     18  N   UNL     1       8.255   9.667  17.935  0.00  0.00    +0.000 NA
ATOM     19  H   UNL     1       9.110   9.855  17.412  0.00  0.00    +0.000 HD
ATOM     20  H   UNL     1       8.521   9.694  18.920  0.00  0.00    +0.000 HD
ENDBRANCH  17  18
ENDBRANCH  16  17
ENDBRANCH   1  16
BRANCH   1  21
ATOM     21  C   UNL     1       6.590   5.497  19.451  0.00  0.00    +0.000 C 
BRANCH  21  23
ATOM     22  N   UNL     1       4.917   3.687  19.295  0.00  0.00    +0.000 N 
ATOM     23  C   UNL     1       5.214   5.016  19.001  0.00  0.00    +0.000 C 
ATOM     24  O   UNL     1       4.453   5.838  18.506  0.00  0.00    +0.000 OA
ATOM     25  H   UNL     1       5.666   3.070  19.594  0.00  0.00    +0.000 HD
BRANCH  22  27
ATOM     26  C   UNL     1       3.633   1.790  18.369  0.00  0.00    +0.000 C 
ATOM     27  N   UNL     1       3.628   3.066  19.102  0.00  0.00    +0.000 NA
BRANCH  27  28
ATOM     28  C   UNL     1       2.873   2.959  20.369  0.00  0.00    +0.000 C 
BRANCH  28  29
ATOM     29  C   UNL     1       1.954   4.138  20.574  0.00  0.00    +0.000 C 
ATOM     30  O   UNL     1       0.737   4.106  20.440  0.00  0.00    +0.000 OA
BRANCH  29  31
ATOM     31  O   UNL     1       2.579   5.280  20.923  0.00  0.00    +0.000 OA
ATOM     32  H   UNL     1       3.101   5.258  21.747  0.00  0.00    +0.000 HD
ENDBRANCH  29  31
ENDBRANCH  28  29
ENDBRANCH  27  28
ENDBRANCH  22  27
ENDBRANCH  21  23
ENDBRANCH   1  21
TORSDOF 16
ENDMDL
MODEL 6
REMARK VINA RESULT:      -5.6      2.792      5.419
REMARK  Name = 
REMARK  17 active torsions:
REMARK  status: ('A' for Active; 'I' for Inactive)
REMARK    1  A    between atoms: C_1  and  N_2
REMARK    2  A    between atoms: N_2  and  C_3
REMARK    3  A    between atoms: N_2  and  N_7
REMARK    4  A    between atoms: C_3  and  C_4
REMARK    5  A    between atoms: C_4  and  O_6
REMARK    6  A    between atoms: C_8  and  C_10
REMARK    7  A    between atoms: C_10  and  C_11
REMARK    8  A    between atoms: C_11  and  C_12
REMARK    9  A    between atoms: C_11  and  N_15
REMARK   10  A    between atoms: C_12  and  C_13
REMARK   11  A    between atoms: C_13  and  N_14
REMARK   12  A    between atoms: C_16  and  C_18
REMARK   13  A    between atoms: C_18  and  N_19
REMARK   14  A    between atoms: C_18  and  C_20
REMARK   15  A    between atoms: C_20  and  C_21
REMARK   16  A    between atoms: C_21  and  C_22
REMARK   17  A    between atoms: C_22  and  O_24
REMARK                            x       y       z     vdW  Elec       q    Type
REMARK                         _______ _______ _______ _____ _____    ______ ____
ROOT
ATOM      1  C   UNL     1       3.391   6.576  18.732  0.00  0.00    +0.000 C 
ENDROOT
BRANCH   1   2
ATOM      2  N   UNL     1       2.782   5.329  19.225  0.00  0.00    +0.000 N 
ATOM      3  C   UNL     1       2.029   5.280  20.384  0.00  0.00    +0.000 C 
ATOM      4  O   UNL     1       1.688   6.301  20.981  0.00  0.00    +0.000 OA
ATOM      5  H   UNL     1       3.137   4.454  18.853  0.00  0.00    +0.000 HD
BRANCH   3   6
ATOM      6  C   UNL     1       1.661   3.851  20.893  0.00  0.00    +0.000 C 
BRANCH   6   7
ATOM      7  N   UNL     1       0.426   3.423  20.206  0.00  0.00    +0.000 NA
ATOM      8  H   UNL     1       0.631   2.560  19.695  0.00  0.00    +0.000 HD
ATOM      9  H   UNL     1       0.193   4.100  19.479  0.00  0.00    +0.000 HD
ENDBRANCH   6   7
BRANCH   6  10
ATOM     10  C   UNL     1       2.745   2.806  20.598  0.00  0.00    +0.000 C 
BRANCH  10  11
ATOM     11  C   UNL     1       2.300   1.720  19.615  0.00  0.00    +0.000 C 
BRANCH  11  12
ATOM     12  C   UNL     1       2.751   2.026  18.200  0.00  0.00    +0.000 C 
ATOM     13  O   UNL     1       2.105   2.671  17.388  0.00  0.00    +0.000 OA
BRANCH  12  14
ATOM     14  O   UNL     1       3.929   1.449  17.857  0.00  0.00    +0.000 OA
ATOM     15  H   UNL     1       3.907   0.472  18.022  0.00  0.00    +0.000 HD
ENDBRANCH  12  14
ENDBRANCH  11  12
ENDBRANCH  10  11
ENDBRANCH   6  10
ENDBRANCH   3   6
ENDBRANCH   1   2
BRANCH   1  16
ATOM     16  C   UNL     1       4.716   6.253  17.988  0.00  0.00    +0.000 C 
BRANCH  16  17
ATOM     17  C   UNL     1       4.872   4.769  17.624  0.00  0.00    +0.000 C 
BRANCH  17  18
ATOM     18  N   UNL     1       5.664   4.056  18.619  0.00  0.00    +0.000 NA
ATOM     19  H   UNL     1       6.623   4.402  18.620  0.00  0.00    +0.000 HD
ATOM     20  H   UNL     1       5.724   3.070  18.362  0.00  0.00    +0.000 HD
ENDBRANCH  17  18
ENDBRANCH  16  17
ENDBRANCH   1  16
BRANCH   1  21
ATOM     21  C   UNL     1       2.414   7.338  17.833  0.00  0.00    +0.000 C 
BRANCH  21  23
ATOM     22  N   UNL     1       1.289   8.752  19.515  0.00  0.00    +0.000 N 
ATOM     23  C   UNL     1       1.938   8.715  18.282  0.00  0.00    +0.000 C 
ATOM     24  O   UNL     1       2.233   9.680  17.587  0.00  0.00    +0.000 OA
ATOM     25  H   UNL     1       0.992   7.881  19.941  0.00  0.00    +0.000 HD
BRANCH  22  27
ATOM     26  C   UNL     1      -0.385  10.552  19.777  0.00  0.00    +0.000 C 
ATOM     27  N   UNL     1       0.892   9.958  20.203  0.00  0.00    +0.000 NA
BRANCH  27  28
ATOM     28  C   UNL     1       0.949   9.797  21.672  0.00  0.00    +0.000 C 
BRANCH  28  29
ATOM     29  C   UNL     1      -0.264   9.074  22.203  0.00  0.00    +0.000 C 
ATOM     30  O   UNL     1      -0.748   8.064  21.707  0.00  0.00    +0.000 OA
BRANCH  29  31
ATOM     31  O   UNL     1      -0.812   9.632  23.301  0.00  0.00    +0.000 OA
ATOM     32  H   UNL     1      -0.193   9.969  23.975  0.00  0.00    +0.000 HD
ENDBRANCH  29  31
ENDBRANCH  28  29
ENDBRANCH  27  28
ENDBRANCH  22  27
ENDBRANCH  21  23
ENDBRANCH   1  21
TORSDOF 16
ENDMDL
MODEL 7
REMARK VINA RESULT:      -5.6      2.322      4.894
REMARK  Name = 
REMARK  17 active torsions:
REMARK  status: ('A' for Active; 'I' for Inactive)
REMARK    1  A    between atoms: C_1  and  N_2
REMARK    2  A    between atoms: N_2  and  C_3
REMARK    3  A    between atoms: N_2  and  N_7
REMARK    4  A    between atoms: C_3  and  C_4
REMARK    5  A    between atoms: C_4  and  O_6
REMARK    6  A    between atoms: C_8  and  C_10
REMARK    7  A    between atoms: C_10  and  C_11
REMARK    8  A    between atoms: C_11  and  C_12
REMARK    9  A    between atoms: C_11  and  N_15
REMARK   10  A    between atoms: C_12  and  C_13
REMARK   11  A    between atoms: C_13  and  N_14
REMARK   12  A    between atoms: C_16  and  C_18
REMARK   13  A    between atoms: C_18  and  N_19
REMARK   14  A    between atoms: C_18  and  C_20
REMARK   15  A    between atoms: C_20  and  C_21
REMARK   16  A    between atoms: C_21  and  C_22
REMARK   17  A    between atoms: C_22  and  O_24
REMARK                            x       y       z     vdW  Elec       q    Type
REMARK                         _______ _______ _______ _____ _____    ______ ____
ROOT
ATOM      1  C   UNL     1       4.775   5.653  17.725  0.00  0.00    +0.000 C 
ENDROOT
BRANCH   1   2
ATOM      2  N   UNL     1       3.954   4.430  17.722  0.00  0.00    +0.000 N 
ATOM      3  C   UNL     1       4.245   3.341  18.523  0.00  0.00    +0.000 C 
ATOM      4  O   UNL     1       5.106   3.391  19.401  0.00  0.00    +0.000 OA
ATOM      5  H   UNL     1       3.327   4.287  16.937  0.00  0.00    +0.000 HD
BRANCH   3   6
ATOM      6  C   UNL     1       3.427   2.045  18.227  0.00  0.00    +0.000 C 
BRANCH   6   7
ATOM      7  N   UNL     1       4.211   0.889  18.704  0.00  0.00    +0.000 NA
ATOM      8  H   UNL     1       4.984   1.243  19.274  0.00  0.00    +0.000 HD
ATOM      9  H   UNL     1       4.666   0.439  17.910  0.00  0.00    +0.000 HD
ENDBRANCH   6   7
BRANCH   6  10
ATOM     10  C   UNL     1       2.068   2.012  18.938  0.00  0.00    +0.000 C 
BRANCH  10  11
ATOM     11  C   UNL     1       1.905   3.100  20.003  0.00  0.00    +0.000 C 
BRANCH  11  12
ATOM     12  C   UNL     1       2.150   2.561  21.399  0.00  0.00    +0.000 C 
ATOM     13  O   UNL     1       1.306   2.501  22.279  0.00  0.00    +0.000 OA
BRANCH  12  14
ATOM     14  O   UNL     1       3.436   2.206  21.637  0.00  0.00    +0.000 OA
ATOM     15  H   UNL     1       3.532   1.220  21.665  0.00  0.00    +0.000 HD
ENDBRANCH  12  14
ENDBRANCH  11  12
ENDBRANCH  10  11
ENDBRANCH   6  10
ENDBRANCH   3   6
ENDBRANCH   1   2
BRANCH   1  16
ATOM     16  C   UNL     1       5.833   5.576  16.590  0.00  0.00    +0.000 C 
BRANCH  16  17
ATOM     17  C   UNL     1       7.282   5.560  17.098  0.00  0.00    +0.000 C 
BRANCH  17  18
ATOM     18  N   UNL     1       7.596   4.309  17.778  0.00  0.00    +0.000 NA
ATOM     19  H   UNL     1       7.460   3.521  17.145  0.00  0.00    +0.000 HD
ATOM     20  H   UNL     1       6.939   4.166  18.546  0.00  0.00    +0.000 HD
ENDBRANCH  17  18
ENDBRANCH  16  17
ENDBRANCH   1  16
BRANCH   1  21
ATOM     21  C   UNL     1       3.895   6.898  17.587  0.00  0.00    +0.000 C 
BRANCH  21  23
ATOM     22  N   UNL     1       2.442   8.045  19.222  0.00  0.00    +0.000 N 
ATOM     23  C   UNL     1       2.587   6.952  18.370  0.00  0.00    +0.000 C 
ATOM     24  O   UNL     1       1.740   6.099  18.132  0.00  0.00    +0.000 OA
ATOM     25  H   UNL     1       3.253   8.617  19.430  0.00  0.00    +0.000 HD
BRANCH  22  27
ATOM     26  C   UNL     1       1.184   7.954  21.346  0.00  0.00    +0.000 C 
ATOM     27  N   UNL     1       1.234   8.379  19.939  0.00  0.00    +0.000 NA
BRANCH  27  28
ATOM     28  C   UNL     1       0.885   9.809  19.793  0.00  0.00    +0.000 C 
BRANCH  28  29
ATOM     29  C   UNL     1       1.102  10.297  18.382  0.00  0.00    +0.000 C 
ATOM     30  O   UNL     1       2.165  10.722  17.946  0.00  0.00    +0.000 OA
BRANCH  29  31
ATOM     31  O   UNL     1       0.008  10.242  17.596  0.00  0.00    +0.000 OA
ATOM     32  H   UNL     1      -0.808   9.901  18.007  0.00  0.00    +0.000 HD
ENDBRANCH  29  31
ENDBRANCH  28  29
ENDBRANCH  27  28
ENDBRANCH  22  27
ENDBRANCH  21  23
ENDBRANCH   1  21
TORSDOF 16
ENDMDL
MODEL 8
REMARK VINA RESULT:      -5.6      1.971      2.999
REMARK  Name = 
REMARK  17 active torsions:
REMARK  status: ('A' for Active; 'I' for Inactive)
REMARK    1  A    between atoms: C_1  and  N_2
REMARK    2  A    between atoms: N_2  and  C_3
REMARK    3  A    between atoms: N_2  and  N_7
REMARK    4  A    between atoms: C_3  and  C_4
REMARK    5  A    between atoms: C_4  and  O_6
REMARK    6  A    between atoms: C_8  and  C_10
REMARK    7  A    between atoms: C_10  and  C_11
REMARK    8  A    between atoms: C_11  and  C_12
REMARK    9  A    between atoms: C_11  and  N_15
REMARK   10  A    between atoms: C_12  and  C_13
REMARK   11  A    between atoms: C_13  and  N_14
REMARK   12  A    between atoms: C_16  and  C_18
REMARK   13  A    between atoms: C_18  and  N_19
REMARK   14  A    between atoms: C_18  and  C_20
REMARK   15  A    between atoms: C_20  and  C_21
REMARK   16  A    between atoms: C_21  and  C_22
REMARK   17  A    between atoms: C_22  and  O_24
REMARK                            x       y       z     vdW  Elec       q    Type
REMARK                         _______ _______ _______ _____ _____    ______ ____
ROOT
ATOM      1  C   UNL     1       1.843   6.913  20.052  0.00  0.00    +0.000 C 
ENDROOT
BRANCH   1   2
ATOM      2  N   UNL     1       2.436   5.674  20.585  0.00  0.00    +0.000 N 
ATOM      3  C   UNL     1       1.718   4.498  20.696  0.00  0.00    +0.000 C 
ATOM      4  O   UNL     1       0.596   4.371  20.207  0.00  0.00    +0.000 OA
ATOM      5  H   UNL     1       3.296   5.757  21.117  0.00  0.00    +0.000 HD
BRANCH   3   6
ATOM      6  C   UNL     1       2.414   3.353  21.498  0.00  0.00    +0.000 C 
BRANCH   6   7
ATOM      7  N   UNL     1       1.391   2.688  22.330  0.00  0.00    +0.000 NA
ATOM      8  H   UNL     1       0.936   3.402  22.904  0.00  0.00    +0.000 HD
ATOM      9  H   UNL     1       1.850   2.074  23.003  0.00  0.00    +0.000 HD
ENDBRANCH   6   7
BRANCH   6  10
ATOM     10  C   UNL     1       3.050   2.285  20.600  0.00  0.00    +0.000 C 
BRANCH  10  11
ATOM     11  C   UNL     1       4.219   2.806  19.759  0.00  0.00    +0.000 C 
BRANCH  11  12
ATOM     12  C   UNL     1       3.986   2.587  18.277  0.00  0.00    +0.000 C 
ATOM     13  O   UNL     1       3.091   1.902  17.808  0.00  0.00    +0.000 OA
BRANCH  12  14
ATOM     14  O   UNL     1       4.917   3.164  17.479  0.00  0.00    +0.000 OA
ATOM     15  H   UNL     1       4.882   4.152  17.550  0.00  0.00    +0.000 HD
ENDBRANCH  12  14
ENDBRANCH  11  12
ENDBRANCH  10  11
ENDBRANCH   6  10
ENDBRANCH   3   6
ENDBRANCH   1   2
BRANCH   1  16
ATOM     16  C   UNL     1       1.687   7.953  21.194  0.00  0.00    +0.000 C 
BRANCH  16  17
ATOM     17  C   UNL     1       0.419   8.811  21.078  0.00  0.00    +0.000 C 
BRANCH  17  18
ATOM     18  N   UNL     1      -0.692   8.225  21.819  0.00  0.00    +0.000 NA
ATOM     19  H   UNL     1      -0.987   7.353  21.380  0.00  0.00    +0.000 HD
ATOM     20  H   UNL     1      -1.499   8.848  21.769  0.00  0.00    +0.000 HD
ENDBRANCH  17  18
ENDBRANCH  16  17
ENDBRANCH   1  16
BRANCH   1  21
ATOM     21  C   UNL     1       2.687   7.466  18.900  0.00  0.00    +0.000 C 
BRANCH  21  23
ATOM     22  N   UNL     1       4.678   6.797  17.602  0.00  0.00    +0.000 N 
ATOM     23  C   UNL     1       3.370   6.477  17.961  0.00  0.00    +0.000 C 
ATOM     24  O   UNL     1       2.766   5.452  17.670  0.00  0.00    +0.000 OA
ATOM     25  H   UNL     1       5.030   7.728  17.802  0.00  0.00    +0.000 HD
BRANCH  22  27
ATOM     26  C   UNL     1       5.354   5.911  15.396  0.00  0.00    +0.000 C 
ATOM     27  N   UNL     1       5.562   5.936  16.852  0.00  0.00    +0.000 NA
BRANCH  27  28
ATOM     28  C   UNL     1       6.982   6.177  17.191  0.00  0.00    +0.000 C 
BRANCH  28  29
ATOM     29  C   UNL     1       7.273   5.865  18.638  0.00  0.00    +0.000 C 
ATOM     30  O   UNL     1       6.649   5.060  19.318  0.00  0.00    +0.000 OA
BRANCH  29  31
ATOM     31  O   UNL     1       8.302   6.560  19.163  0.00  0.00    +0.000 OA
ATOM     32  H   UNL     1       8.346   6.605  20.137  0.00  0.00    +0.000 HD
ENDBRANCH  29  31
ENDBRANCH  28  29
ENDBRANCH  27  28
ENDBRANCH  22  27
ENDBRANCH  21  23
ENDBRANCH   1  21
TORSDOF 16
ENDMDL
MODEL 9
REMARK VINA RESULT:      -5.5      1.851      5.587
REMARK  Name = 
REMARK  17 active torsions:
REMARK  status: ('A' for Active; 'I' for Inactive)
REMARK    1  A    between atoms: C_1  and  N_2
REMARK    2  A    between atoms: N_2  and  C_3
REMARK    3  A    between atoms: N_2  and  N_7
REMARK    4  A    between atoms: C_3  and  C_4
REMARK    5  A    between atoms: C_4  and  O_6
REMARK    6  A    between atoms: C_8  and  C_10
REMARK    7  A    between atoms: C_10  and  C_11
REMARK    8  A    between atoms: C_11  and  C_12
REMARK    9  A    between atoms: C_11  and  N_15
REMARK   10  A    between atoms: C_12  and  C_13
REMARK   11  A    between atoms: C_13  and  N_14
REMARK   12  A    between atoms: C_16  and  C_18
REMARK   13  A    between atoms: C_18  and  N_19
REMARK   14  A    between atoms: C_18  and  C_20
REMARK   15  A    between atoms: C_20  and  C_21
REMARK   16  A    between atoms: C_21  and  C_22
REMARK   17  A    between atoms: C_22  and  O_24
REMARK                            x       y       z     vdW  Elec       q    Type
REMARK                         _______ _______ _______ _____ _____    ______ ____
ROOT
ATOM      1  C   UNL     1       3.086   6.601  18.325  0.00  0.00    +0.000 C 
ENDROOT
BRANCH   1   2
ATOM      2  N   UNL     1       4.393   6.562  17.646  0.00  0.00    +0.000 N 
ATOM      3  C   UNL     1       5.514   6.000  18.230  0.00  0.00    +0.000 C 
ATOM      4  O   UNL     1       5.449   5.358  19.278  0.00  0.00    +0.000 OA
ATOM      5  H   UNL     1       4.531   7.184  16.856  0.00  0.00    +0.000 HD
BRANCH   3   6
ATOM      6  C   UNL     1       6.863   6.252  17.487  0.00  0.00    +0.000 C 
BRANCH   6   7
ATOM      7  N   UNL     1       7.851   6.724  18.477  0.00  0.00    +0.000 NA
ATOM      8  H   UNL     1       7.777   6.129  19.307  0.00  0.00    +0.000 HD
ATOM      9  H   UNL     1       7.583   7.652  18.805  0.00  0.00    +0.000 HD
ENDBRANCH   6   7
BRANCH   6  10
ATOM     10  C   UNL     1       7.433   4.992  16.824  0.00  0.00    +0.000 C 
BRANCH  10  11
ATOM     11  C   UNL     1       6.433   4.268  15.918  0.00  0.00    +0.000 C 
BRANCH  11  12
ATOM     12  C   UNL     1       6.773   4.446  14.451  0.00  0.00    +0.000 C 
ATOM     13  O   UNL     1       6.314   3.770  13.544  0.00  0.00    +0.000 OA
BRANCH  12  14
ATOM     14  O   UNL     1       7.714   5.392  14.212  0.00  0.00    +0.000 OA
ATOM     15  H   UNL     1       7.837   5.530  13.238  0.00  0.00    +0.000 HD
ENDBRANCH  12  14
ENDBRANCH  11  12
ENDBRANCH  10  11
ENDBRANCH   6  10
ENDBRANCH   3   6
ENDBRANCH   1   2
BRANCH   1  16
ATOM     16  C   UNL     1       2.541   8.056  18.326  0.00  0.00    +0.000 C 
BRANCH  16  17
ATOM     17  C   UNL     1       1.691   8.394  19.559  0.00  0.00    +0.000 C 
BRANCH  17  18
ATOM     18  N   UNL     1       0.909   9.607  19.351  0.00  0.00    +0.000 NA
ATOM     19  H   UNL     1       1.395  10.235  18.711  0.00  0.00    +0.000 HD
ATOM     20  H   UNL     1       0.830  10.115  20.233  0.00  0.00    +0.000 HD
ENDBRANCH  17  18
ENDBRANCH  16  17
ENDBRANCH   1  16
BRANCH   1  21
ATOM     21  C   UNL     1       2.101   5.634  17.662  0.00  0.00    +0.000 C 
BRANCH  21  23
ATOM     22  N   UNL     1       3.038   3.753  18.960  0.00  0.00    +0.000 N 
ATOM     23  C   UNL     1       2.344   4.135  17.814  0.00  0.00    +0.000 C 
ATOM     24  O   UNL     1       1.843   3.387  16.984  0.00  0.00    +0.000 OA
ATOM     25  H   UNL     1       3.509   4.464  19.510  0.00  0.00    +0.000 HD
BRANCH  22  27
ATOM     26  C   UNL     1       4.522   2.112  20.061  0.00  0.00    +0.000 C 
ATOM     27  N   UNL     1       3.245   2.388  19.384  0.00  0.00    +0.000 NA
BRANCH  27  28
ATOM     28  C   UNL     1       2.098   1.874  20.162  0.00  0.00    +0.000 C 
BRANCH  28  29
ATOM     29  C   UNL     1       1.522   2.929  21.074  0.00  0.00    +0.000 C 
ATOM     30  O   UNL     1       2.000   3.256  22.153  0.00  0.00    +0.000 OA
BRANCH  29  31
ATOM     31  O   UNL     1       0.397   3.512  20.614  0.00  0.00    +0.000 OA
ATOM     32  H   UNL     1       0.074   4.288  21.109  0.00  0.00    +0.000 HD
ENDBRANCH  29  31
ENDBRANCH  28  29
ENDBRANCH  27  28
ENDBRANCH  22  27
ENDBRANCH  21  23
ENDBRANCH   1  21
TORSDOF 16
ENDMDL
