MODEL 1
REMARK VINA RESULT:      -7.6      0.000      0.000
REMARK  Name = 
REMARK  5 active torsions:
REMARK  status: ('A' for Active; 'I' for Inactive)
REMARK    1  A    between atoms: C_1  and  C_2
REMARK    2  A    between atoms: C_2  and  C_3
REMARK    3  A    between atoms: C_2  and  C_4
REMARK    4  A    between atoms: C_7  and  C_8
REMARK    5  A    between atoms: C_9  and  C_10
REMARK                            x       y       z     vdW  Elec       q    Type
REMARK                         _______ _______ _______ _____ _____    ______ ____
ROOT
ATOM      1  C   UNL     1       8.772   9.524  18.434  0.00  0.00    +0.000 C 
ATOM      2  C   UNL     1       8.211   8.512  18.113  0.00  0.00    +0.000 C 
ENDROOT
BRANCH   2   3
ATOM      3  C   UNL     1       7.641   7.204  17.856  0.00  0.00    +0.000 C 
ATOM      4  O   UNL     1       7.823   6.348  18.706  0.00  0.00    +0.000 OA
ATOM      5  N   UNL     1       7.021   7.030  16.639  0.00  0.00    +0.000 N 
ATOM      6  C   UNL     1       6.459   5.876  16.169  0.00  0.00    +0.000 C 
ATOM      7  N   UNL     1       6.405   5.664  14.901  0.00  0.00    +0.000 NA
ATOM      8  C   UNL     1       5.742   4.367  14.637  0.00  0.00    +0.000 C 
ATOM      9  C   UNL     1       5.650   3.518  15.896  0.00  0.00    +0.000 C 
ATOM     10  S   UNL     1       5.754   4.710  17.233  0.00  0.00    +0.000 S 
ATOM     11  H   UNL     1       7.187   7.726  15.928  0.00  0.00    +0.000 HD
ENDBRANCH   2   3
BRANCH   1  15
ATOM     12  C   UNL     1      10.812  13.010  19.772  0.00  0.00    +0.000 A 
ATOM     13  C   UNL     1      10.751  12.696  18.405  0.00  0.00    +0.000 A 
ATOM     14  C   UNL     1      10.083  11.545  17.966  0.00  0.00    +0.000 A 
ATOM     15  C   UNL     1       9.483  10.685  18.882  0.00  0.00    +0.000 A 
ATOM     16  C   UNL     1       9.591  10.952  20.246  0.00  0.00    +0.000 A 
ATOM     17  C   UNL     1      10.254  12.104  20.687  0.00  0.00    +0.000 A 
BRANCH  12  19
ATOM     18  C   UNL     1      12.329  14.910  19.133  0.00  0.00    +0.000 C 
ATOM     19  C   UNL     1      11.402  14.341  20.215  0.00  0.00    +0.000 C 
ATOM     20  C   UNL     1      10.345  15.384  20.579  0.00  0.00    +0.000 C 
ENDBRANCH  12  19
ENDBRANCH   1  15
TORSDOF 3
ENDMDL
MODEL 2
REMARK VINA RESULT:      -7.6      1.689      2.210
REMARK  Name = 
REMARK  5 active torsions:
REMARK  status: ('A' for Active; 'I' for Inactive)
REMARK    1  A    between atoms: C_1  and  C_2
REMARK    2  A    between atoms: C_2  and  C_3
REMARK    3  A    between atoms: C_2  and  C_4
REMARK    4  A    between atoms: C_7  and  C_8
REMARK    5  A    between atoms: C_9  and  C_10
REMARK                            x       y       z     vdW  Elec       q    Type
REMARK                         _______ _______ _______ _____ _____    ______ ____
ROOT
ATOM      1  C   UNL     1       8.454   9.101  18.191  0.00  0.00    +0.000 C 
ATOM      2  C   UNL     1       7.824   8.151  17.813  0.00  0.00    +0.000 C 
ENDROOT
BRANCH   2   3
ATOM      3  C   UNL     1       6.915   7.085  17.443  0.00  0.00    +0.000 C 
ATOM      4  O   UNL     1       6.304   7.221  16.395  0.00  0.00    +0.000 OA
ATOM      5  N   UNL     1       6.766   6.058  18.349  0.00  0.00    +0.000 N 
ATOM      6  C   UNL     1       5.933   4.982  18.229  0.00  0.00    +0.000 C 
ATOM      7  N   UNL     1       5.475   4.410  19.287  0.00  0.00    +0.000 NA
ATOM      8  C   UNL     1       4.617   3.265  18.907  0.00  0.00    +0.000 C 
ATOM      9  C   UNL     1       4.238   3.313  17.434  0.00  0.00    +0.000 C 
ATOM     10  S   UNL     1       5.524   4.316  16.687  0.00  0.00    +0.000 S 
ATOM     11  H   UNL     1       7.110   6.210  19.284  0.00  0.00    +0.000 HD
ENDBRANCH   2   3
BRANCH   1  15
ATOM     12  C   UNL     1      10.530  12.536  19.603  0.00  0.00    +0.000 A 
ATOM     13  C   UNL     1      10.113  11.535  20.494  0.00  0.00    +0.000 A 
ATOM     14  C   UNL     1       9.425  10.407  20.029  0.00  0.00    +0.000 A 
ATOM     15  C   UNL     1       9.129  10.269  18.675  0.00  0.00    +0.000 A 
ATOM     16  C   UNL     1       9.482  11.286  17.790  0.00  0.00    +0.000 A 
ATOM     17  C   UNL     1      10.174  12.413  18.251  0.00  0.00    +0.000 A 
BRANCH  12  19
ATOM     18  C   UNL     1      12.212  14.285  18.947  0.00  0.00    +0.000 C 
ATOM     19  C   UNL     1      11.412  13.672  20.103  0.00  0.00    +0.000 C 
ATOM     20  C   UNL     1      10.634  14.773  20.824  0.00  0.00    +0.000 C 
ENDBRANCH  12  19
ENDBRANCH   1  15
TORSDOF 3
ENDMDL
MODEL 3
REMARK VINA RESULT:      -7.5      0.294      1.135
REMARK  Name = 
REMARK  5 active torsions:
REMARK  status: ('A' for Active; 'I' for Inactive)
REMARK    1  A    between atoms: C_1  and  C_2
REMARK    2  A    between atoms: C_2  and  C_3
REMARK    3  A    between atoms: C_2  and  C_4
REMARK    4  A    between atoms: C_7  and  C_8
REMARK    5  A    between atoms: C_9  and  C_10
REMARK                            x       y       z     vdW  Elec       q    Type
REMARK                         _______ _______ _______ _____ _____    ______ ____
ROOT
ATOM      1  C   UNL     1       8.725   9.717  18.381  0.00  0.00    +0.000 C 
ATOM      2  C   UNL     1       8.198   8.681  18.080  0.00  0.00    +0.000 C 
ENDROOT
BRANCH   2   3
ATOM      3  C   UNL     1       7.662   7.354  17.856  0.00  0.00    +0.000 C 
ATOM      4  O   UNL     1       7.954   6.497  18.675  0.00  0.00    +0.000 OA
ATOM      5  N   UNL     1       6.942   7.165  16.696  0.00  0.00    +0.000 N 
ATOM      6  C   UNL     1       6.389   5.994  16.263  0.00  0.00    +0.000 C 
ATOM      7  N   UNL     1       6.231   5.792  15.002  0.00  0.00    +0.000 NA
ATOM      8  C   UNL     1       5.600   4.471  14.780  0.00  0.00    +0.000 C 
ATOM      9  C   UNL     1       5.656   3.606  16.031  0.00  0.00    +0.000 C 
ATOM     10  S   UNL     1       5.830   4.788  17.369  0.00  0.00    +0.000 S 
ATOM     11  H   UNL     1       7.016   7.874  15.984  0.00  0.00    +0.000 HD
ENDBRANCH   2   3
BRANCH   1  15
ATOM     12  C   UNL     1      10.778  13.226  19.636  0.00  0.00    +0.000 A 
ATOM     13  C   UNL     1      10.344  12.276  20.574  0.00  0.00    +0.000 A 
ATOM     14  C   UNL     1       9.664  11.124  20.160  0.00  0.00    +0.000 A 
ATOM     15  C   UNL     1       9.392  10.910  18.811  0.00  0.00    +0.000 A 
ATOM     16  C   UNL     1       9.762  11.876  17.877  0.00  0.00    +0.000 A 
ATOM     17  C   UNL     1      10.447  13.027  18.287  0.00  0.00    +0.000 A 
BRANCH  12  19
ATOM     18  C   UNL     1      12.279  15.095  18.880  0.00  0.00    +0.000 C 
ATOM     19  C   UNL     1      11.651  14.388  20.088  0.00  0.00    +0.000 C 
ATOM     20  C   UNL     1      10.907  15.412  20.945  0.00  0.00    +0.000 C 
ENDBRANCH  12  19
ENDBRANCH   1  15
TORSDOF 3
ENDMDL
MODEL 4
REMARK VINA RESULT:      -7.5      0.638      1.025
REMARK  Name = 
REMARK  5 active torsions:
REMARK  status: ('A' for Active; 'I' for Inactive)
REMARK    1  A    between atoms: C_1  and  C_2
REMARK    2  A    between atoms: C_2  and  C_3
REMARK    3  A    between atoms: C_2  and  C_4
REMARK    4  A    between atoms: C_7  and  C_8
REMARK    5  A    between atoms: C_9  and  C_10
REMARK                            x       y       z     vdW  Elec       q    Type
REMARK                         _______ _______ _______ _____ _____    ______ ____
ROOT
ATOM      1  C   UNL     1       8.678   9.101  18.698  0.00  0.00    +0.000 C 
ATOM      2  C   UNL     1       8.173   8.047  18.424  0.00  0.00    +0.000 C 
ENDROOT
BRANCH   2   3
ATOM      3  C   UNL     1       7.559   6.837  17.914  0.00  0.00    +0.000 C 
ATOM      4  O   UNL     1       7.281   5.975  18.732  0.00  0.00    +0.000 OA
ATOM      5  N   UNL     1       7.426   6.741  16.546  0.00  0.00    +0.000 N 
ATOM      6  C   UNL     1       6.923   5.678  15.850  0.00  0.00    +0.000 C 
ATOM      7  N   UNL     1       7.320   5.459  14.647  0.00  0.00    +0.000 NA
ATOM      8  C   UNL     1       6.626   4.273  14.096  0.00  0.00    +0.000 C 
ATOM      9  C   UNL     1       5.944   3.465  15.191  0.00  0.00    +0.000 C 
ATOM     10  S   UNL     1       5.707   4.647  16.520  0.00  0.00    +0.000 S 
ATOM     11  H   UNL     1       7.947   7.394  15.981  0.00  0.00    +0.000 HD
ENDBRANCH   2   3
BRANCH   1  15
ATOM     12  C   UNL     1      10.399  12.924  19.426  0.00  0.00    +0.000 A 
ATOM     13  C   UNL     1      10.153  12.487  18.115  0.00  0.00    +0.000 A 
ATOM     14  C   UNL     1       9.592  11.226  17.876  0.00  0.00    +0.000 A 
ATOM     15  C   UNL     1       9.283  10.379  18.937  0.00  0.00    +0.000 A 
ATOM     16  C   UNL     1       9.580  10.775  20.239  0.00  0.00    +0.000 A 
ATOM     17  C   UNL     1      10.137  12.037  20.482  0.00  0.00    +0.000 A 
BRANCH  12  19
ATOM     18  C   UNL     1      10.601  14.764  21.126  0.00  0.00    +0.000 C 
ATOM     19  C   UNL     1      10.860  14.354  19.671  0.00  0.00    +0.000 C 
ATOM     20  C   UNL     1      12.332  14.585  19.332  0.00  0.00    +0.000 C 
ENDBRANCH  12  19
ENDBRANCH   1  15
TORSDOF 3
ENDMDL
MODEL 5
REMARK VINA RESULT:      -7.5      1.724      1.968
REMARK  Name = 
REMARK  5 active torsions:
REMARK  status: ('A' for Active; 'I' for Inactive)
REMARK    1  A    between atoms: C_1  and  C_2
REMARK    2  A    between atoms: C_2  and  C_3
REMARK    3  A    between atoms: C_2  and  C_4
REMARK    4  A    between atoms: C_7  and  C_8
REMARK    5  A    between atoms: C_9  and  C_10
REMARK                            x       y       z     vdW  Elec       q    Type
REMARK                         _______ _______ _______ _____ _____    ______ ____
ROOT
ATOM      1  C   UNL     1       8.367   9.206  18.070  0.00  0.00    +0.000 C 
ATOM      2  C   UNL     1       7.681   8.304  17.673  0.00  0.00    +0.000 C 
ENDROOT
BRANCH   2   3
ATOM      3  C   UNL     1       6.852   7.155  17.371  0.00  0.00    +0.000 C 
ATOM      4  O   UNL     1       6.278   7.157  16.294  0.00  0.00    +0.000 OA
ATOM      5  N   UNL     1       6.724   6.208  18.364  0.00  0.00    +0.000 N 
ATOM      6  C   UNL     1       5.960   5.076  18.316  0.00  0.00    +0.000 C 
ATOM      7  N   UNL     1       5.492   4.577  19.405  0.00  0.00    +0.000 NA
ATOM      8  C   UNL     1       4.718   3.351  19.103  0.00  0.00    +0.000 C 
ATOM      9  C   UNL     1       4.399   3.241  17.619  0.00  0.00    +0.000 C 
ATOM     10  S   UNL     1       5.655   4.248  16.829  0.00  0.00    +0.000 S 
ATOM     11  H   UNL     1       7.020   6.466  19.293  0.00  0.00    +0.000 HD
ENDBRANCH   2   3
BRANCH   1  15
ATOM     12  C   UNL     1      10.697  12.353  19.734  0.00  0.00    +0.000 A 
ATOM     13  C   UNL     1      10.697  12.117  18.351  0.00  0.00    +0.000 A 
ATOM     14  C   UNL     1       9.933  11.077  17.805  0.00  0.00    +0.000 A 
ATOM     15  C   UNL     1       9.175  10.250  18.629  0.00  0.00    +0.000 A 
ATOM     16  C   UNL     1       9.216  10.434  20.010  0.00  0.00    +0.000 A 
ATOM     17  C   UNL     1       9.975  11.476  20.559  0.00  0.00    +0.000 A 
BRANCH  12  19
ATOM     18  C   UNL     1      12.047  14.394  19.159  0.00  0.00    +0.000 C 
ATOM     19  C   UNL     1      11.404  13.581  20.290  0.00  0.00    +0.000 C 
ATOM     20  C   UNL     1      10.490  14.489  21.114  0.00  0.00    +0.000 C 
ENDBRANCH  12  19
ENDBRANCH   1  15
TORSDOF 3
ENDMDL
MODEL 6
REMARK VINA RESULT:      -7.4      1.004      1.420
REMARK  Name = 
REMARK  5 active torsions:
REMARK  status: ('A' for Active; 'I' for Inactive)
REMARK    1  A    between atoms: C_1  and  C_2
REMARK    2  A    between atoms: C_2  and  C_3
REMARK    3  A    between atoms: C_2  and  C_4
REMARK    4  A    between atoms: C_7  and  C_8
REMARK    5  A    between atoms: C_9  and  C_10
REMARK                            x       y       z     vdW  Elec       q    Type
REMARK                         _______ _______ _______ _____ _____    ______ ____
ROOT
ATOM      1  C   UNL     1       8.769   9.560  18.401  0.00  0.00    +0.000 C 
ATOM      2  C   UNL     1       8.289   8.467  18.276  0.00  0.00    +0.000 C 
ENDROOT
BRANCH   2   3
ATOM      3  C   UNL     1       7.694   7.189  17.941  0.00  0.00    +0.000 C 
ATOM      4  O   UNL     1       7.533   6.399  18.858  0.00  0.00    +0.000 OA
ATOM      5  N   UNL     1       7.444   6.954  16.607  0.00  0.00    +0.000 N 
ATOM      6  C   UNL     1       6.934   5.809  16.063  0.00  0.00    +0.000 C 
ATOM      7  N   UNL     1       7.234   5.490  14.853  0.00  0.00    +0.000 NA
ATOM      8  C   UNL     1       6.553   4.229  14.483  0.00  0.00    +0.000 C 
ATOM      9  C   UNL     1       6.013   3.504  15.707  0.00  0.00    +0.000 C 
ATOM     10  S   UNL     1       5.837   4.798  16.936  0.00  0.00    +0.000 S 
ATOM     11  H   UNL     1       7.879   7.570  15.937  0.00  0.00    +0.000 HD
ENDBRANCH   2   3
BRANCH   1  15
ATOM     12  C   UNL     1      10.494  13.449  18.504  0.00  0.00    +0.000 A 
ATOM     13  C   UNL     1      11.083  12.385  19.204  0.00  0.00    +0.000 A 
ATOM     14  C   UNL     1      10.511  11.106  19.174  0.00  0.00    +0.000 A 
ATOM     15  C   UNL     1       9.339  10.874  18.460  0.00  0.00    +0.000 A 
ATOM     16  C   UNL     1       8.709  11.936  17.812  0.00  0.00    +0.000 A 
ATOM     17  C   UNL     1       9.281  13.214  17.837  0.00  0.00    +0.000 A 
BRANCH  12  19
ATOM     18  C   UNL     1      10.250  15.892  17.966  0.00  0.00    +0.000 C 
ATOM     19  C   UNL     1      11.213  14.788  18.419  0.00  0.00    +0.000 C 
ATOM     20  C   UNL     1      11.883  15.202  19.729  0.00  0.00    +0.000 C 
ENDBRANCH  12  19
ENDBRANCH   1  15
TORSDOF 3
ENDMDL
MODEL 7
REMARK VINA RESULT:      -7.3      1.641      2.060
REMARK  Name = 
REMARK  5 active torsions:
REMARK  status: ('A' for Active; 'I' for Inactive)
REMARK    1  A    between atoms: C_1  and  C_2
REMARK    2  A    between atoms: C_2  and  C_3
REMARK    3  A    between atoms: C_2  and  C_4
REMARK    4  A    between atoms: C_7  and  C_8
REMARK    5  A    between atoms: C_9  and  C_10
REMARK                            x       y       z     vdW  Elec       q    Type
REMARK                         _______ _______ _______ _____ _____    ______ ____
ROOT
ATOM      1  C   UNL     1       8.488   9.198  18.159  0.00  0.00    +0.000 C 
ATOM      2  C   UNL     1       7.977   8.192  17.750  0.00  0.00    +0.000 C 
ENDROOT
BRANCH   2   3
ATOM      3  C   UNL     1       7.195   7.059  17.297  0.00  0.00    +0.000 C 
ATOM      4  O   UNL     1       7.517   6.559  16.232  0.00  0.00    +0.000 OA
ATOM      5  N   UNL     1       6.111   6.708  18.071  0.00  0.00    +0.000 N 
ATOM      6  C   UNL     1       5.214   5.711  17.812  0.00  0.00    +0.000 C 
ATOM      7  N   UNL     1       4.010   5.806  18.253  0.00  0.00    +0.000 NA
ATOM      8  C   UNL     1       3.236   4.605  17.865  0.00  0.00    +0.000 C 
ATOM      9  C   UNL     1       3.949   3.805  16.784  0.00  0.00    +0.000 C 
ATOM     10  S   UNL     1       5.670   4.279  16.956  0.00  0.00    +0.000 S 
ATOM     11  H   UNL     1       5.799   7.372  18.763  0.00  0.00    +0.000 HD
ENDBRANCH   2   3
BRANCH   1  15
ATOM     12  C   UNL     1      10.122  12.855  19.596  0.00  0.00    +0.000 A 
ATOM     13  C   UNL     1      10.156  11.696  20.386  0.00  0.00    +0.000 A 
ATOM     14  C   UNL     1       9.613  10.494  19.915  0.00  0.00    +0.000 A 
ATOM     15  C   UNL     1       9.016  10.434  18.659  0.00  0.00    +0.000 A 
ATOM     16  C   UNL     1       8.919  11.593  17.890  0.00  0.00    +0.000 A 
ATOM     17  C   UNL     1       9.465  12.796  18.357  0.00  0.00    +0.000 A 
BRANCH  12  19
ATOM     18  C   UNL     1      10.792  15.199  18.984  0.00  0.00    +0.000 C 
ATOM     19  C   UNL     1      10.855  14.107  20.059  0.00  0.00    +0.000 C 
ATOM     20  C   UNL     1      10.330  14.665  21.382  0.00  0.00    +0.000 C 
ENDBRANCH  12  19
ENDBRANCH   1  15
TORSDOF 3
ENDMDL
MODEL 8
REMARK VINA RESULT:      -7.2      1.698      1.988
REMARK  Name = 
REMARK  5 active torsions:
REMARK  status: ('A' for Active; 'I' for Inactive)
REMARK    1  A    between atoms: C_1  and  C_2
REMARK    2  A    between atoms: C_2  and  C_3
REMARK    3  A    between atoms: C_2  and  C_4
REMARK    4  A    between atoms: C_7  and  C_8
REMARK    5  A    between atoms: C_9  and  C_10
REMARK                            x       y       z     vdW  Elec       q    Type
REMARK                         _______ _______ _______ _____ _____    ______ ____
ROOT
ATOM      1  C   UNL     1       8.294   9.302  17.941  0.00  0.00    +0.000 C 
ATOM      2  C   UNL     1       7.769   8.287  17.574  0.00  0.00    +0.000 C 
ENDROOT
BRANCH   2   3
ATOM      3  C   UNL     1       7.056   7.055  17.302  0.00  0.00    +0.000 C 
ATOM      4  O   UNL     1       7.573   6.283  16.509  0.00  0.00    +0.000 OA
ATOM      5  N   UNL     1       5.823   6.909  17.899  0.00  0.00    +0.000 N 
ATOM      6  C   UNL     1       4.964   5.858  17.746  0.00  0.00    +0.000 C 
ATOM      7  N   UNL     1       3.698   6.046  17.882  0.00  0.00    +0.000 NA
ATOM      8  C   UNL     1       2.978   4.766  17.691  0.00  0.00    +0.000 C 
ATOM      9  C   UNL     1       3.869   3.712  17.050  0.00  0.00    +0.000 C 
ATOM     10  S   UNL     1       5.533   4.255  17.438  0.00  0.00    +0.000 S 
ATOM     11  H   UNL     1       5.400   7.733  18.297  0.00  0.00    +0.000 HD
ENDBRANCH   2   3
BRANCH   1  15
ATOM     12  C   UNL     1       9.949  12.891  19.519  0.00  0.00    +0.000 A 
ATOM     13  C   UNL     1       9.340  12.878  18.255  0.00  0.00    +0.000 A 
ATOM     14  C   UNL     1       8.800  11.695  17.734  0.00  0.00    +0.000 A 
ATOM     15  C   UNL     1       8.874  10.507  18.457  0.00  0.00    +0.000 A 
ATOM     16  C   UNL     1       9.532  10.493  19.685  0.00  0.00    +0.000 A 
ATOM     17  C   UNL     1      10.068  11.675  20.211  0.00  0.00    +0.000 A 
BRANCH  12  19
ATOM     18  C   UNL     1      10.112  14.225  21.643  0.00  0.00    +0.000 C 
ATOM     19  C   UNL     1      10.386  14.213  20.134  0.00  0.00    +0.000 C 
ATOM     20  C   UNL     1      11.856  14.545  19.880  0.00  0.00    +0.000 C 
ENDBRANCH  12  19
ENDBRANCH   1  15
TORSDOF 3
ENDMDL
MODEL 9
REMARK VINA RESULT:      -7.2      3.691      8.876
REMARK  Name = 
REMARK  5 active torsions:
REMARK  status: ('A' for Active; 'I' for Inactive)
REMARK    1  A    between atoms: C_1  and  C_2
REMARK    2  A    between atoms: C_2  and  C_3
REMARK    3  A    between atoms: C_2  and  C_4
REMARK    4  A    between atoms: C_7  and  C_8
REMARK    5  A    between atoms: C_9  and  C_10
REMARK                            x       y       z     vdW  Elec       q    Type
REMARK                         _______ _______ _______ _____ _____    ______ ____
ROOT
ATOM      1  C   UNL     1       8.437   8.612  18.474  0.00  0.00    +0.000 C 
ATOM      2  C   UNL     1       9.009   9.618  18.792  0.00  0.00    +0.000 C 
ENDROOT
BRANCH   2   3
ATOM      3  C   UNL     1       9.602  10.917  19.038  0.00  0.00    +0.000 C 
ATOM      4  O   UNL     1       9.373  11.430  20.122  0.00  0.00    +0.000 OA
ATOM      5  N   UNL     1      10.297  11.487  17.995  0.00  0.00    +0.000 N 
ATOM      6  C   UNL     1      10.894  12.716  17.989  0.00  0.00    +0.000 C 
ATOM      7  N   UNL     1      11.027  13.355  16.880  0.00  0.00    +0.000 NA
ATOM      8  C   UNL     1      11.714  14.644  17.122  0.00  0.00    +0.000 C 
ATOM      9  C   UNL     1      11.733  14.999  18.601  0.00  0.00    +0.000 C 
ATOM     10  S   UNL     1      11.540  13.420  19.430  0.00  0.00    +0.000 S 
ATOM     11  H   UNL     1      10.171  11.087  17.078  0.00  0.00    +0.000 HD
ENDBRANCH   2   3
BRANCH   1  15
ATOM     12  C   UNL     1       6.325   5.172  17.125  0.00  0.00    +0.000 A 
ATOM     13  C   UNL     1       6.023   6.444  16.615  0.00  0.00    +0.000 A 
ATOM     14  C   UNL     1       6.715   7.577  17.063  0.00  0.00    +0.000 A 
ATOM     15  C   UNL     1       7.704   7.460  18.036  0.00  0.00    +0.000 A 
ATOM     16  C   UNL     1       7.970   6.212  18.597  0.00  0.00    +0.000 A 
ATOM     17  C   UNL     1       7.283   5.077  18.147  0.00  0.00    +0.000 A 
BRANCH  12  19
ATOM     18  C   UNL     1       4.179   3.896  16.842  0.00  0.00    +0.000 C 
ATOM     19  C   UNL     1       5.676   3.939  16.513  0.00  0.00    +0.000 C 
ATOM     20  C   UNL     1       5.868   3.838  15.000  0.00  0.00    +0.000 C 
ENDBRANCH  12  19
ENDBRANCH   1  15
TORSDOF 3
ENDMDL
