MODEL 1
REMARK VINA RESULT:      -7.6      0.000      0.000
REMARK  Name = 
REMARK  10 active torsions:
REMARK  status: ('A' for Active; 'I' for Inactive)
REMARK    1  A    between atoms: C_1  and  O_2
REMARK    2  A    between atoms: O_2  and  C_3
REMARK    3  A    between atoms: C_6  and  C_7
REMARK    4  A    between atoms: N_9  and  C_10
REMARK    5  A    between atoms: C_10  and  N_12
REMARK    6  A    between atoms: N_12  and  C_13
REMARK    7  A    between atoms: C_16  and  C_17
REMARK    8  A    between atoms: C_17  and  N_18
REMARK    9  A    between atoms: C_27  and  O_28
REMARK   10  A    between atoms: O_28  and  C_29
REMARK                            x       y       z     vdW  Elec       q    Type
REMARK                         _______ _______ _______ _____ _____    ______ ____
ROOT
ATOM      1  C   UNL     1       2.321   5.819  20.223  0.00  0.00    +0.000 C 
ATOM      2  S   UNL     1       1.510   4.415  20.626  0.00  0.00    +0.000 S 
ENDROOT
BRANCH   1   5
ATOM      3  C   UNL     1       3.302   5.178  18.013  0.00  0.00    +0.000 C 
ATOM      4  O   UNL     1       2.243   4.853  17.478  0.00  0.00    +0.000 OA
ATOM      5  N   UNL     1       3.358   5.674  19.308  0.00  0.00    +0.000 N 
ATOM      6  H   UNL     1       4.238   5.986  19.686  0.00  0.00    +0.000 HD
BRANCH   3  10
ATOM      7  C   UNL     1       6.803   4.897  15.510  0.00  0.00    +0.000 A 
ATOM      8  C   UNL     1       5.837   3.885  15.546  0.00  0.00    +0.000 A 
ATOM      9  C   UNL     1       4.727   3.991  16.382  0.00  0.00    +0.000 A 
ATOM     10  C   UNL     1       4.574   5.093  17.231  0.00  0.00    +0.000 A 
ATOM     11  C   UNL     1       5.596   6.049  17.273  0.00  0.00    +0.000 A 
ATOM     12  C   UNL     1       6.715   5.959  16.422  0.00  0.00    +0.000 A 
BRANCH   7  14
ATOM     13  C   UNL     1       7.473   4.977  13.245  0.00  0.00    +0.000 C 
ATOM     14  O   UNL     1       7.840   4.835  14.620  0.00  0.00    +0.000 OA
ENDBRANCH   7  14
BRANCH  12  15
ATOM     15  O   UNL     1       7.584   7.001  16.610  0.00  0.00    +0.000 OA
ATOM     16  C   UNL     1       7.660   7.616  17.889  0.00  0.00    +0.000 C 
ENDBRANCH  12  15
ENDBRANCH   3  10
ENDBRANCH   1   5
BRANCH   1  17
ATOM     17  N   UNL     1       2.138   7.101  20.688  0.00  0.00    +0.000 N 
ATOM     18  H   UNL     1       2.530   7.245  21.622  0.00  0.00    +0.000 HD
BRANCH  17  19
ATOM     19  C   UNL     1       1.451   8.219  20.166  0.00  0.00    +0.000 A 
ATOM     20  C   UNL     1       1.704   8.799  18.924  0.00  0.00    +0.000 A 
ATOM     21  C   UNL     1       0.979   9.923  18.490  0.00  0.00    +0.000 A 
ATOM     22  C   UNL     1      -0.013  10.492  19.290  0.00  0.00    +0.000 A 
ATOM     23  C   UNL     1      -0.225   9.940  20.565  0.00  0.00    +0.000 A 
ATOM     24  C   UNL     1       0.503   8.825  20.997  0.00  0.00    +0.000 A 
BRANCH  22  25
ATOM     25  C   UNL     1      -0.782  11.718  18.850  0.00  0.00    +0.000 C 
BRANCH  25  26
ATOM     26  N   UNL     1      -0.300  13.042  19.242  0.00  0.00    +0.000 NA
ATOM     27  C   UNL     1       1.144  13.288  19.149  0.00  0.00    +0.000 C 
ATOM     28  C   UNL     1       1.932  13.006  20.442  0.00  0.00    +0.000 C 
ATOM     29  O   UNL     1       1.350  13.667  21.573  0.00  0.00    +0.000 OA
ATOM     30  C   UNL     1      -0.017  13.272  21.740  0.00  0.00    +0.000 C 
ATOM     31  C   UNL     1      -0.842  13.594  20.488  0.00  0.00    +0.000 C 
ENDBRANCH  25  26
ENDBRANCH  22  25
ENDBRANCH  17  19
ENDBRANCH   1  17
TORSDOF 8
ENDMDL
MODEL 2
REMARK VINA RESULT:      -7.6      1.135      1.273
REMARK  Name = 
REMARK  10 active torsions:
REMARK  status: ('A' for Active; 'I' for Inactive)
REMARK    1  A    between atoms: C_1  and  O_2
REMARK    2  A    between atoms: O_2  and  C_3
REMARK    3  A    between atoms: C_6  and  C_7
REMARK    4  A    between atoms: N_9  and  C_10
REMARK    5  A    between atoms: C_10  and  N_12
REMARK    6  A    between atoms: N_12  and  C_13
REMARK    7  A    between atoms: C_16  and  C_17
REMARK    8  A    between atoms: C_17  and  N_18
REMARK    9  A    between atoms: C_27  and  O_28
REMARK   10  A    between atoms: O_28  and  C_29
REMARK                            x       y       z     vdW  Elec       q    Type
REMARK                         _______ _______ _______ _____ _____    ______ ____
ROOT
ATOM      1  C   UNL     1       2.058   5.378  20.310  0.00  0.00    +0.000 C 
ATOM      2  S   UNL     1       1.133   3.986  20.353  0.00  0.00    +0.000 S 
ENDROOT
BRANCH   1   5
ATOM      3  C   UNL     1       3.088   4.988  18.064  0.00  0.00    +0.000 C 
ATOM      4  O   UNL     1       2.054   4.642  17.493  0.00  0.00    +0.000 OA
ATOM      5  N   UNL     1       3.105   5.375  19.396  0.00  0.00    +0.000 N 
ATOM      6  H   UNL     1       3.962   5.710  19.807  0.00  0.00    +0.000 HD
BRANCH   3  10
ATOM      7  C   UNL     1       6.609   5.162  15.579  0.00  0.00    +0.000 A 
ATOM      8  C   UNL     1       5.673   4.126  15.464  0.00  0.00    +0.000 A 
ATOM      9  C   UNL     1       4.556   4.082  16.297  0.00  0.00    +0.000 A 
ATOM     10  C   UNL     1       4.366   5.050  17.290  0.00  0.00    +0.000 A 
ATOM     11  C   UNL     1       5.357   6.020  17.474  0.00  0.00    +0.000 A 
ATOM     12  C   UNL     1       6.484   6.082  16.630  0.00  0.00    +0.000 A 
BRANCH   7  14
ATOM     13  C   UNL     1       7.368   4.814  13.369  0.00  0.00    +0.000 C 
ATOM     14  O   UNL     1       7.652   5.255  14.699  0.00  0.00    +0.000 OA
ENDBRANCH   7  14
BRANCH  12  15
ATOM     15  O   UNL     1       7.320   7.114  16.969  0.00  0.00    +0.000 OA
ATOM     16  C   UNL     1       7.858   7.163  18.284  0.00  0.00    +0.000 C 
ENDBRANCH  12  15
ENDBRANCH   3  10
ENDBRANCH   1   5
BRANCH   1  17
ATOM     17  N   UNL     1       1.958   6.520  21.071  0.00  0.00    +0.000 N 
ATOM     18  H   UNL     1       2.168   6.359  22.059  0.00  0.00    +0.000 HD
BRANCH  17  19
ATOM     19  C   UNL     1       1.548   7.836  20.769  0.00  0.00    +0.000 A 
ATOM     20  C   UNL     1       1.567   8.404  19.495  0.00  0.00    +0.000 A 
ATOM     21  C   UNL     1       1.154   9.731  19.289  0.00  0.00    +0.000 A 
ATOM     22  C   UNL     1       0.715  10.522  20.353  0.00  0.00    +0.000 A 
ATOM     23  C   UNL     1       0.751   9.965  21.642  0.00  0.00    +0.000 A 
ATOM     24  C   UNL     1       1.170   8.645  21.846  0.00  0.00    +0.000 A 
BRANCH  22  25
ATOM     25  C   UNL     1       0.293  11.960  20.152  0.00  0.00    +0.000 C 
BRANCH  25  26
ATOM     26  N   UNL     1       0.626  12.632  18.896  0.00  0.00    +0.000 NA
ATOM     27  C   UNL     1       2.003  13.110  18.731  0.00  0.00    +0.000 C 
ATOM     28  C   UNL     1       2.237  14.570  19.164  0.00  0.00    +0.000 C 
ATOM     29  O   UNL     1       1.288  15.460  18.563  0.00  0.00    +0.000 OA
ATOM     30  C   UNL     1      -0.050  15.065  18.886  0.00  0.00    +0.000 C 
ATOM     31  C   UNL     1      -0.332  13.633  18.414  0.00  0.00    +0.000 C 
ENDBRANCH  25  26
ENDBRANCH  22  25
ENDBRANCH  17  19
ENDBRANCH   1  17
TORSDOF 8
ENDMDL
MODEL 3
REMARK VINA RESULT:      -7.5      1.339      1.671
REMARK  Name = 
REMARK  10 active torsions:
REMARK  status: ('A' for Active; 'I' for Inactive)
REMARK    1  A    between atoms: C_1  and  O_2
REMARK    2  A    between atoms: O_2  and  C_3
REMARK    3  A    between atoms: C_6  and  C_7
REMARK    4  A    between atoms: N_9  and  C_10
REMARK    5  A    between atoms: C_10  and  N_12
REMARK    6  A    between atoms: N_12  and  C_13
REMARK    7  A    between atoms: C_16  and  C_17
REMARK    8  A    between atoms: C_17  and  N_18
REMARK    9  A    between atoms: C_27  and  O_28
REMARK   10  A    between atoms: O_28  and  C_29
REMARK                            x       y       z     vdW  Elec       q    Type
REMARK                         _______ _______ _______ _____ _____    ______ ____
ROOT
ATOM      1  C   UNL     1       2.134   5.279  19.931  0.00  0.00    +0.000 C 
ATOM      2  S   UNL     1       1.105   3.962  19.917  0.00  0.00    +0.000 S 
ENDROOT
BRANCH   1   5
ATOM      3  C   UNL     1       4.247   4.433  18.893  0.00  0.00    +0.000 C 
ATOM      4  O   UNL     1       4.434   3.511  19.686  0.00  0.00    +0.000 OA
ATOM      5  N   UNL     1       3.139   5.266  18.971  0.00  0.00    +0.000 N 
ATOM      6  H   UNL     1       2.993   5.970  18.265  0.00  0.00    +0.000 HD
BRANCH   3  10
ATOM      7  C   UNL     1       6.790   5.059  15.466  0.00  0.00    +0.000 A 
ATOM      8  C   UNL     1       5.830   4.041  15.498  0.00  0.00    +0.000 A 
ATOM      9  C   UNL     1       5.038   3.846  16.629  0.00  0.00    +0.000 A 
ATOM     10  C   UNL     1       5.211   4.639  17.769  0.00  0.00    +0.000 A 
ATOM     11  C   UNL     1       6.245   5.582  17.774  0.00  0.00    +0.000 A 
ATOM     12  C   UNL     1       7.043   5.797  16.632  0.00  0.00    +0.000 A 
BRANCH   7  14
ATOM     13  C   UNL     1       7.068   4.584  13.169  0.00  0.00    +0.000 C 
ATOM     14  O   UNL     1       7.499   5.309  14.324  0.00  0.00    +0.000 OA
ENDBRANCH   7  14
BRANCH  12  15
ATOM     15  O   UNL     1       7.981   6.774  16.842  0.00  0.00    +0.000 OA
ATOM     16  C   UNL     1       7.583   7.994  17.451  0.00  0.00    +0.000 C 
ENDBRANCH  12  15
ENDBRANCH   3  10
ENDBRANCH   1   5
BRANCH   1  17
ATOM     17  N   UNL     1       2.156   6.364  20.776  0.00  0.00    +0.000 N 
ATOM     18  H   UNL     1       2.569   6.151  21.686  0.00  0.00    +0.000 HD
BRANCH  17  19
ATOM     19  C   UNL     1       1.651   7.677  20.658  0.00  0.00    +0.000 A 
ATOM     20  C   UNL     1       1.001   8.375  21.676  0.00  0.00    +0.000 A 
ATOM     21  C   UNL     1       0.517   9.677  21.465  0.00  0.00    +0.000 A 
ATOM     22  C   UNL     1       0.667  10.310  20.230  0.00  0.00    +0.000 A 
ATOM     23  C   UNL     1       1.271   9.582  19.190  0.00  0.00    +0.000 A 
ATOM     24  C   UNL     1       1.747   8.283  19.401  0.00  0.00    +0.000 A 
BRANCH  22  25
ATOM     25  C   UNL     1       0.126  11.700  19.978  0.00  0.00    +0.000 C 
BRANCH  25  26
ATOM     26  N   UNL     1       0.625  12.463  18.834  0.00  0.00    +0.000 NA
ATOM     27  C   UNL     1       2.002  12.964  18.908  0.00  0.00    +0.000 C 
ATOM     28  C   UNL     1       2.141  14.391  19.471  0.00  0.00    +0.000 C 
ATOM     29  O   UNL     1       1.272  15.314  18.800  0.00  0.00    +0.000 OA
ATOM     30  C   UNL     1      -0.090  14.883  18.895  0.00  0.00    +0.000 C 
ATOM     31  C   UNL     1      -0.272  13.487  18.288  0.00  0.00    +0.000 C 
ENDBRANCH  25  26
ENDBRANCH  22  25
ENDBRANCH  17  19
ENDBRANCH   1  17
TORSDOF 8
ENDMDL
MODEL 4
REMARK VINA RESULT:      -7.5      1.314      2.031
REMARK  Name = 
REMARK  10 active torsions:
REMARK  status: ('A' for Active; 'I' for Inactive)
REMARK    1  A    between atoms: C_1  and  O_2
REMARK    2  A    between atoms: O_2  and  C_3
REMARK    3  A    between atoms: C_6  and  C_7
REMARK    4  A    between atoms: N_9  and  C_10
REMARK    5  A    between atoms: C_10  and  N_12
REMARK    6  A    between atoms: N_12  and  C_13
REMARK    7  A    between atoms: C_16  and  C_17
REMARK    8  A    between atoms: C_17  and  N_18
REMARK    9  A    between atoms: C_27  and  O_28
REMARK   10  A    between atoms: O_28  and  C_29
REMARK                            x       y       z     vdW  Elec       q    Type
REMARK                         _______ _______ _______ _____ _____    ______ ____
ROOT
ATOM      1  C   UNL     1       2.808   4.205  19.921  0.00  0.00    +0.000 C 
ATOM      2  S   UNL     1       2.357   2.609  20.122  0.00  0.00    +0.000 S 
ENDROOT
BRANCH   1   5
ATOM      3  C   UNL     1       3.764   4.105  17.612  0.00  0.00    +0.000 C 
ATOM      4  O   UNL     1       2.784   3.590  17.075  0.00  0.00    +0.000 OA
ATOM      5  N   UNL     1       3.784   4.438  18.959  0.00  0.00    +0.000 N 
ATOM      6  H   UNL     1       4.584   4.915  19.344  0.00  0.00    +0.000 HD
BRANCH   3  10
ATOM      7  C   UNL     1       7.034   5.094  14.979  0.00  0.00    +0.000 A 
ATOM      8  C   UNL     1       6.189   4.006  14.731  0.00  0.00    +0.000 A 
ATOM      9  C   UNL     1       5.154   3.695  15.612  0.00  0.00    +0.000 A 
ATOM     10  C   UNL     1       4.962   4.440  16.782  0.00  0.00    +0.000 A 
ATOM     11  C   UNL     1       5.875   5.457  17.081  0.00  0.00    +0.000 A 
ATOM     12  C   UNL     1       6.916   5.789  16.192  0.00  0.00    +0.000 A 
BRANCH   7  14
ATOM     13  C   UNL     1       7.705   5.086  12.714  0.00  0.00    +0.000 C 
ATOM     14  O   UNL     1       7.987   5.455  14.066  0.00  0.00    +0.000 OA
ENDBRANCH   7  14
BRANCH  12  15
ATOM     15  O   UNL     1       7.683   6.822  16.665  0.00  0.00    +0.000 OA
ATOM     16  C   UNL     1       7.665   7.114  18.056  0.00  0.00    +0.000 C 
ENDBRANCH  12  15
ENDBRANCH   3  10
ENDBRANCH   1   5
BRANCH   1  17
ATOM     17  N   UNL     1       2.379   5.328  20.593  0.00  0.00    +0.000 N 
ATOM     18  H   UNL     1       2.190   5.151  21.582  0.00  0.00    +0.000 HD
BRANCH  17  19
ATOM     19  C   UNL     1       2.078   6.639  20.167  0.00  0.00    +0.000 A 
ATOM     20  C   UNL     1       1.412   7.593  20.936  0.00  0.00    +0.000 A 
ATOM     21  C   UNL     1       1.141   8.873  20.424  0.00  0.00    +0.000 A 
ATOM     22  C   UNL     1       1.526   9.227  19.130  0.00  0.00    +0.000 A 
ATOM     23  C   UNL     1       2.145   8.246  18.338  0.00  0.00    +0.000 A 
ATOM     24  C   UNL     1       2.409   6.969  18.848  0.00  0.00    +0.000 A 
BRANCH  22  25
ATOM     25  C   UNL     1       1.216  10.592  18.555  0.00  0.00    +0.000 C 
BRANCH  25  26
ATOM     26  N   UNL     1       1.043  11.726  19.462  0.00  0.00    +0.000 NA
ATOM     27  C   UNL     1      -0.299  12.312  19.559  0.00  0.00    +0.000 C 
ATOM     28  C   UNL     1      -0.560  13.490  18.602  0.00  0.00    +0.000 C 
ATOM     29  O   UNL     1       0.466  14.488  18.696  0.00  0.00    +0.000 OA
ATOM     30  C   UNL     1       1.751  13.916  18.425  0.00  0.00    +0.000 C 
ATOM     31  C   UNL     1       2.065  12.776  19.401  0.00  0.00    +0.000 C 
ENDBRANCH  25  26
ENDBRANCH  22  25
ENDBRANCH  17  19
ENDBRANCH   1  17
TORSDOF 8
ENDMDL
MODEL 5
REMARK VINA RESULT:      -7.4      1.704      2.369
REMARK  Name = 
REMARK  10 active torsions:
REMARK  status: ('A' for Active; 'I' for Inactive)
REMARK    1  A    between atoms: C_1  and  O_2
REMARK    2  A    between atoms: O_2  and  C_3
REMARK    3  A    between atoms: C_6  and  C_7
REMARK    4  A    between atoms: N_9  and  C_10
REMARK    5  A    between atoms: C_10  and  N_12
REMARK    6  A    between atoms: N_12  and  C_13
REMARK    7  A    between atoms: C_16  and  C_17
REMARK    8  A    between atoms: C_17  and  N_18
REMARK    9  A    between atoms: C_27  and  O_28
REMARK   10  A    between atoms: O_28  and  C_29
REMARK                            x       y       z     vdW  Elec       q    Type
REMARK                         _______ _______ _______ _____ _____    ______ ____
ROOT
ATOM      1  C   UNL     1       3.312   3.741  19.815  0.00  0.00    +0.000 C 
ATOM      2  S   UNL     1       3.738   2.436  20.767  0.00  0.00    +0.000 S 
ENDROOT
BRANCH   1   5
ATOM      3  C   UNL     1       4.077   3.876  17.437  0.00  0.00    +0.000 C 
ATOM      4  O   UNL     1       3.049   3.423  16.933  0.00  0.00    +0.000 OA
ATOM      5  N   UNL     1       4.210   4.068  18.805  0.00  0.00    +0.000 N 
ATOM      6  H   UNL     1       5.045   4.498  19.170  0.00  0.00    +0.000 HD
BRANCH   3  10
ATOM      7  C   UNL     1       7.138   5.093  14.652  0.00  0.00    +0.000 A 
ATOM      8  C   UNL     1       6.318   3.983  14.412  0.00  0.00    +0.000 A 
ATOM      9  C   UNL     1       5.353   3.598  15.341  0.00  0.00    +0.000 A 
ATOM     10  C   UNL     1       5.207   4.289  16.549  0.00  0.00    +0.000 A 
ATOM     11  C   UNL     1       6.100   5.328  16.835  0.00  0.00    +0.000 A 
ATOM     12  C   UNL     1       7.070   5.734  15.898  0.00  0.00    +0.000 A 
BRANCH   7  14
ATOM     13  C   UNL     1       7.723   5.107  12.363  0.00  0.00    +0.000 C 
ATOM     14  O   UNL     1       8.018   5.525  13.699  0.00  0.00    +0.000 OA
ENDBRANCH   7  14
BRANCH  12  15
ATOM     15  O   UNL     1       7.827   6.777  16.366  0.00  0.00    +0.000 OA
ATOM     16  C   UNL     1       7.477   7.383  17.603  0.00  0.00    +0.000 C 
ENDBRANCH  12  15
ENDBRANCH   3  10
ENDBRANCH   1   5
BRANCH   1  17
ATOM     17  N   UNL     1       2.216   4.569  19.902  0.00  0.00    +0.000 N 
ATOM     18  H   UNL     1       1.360   4.069  20.153  0.00  0.00    +0.000 HD
BRANCH  17  19
ATOM     19  C   UNL     1       2.032   5.943  19.637  0.00  0.00    +0.000 A 
ATOM     20  C   UNL     1       2.214   6.544  18.392  0.00  0.00    +0.000 A 
ATOM     21  C   UNL     1       2.022   7.926  18.222  0.00  0.00    +0.000 A 
ATOM     22  C   UNL     1       1.647   8.738  19.294  0.00  0.00    +0.000 A 
ATOM     23  C   UNL     1       1.521   8.138  20.558  0.00  0.00    +0.000 A 
ATOM     24  C   UNL     1       1.719   6.762  20.726  0.00  0.00    +0.000 A 
BRANCH  22  25
ATOM     25  C   UNL     1       1.464  10.231  19.134  0.00  0.00    +0.000 C 
BRANCH  25  26
ATOM     26  N   UNL     1       0.233  10.855  19.617  0.00  0.00    +0.000 NA
ATOM     27  C   UNL     1      -1.037  10.298  19.138  0.00  0.00    +0.000 C 
ATOM     28  C   UNL     1      -1.606  10.977  17.877  0.00  0.00    +0.000 C 
ATOM     29  O   UNL     1      -1.669  12.402  18.025  0.00  0.00    +0.000 OA
ATOM     30  C   UNL     1      -0.374  12.936  18.324  0.00  0.00    +0.000 C 
ATOM     31  C   UNL     1       0.194  12.321  19.608  0.00  0.00    +0.000 C 
ENDBRANCH  25  26
ENDBRANCH  22  25
ENDBRANCH  17  19
ENDBRANCH   1  17
TORSDOF 8
ENDMDL
MODEL 6
REMARK VINA RESULT:      -7.4      1.842      2.302
REMARK  Name = 
REMARK  10 active torsions:
REMARK  status: ('A' for Active; 'I' for Inactive)
REMARK    1  A    between atoms: C_1  and  O_2
REMARK    2  A    between atoms: O_2  and  C_3
REMARK    3  A    between atoms: C_6  and  C_7
REMARK    4  A    between atoms: N_9  and  C_10
REMARK    5  A    between atoms: C_10  and  N_12
REMARK    6  A    between atoms: N_12  and  C_13
REMARK    7  A    between atoms: C_16  and  C_17
REMARK    8  A    between atoms: C_17  and  N_18
REMARK    9  A    between atoms: C_27  and  O_28
REMARK   10  A    between atoms: O_28  and  C_29
REMARK                            x       y       z     vdW  Elec       q    Type
REMARK                         _______ _______ _______ _____ _____    ______ ____
ROOT
ATOM      1  C   UNL     1       2.247   4.633  19.878  0.00  0.00    +0.000 C 
ATOM      2  S   UNL     1       1.470   3.157  19.970  0.00  0.00    +0.000 S 
ENDROOT
BRANCH   1   5
ATOM      3  C   UNL     1       4.506   4.186  18.902  0.00  0.00    +0.000 C 
ATOM      4  O   UNL     1       4.904   3.445  19.801  0.00  0.00    +0.000 OA
ATOM      5  N   UNL     1       3.232   4.735  18.902  0.00  0.00    +0.000 N 
ATOM      6  H   UNL     1       2.926   5.287  18.117  0.00  0.00    +0.000 HD
BRANCH   3  10
ATOM      7  C   UNL     1       6.836   5.002  15.365  0.00  0.00    +0.000 A 
ATOM      8  C   UNL     1       5.988   3.891  15.452  0.00  0.00    +0.000 A 
ATOM      9  C   UNL     1       5.265   3.638  16.617  0.00  0.00    +0.000 A 
ATOM     10  C   UNL     1       5.399   4.468  17.736  0.00  0.00    +0.000 A 
ATOM     11  C   UNL     1       6.329   5.512  17.684  0.00  0.00    +0.000 A 
ATOM     12  C   UNL     1       7.055   5.785  16.508  0.00  0.00    +0.000 A 
BRANCH   7  14
ATOM     13  C   UNL     1       7.049   4.533  13.059  0.00  0.00    +0.000 C 
ATOM     14  O   UNL     1       7.470   5.300  14.190  0.00  0.00    +0.000 OA
ENDBRANCH   7  14
BRANCH  12  15
ATOM     15  O   UNL     1       7.894   6.858  16.663  0.00  0.00    +0.000 OA
ATOM     16  C   UNL     1       7.518   7.907  17.545  0.00  0.00    +0.000 C 
ENDBRANCH  12  15
ENDBRANCH   3  10
ENDBRANCH   1   5
BRANCH   1  17
ATOM     17  N   UNL     1       2.081   5.760  20.651  0.00  0.00    +0.000 N 
ATOM     18  H   UNL     1       2.181   5.574  21.651  0.00  0.00    +0.000 HD
BRANCH  17  19
ATOM     19  C   UNL     1       1.724   7.089  20.338  0.00  0.00    +0.000 A 
ATOM     20  C   UNL     1       2.089   7.758  19.170  0.00  0.00    +0.000 A 
ATOM     21  C   UNL     1       1.701   9.090  18.948  0.00  0.00    +0.000 A 
ATOM     22  C   UNL     1       0.940   9.784  19.891  0.00  0.00    +0.000 A 
ATOM     23  C   UNL     1       0.623   9.127  21.091  0.00  0.00    +0.000 A 
ATOM     24  C   UNL     1       1.018   7.802  21.313  0.00  0.00    +0.000 A 
BRANCH  22  25
ATOM     25  C   UNL     1       0.538  11.227  19.679  0.00  0.00    +0.000 C 
BRANCH  25  26
ATOM     26  N   UNL     1      -0.328  11.568  18.551  0.00  0.00    +0.000 NA
ATOM     27  C   UNL     1      -1.288  12.661  18.744  0.00  0.00    +0.000 C 
ATOM     28  C   UNL     1      -2.683  12.219  19.226  0.00  0.00    +0.000 C 
ATOM     29  O   UNL     1      -3.221  11.175  18.403  0.00  0.00    +0.000 OA
ATOM     30  C   UNL     1      -2.336  10.049  18.374  0.00  0.00    +0.000 C 
ATOM     31  C   UNL     1      -0.954  10.447  17.843  0.00  0.00    +0.000 C 
ENDBRANCH  25  26
ENDBRANCH  22  25
ENDBRANCH  17  19
ENDBRANCH   1  17
TORSDOF 8
ENDMDL
MODEL 7
REMARK VINA RESULT:      -7.4      1.410      1.875
REMARK  Name = 
REMARK  10 active torsions:
REMARK  status: ('A' for Active; 'I' for Inactive)
REMARK    1  A    between atoms: C_1  and  O_2
REMARK    2  A    between atoms: O_2  and  C_3
REMARK    3  A    between atoms: C_6  and  C_7
REMARK    4  A    between atoms: N_9  and  C_10
REMARK    5  A    between atoms: C_10  and  N_12
REMARK    6  A    between atoms: N_12  and  C_13
REMARK    7  A    between atoms: C_16  and  C_17
REMARK    8  A    between atoms: C_17  and  N_18
REMARK    9  A    between atoms: C_27  and  O_28
REMARK   10  A    between atoms: O_28  and  C_29
REMARK                            x       y       z     vdW  Elec       q    Type
REMARK                         _______ _______ _______ _____ _____    ______ ____
ROOT
ATOM      1  C   UNL     1       3.106   3.948  20.017  0.00  0.00    +0.000 C 
ATOM      2  S   UNL     1       3.389   2.524  20.844  0.00  0.00    +0.000 S 
ENDROOT
BRANCH   1   5
ATOM      3  C   UNL     1       4.054   3.767  17.710  0.00  0.00    +0.000 C 
ATOM      4  O   UNL     1       3.189   3.015  17.261  0.00  0.00    +0.000 OA
ATOM      5  N   UNL     1       4.015   4.250  19.010  0.00  0.00    +0.000 N 
ATOM      6  H   UNL     1       4.710   4.912  19.318  0.00  0.00    +0.000 HD
BRANCH   3  10
ATOM      7  C   UNL     1       7.044   5.118  14.910  0.00  0.00    +0.000 A 
ATOM      8  C   UNL     1       6.244   3.997  14.654  0.00  0.00    +0.000 A 
ATOM      9  C   UNL     1       5.302   3.569  15.588  0.00  0.00    +0.000 A 
ATOM     10  C   UNL     1       5.162   4.226  16.816  0.00  0.00    +0.000 A 
ATOM     11  C   UNL     1       6.037   5.276  17.113  0.00  0.00    +0.000 A 
ATOM     12  C   UNL     1       6.984   5.726  16.172  0.00  0.00    +0.000 A 
BRANCH   7  14
ATOM     13  C   UNL     1       7.725   5.035  12.649  0.00  0.00    +0.000 C 
ATOM     14  O   UNL     1       7.900   5.592  13.954  0.00  0.00    +0.000 OA
ENDBRANCH   7  14
BRANCH  12  15
ATOM     15  O   UNL     1       7.726   6.773  16.655  0.00  0.00    +0.000 OA
ATOM     16  C   UNL     1       7.660   7.085  18.040  0.00  0.00    +0.000 C 
ENDBRANCH  12  15
ENDBRANCH   3  10
ENDBRANCH   1   5
BRANCH   1  17
ATOM     17  N   UNL     1       2.121   4.890  20.208  0.00  0.00    +0.000 N 
ATOM     18  H   UNL     1       1.316   4.526  20.723  0.00  0.00    +0.000 HD
BRANCH  17  19
ATOM     19  C   UNL     1       1.974   6.222  19.765  0.00  0.00    +0.000 A 
ATOM     20  C   UNL     1       2.312   6.679  18.491  0.00  0.00    +0.000 A 
ATOM     21  C   UNL     1       2.145   8.030  18.140  0.00  0.00    +0.000 A 
ATOM     22  C   UNL     1       1.640   8.954  19.056  0.00  0.00    +0.000 A 
ATOM     23  C   UNL     1       1.354   8.502  20.355  0.00  0.00    +0.000 A 
ATOM     24  C   UNL     1       1.528   7.157  20.704  0.00  0.00    +0.000 A 
BRANCH  22  25
ATOM     25  C   UNL     1       1.481  10.417  18.703  0.00  0.00    +0.000 C 
BRANCH  25  26
ATOM     26  N   UNL     1       0.551  11.240  19.475  0.00  0.00    +0.000 NA
ATOM     27  C   UNL     1      -0.478  11.974  18.730  0.00  0.00    +0.000 C 
ATOM     28  C   UNL     1      -0.088  13.411  18.333  0.00  0.00    +0.000 C 
ATOM     29  O   UNL     1       0.393  14.159  19.458  0.00  0.00    +0.000 OA
ATOM     30  C   UNL     1       1.511  13.500  20.062  0.00  0.00    +0.000 C 
ATOM     31  C   UNL     1       1.137  12.085  20.521  0.00  0.00    +0.000 C 
ENDBRANCH  25  26
ENDBRANCH  22  25
ENDBRANCH  17  19
ENDBRANCH   1  17
TORSDOF 8
ENDMDL
MODEL 8
REMARK VINA RESULT:      -7.4      3.958      9.939
REMARK  Name = 
REMARK  10 active torsions:
REMARK  status: ('A' for Active; 'I' for Inactive)
REMARK    1  A    between atoms: C_1  and  O_2
REMARK    2  A    between atoms: O_2  and  C_3
REMARK    3  A    between atoms: C_6  and  C_7
REMARK    4  A    between atoms: N_9  and  C_10
REMARK    5  A    between atoms: C_10  and  N_12
REMARK    6  A    between atoms: N_12  and  C_13
REMARK    7  A    between atoms: C_16  and  C_17
REMARK    8  A    between atoms: C_17  and  N_18
REMARK    9  A    between atoms: C_27  and  O_28
REMARK   10  A    between atoms: O_28  and  C_29
REMARK                            x       y       z     vdW  Elec       q    Type
REMARK                         _______ _______ _______ _____ _____    ______ ____
ROOT
ATOM      1  C   UNL     1       1.152  10.409  18.586  0.00  0.00    +0.000 C 
ATOM      2  S   UNL     1       2.274  11.526  18.051  0.00  0.00    +0.000 S 
ENDROOT
BRANCH   1   5
ATOM      3  C   UNL     1      -1.229  10.999  19.073  0.00  0.00    +0.000 C 
ATOM      4  O   UNL     1      -1.088  11.170  20.283  0.00  0.00    +0.000 OA
ATOM      5  N   UNL     1      -0.169  10.670  18.241  0.00  0.00    +0.000 N 
ATOM      6  H   UNL     1      -0.317  10.600  17.247  0.00  0.00    +0.000 HD
BRANCH   3  10
ATOM      7  C   UNL     1      -5.088  11.886  17.361  0.00  0.00    +0.000 A 
ATOM      8  C   UNL     1      -4.774  12.212  18.686  0.00  0.00    +0.000 A 
ATOM      9  C   UNL     1      -3.527  11.892  19.221  0.00  0.00    +0.000 A 
ATOM     10  C   UNL     1      -2.576  11.205  18.457  0.00  0.00    +0.000 A 
ATOM     11  C   UNL     1      -2.932  10.785  17.171  0.00  0.00    +0.000 A 
ATOM     12  C   UNL     1      -4.184  11.114  16.615  0.00  0.00    +0.000 A 
BRANCH   7  14
ATOM     13  C   UNL     1      -7.233  12.802  17.737  0.00  0.00    +0.000 C 
ATOM     14  O   UNL     1      -6.274  12.286  16.810  0.00  0.00    +0.000 OA
ENDBRANCH   7  14
BRANCH  12  15
ATOM     15  O   UNL     1      -4.324  10.624  15.343  0.00  0.00    +0.000 OA
ATOM     16  C   UNL     1      -3.166  10.204  14.634  0.00  0.00    +0.000 C 
ENDBRANCH  12  15
ENDBRANCH   3  10
ENDBRANCH   1   5
BRANCH   1  17
ATOM     17  N   UNL     1       1.337   9.281  19.352  0.00  0.00    +0.000 N 
ATOM     18  H   UNL     1       0.896   9.349  20.273  0.00  0.00    +0.000 HD
BRANCH  17  19
ATOM     19  C   UNL     1       2.076   8.096  19.146  0.00  0.00    +0.000 A 
ATOM     20  C   UNL     1       2.217   7.072  20.082  0.00  0.00    +0.000 A 
ATOM     21  C   UNL     1       2.985   5.931  19.795  0.00  0.00    +0.000 A 
ATOM     22  C   UNL     1       3.633   5.790  18.566  0.00  0.00    +0.000 A 
ATOM     23  C   UNL     1       3.536   6.849  17.648  0.00  0.00    +0.000 A 
ATOM     24  C   UNL     1       2.775   7.988  17.939  0.00  0.00    +0.000 A 
BRANCH  22  25
ATOM     25  C   UNL     1       4.487   4.582  18.253  0.00  0.00    +0.000 C 
BRANCH  25  26
ATOM     26  N   UNL     1       3.837   3.299  17.985  0.00  0.00    +0.000 NA
ATOM     27  C   UNL     1       2.545   3.331  17.289  0.00  0.00    +0.000 C 
ATOM     28  C   UNL     1       1.314   3.361  18.215  0.00  0.00    +0.000 C 
ATOM     29  O   UNL     1       1.365   2.320  19.199  0.00  0.00    +0.000 OA
ATOM     30  C   UNL     1       2.562   2.421  19.979  0.00  0.00    +0.000 C 
ATOM     31  C   UNL     1       3.808   2.335  19.090  0.00  0.00    +0.000 C 
ENDBRANCH  25  26
ENDBRANCH  22  25
ENDBRANCH  17  19
ENDBRANCH   1  17
TORSDOF 8
ENDMDL
MODEL 9
REMARK VINA RESULT:      -7.4      3.025     10.717
REMARK  Name = 
REMARK  10 active torsions:
REMARK  status: ('A' for Active; 'I' for Inactive)
REMARK    1  A    between atoms: C_1  and  O_2
REMARK    2  A    between atoms: O_2  and  C_3
REMARK    3  A    between atoms: C_6  and  C_7
REMARK    4  A    between atoms: N_9  and  C_10
REMARK    5  A    between atoms: C_10  and  N_12
REMARK    6  A    between atoms: N_12  and  C_13
REMARK    7  A    between atoms: C_16  and  C_17
REMARK    8  A    between atoms: C_17  and  N_18
REMARK    9  A    between atoms: C_27  and  O_28
REMARK   10  A    between atoms: O_28  and  C_29
REMARK                            x       y       z     vdW  Elec       q    Type
REMARK                         _______ _______ _______ _____ _____    ______ ____
ROOT
ATOM      1  C   UNL     1      -0.460  10.479  19.595  0.00  0.00    +0.000 C 
ATOM      2  S   UNL     1      -1.500  10.099  18.343  0.00  0.00    +0.000 S 
ENDROOT
BRANCH   1   5
ATOM      3  C   UNL     1      -0.707  11.429  21.896  0.00  0.00    +0.000 C 
ATOM      4  O   UNL     1       0.074  10.657  22.452  0.00  0.00    +0.000 OA
ATOM      5  N   UNL     1      -0.950  11.383  20.530  0.00  0.00    +0.000 N 
ATOM      6  H   UNL     1      -1.549  12.073  20.107  0.00  0.00    +0.000 HD
BRANCH   3  10
ATOM      7  C   UNL     1      -2.742  14.283  24.410  0.00  0.00    +0.000 A 
ATOM      8  C   UNL     1      -3.404  13.181  23.856  0.00  0.00    +0.000 A 
ATOM      9  C   UNL     1      -2.727  12.287  23.027  0.00  0.00    +0.000 A 
ATOM     10  C   UNL     1      -1.382  12.493  22.701  0.00  0.00    +0.000 A 
ATOM     11  C   UNL     1      -0.754  13.654  23.166  0.00  0.00    +0.000 A 
ATOM     12  C   UNL     1      -1.424  14.556  24.015  0.00  0.00    +0.000 A 
BRANCH   7  14
ATOM     13  C   UNL     1      -4.106  16.188  24.711  0.00  0.00    +0.000 C 
ATOM     14  O   UNL     1      -3.382  15.104  25.297  0.00  0.00    +0.000 OA
ENDBRANCH   7  14
BRANCH  12  15
ATOM     15  O   UNL     1      -0.625  15.613  24.370  0.00  0.00    +0.000 OA
ATOM     16  C   UNL     1      -0.180  16.510  23.362  0.00  0.00    +0.000 C 
ENDBRANCH  12  15
ENDBRANCH   3  10
ENDBRANCH   1   5
BRANCH   1  17
ATOM     17  N   UNL     1       0.829  10.054  19.823  0.00  0.00    +0.000 N 
ATOM     18  H   UNL     1       1.359  10.694  20.418  0.00  0.00    +0.000 HD
BRANCH  17  19
ATOM     19  C   UNL     1       1.575   8.960  19.334  0.00  0.00    +0.000 A 
ATOM     20  C   UNL     1       1.859   7.802  20.058  0.00  0.00    +0.000 A 
ATOM     21  C   UNL     1       2.623   6.766  19.494  0.00  0.00    +0.000 A 
ATOM     22  C   UNL     1       3.124   6.867  18.195  0.00  0.00    +0.000 A 
ATOM     23  C   UNL     1       2.885   8.058  17.490  0.00  0.00    +0.000 A 
ATOM     24  C   UNL     1       2.128   9.091  18.056  0.00  0.00    +0.000 A 
BRANCH  22  25
ATOM     25  C   UNL     1       3.972   5.773  17.585  0.00  0.00    +0.000 C 
BRANCH  25  26
ATOM     26  N   UNL     1       5.157   6.139  16.808  0.00  0.00    +0.000 NA
ATOM     27  C   UNL     1       5.420   5.378  15.582  0.00  0.00    +0.000 C 
ATOM     28  C   UNL     1       6.348   4.161  15.762  0.00  0.00    +0.000 C 
ATOM     29  O   UNL     1       7.560   4.514  16.441  0.00  0.00    +0.000 OA
ATOM     30  C   UNL     1       7.272   5.100  17.716  0.00  0.00    +0.000 C 
ATOM     31  C   UNL     1       6.396   6.350  17.564  0.00  0.00    +0.000 C 
ENDBRANCH  25  26
ENDBRANCH  22  25
ENDBRANCH  17  19
ENDBRANCH   1  17
TORSDOF 8
ENDMDL
