MODEL 1
REMARK VINA RESULT:      -8.0      0.000      0.000
REMARK  Name = 
REMARK  13 active torsions:
REMARK  status: ('A' for Active; 'I' for Inactive)
REMARK    1  A    between atoms: C_1  and  C_2
REMARK    2  A    between atoms: C_4  and  C_5
REMARK    3  A    between atoms: C_8  and  C_9
REMARK    4  A    between atoms: C_11  and  C_12
REMARK    5  A    between atoms: C_18  and  C_19
REMARK    6  A    between atoms: C_18  and  C_20
REMARK    7  A    between atoms: C_23  and  C_24
REMARK    8  A    between atoms: C_25  and  O_26
REMARK    9  A    between atoms: O_26  and  C_27
REMARK   10  A    between atoms: C_27  and  C_28
REMARK   11  A    between atoms: C_28  and  O_29
REMARK   12  A    between atoms: C_28  and  C_30
REMARK   13  A    between atoms: C_30  and  O_31
REMARK                            x       y       z     vdW  Elec       q    Type
REMARK                         _______ _______ _______ _____ _____    ______ ____
ROOT
ATOM      1  C   UNL     1       1.646   9.446  18.628  0.00  0.00    +0.000 A 
ATOM      2  N   UNL     1       2.149  10.598  18.234  0.00  0.00    +0.000 NA
ATOM      3  N   UNL     1       1.195  11.558  18.505  0.00  0.00    +0.000 NA
ATOM      4  C   UNL     1       0.164  10.936  19.052  0.00  0.00    +0.000 A 
ATOM      5  O   UNL     1       0.385   9.578  19.144  0.00  0.00    +0.000 OA
ENDROOT
BRANCH   4   6
ATOM      6  C   UNL     1      -1.009  11.600  19.547  0.00  0.00    +0.000 A 
ATOM      7  S   UNL     1      -2.437  11.743  18.579  0.00  0.00    +0.000 S 
ATOM      8  C   UNL     1      -3.375  12.379  19.875  0.00  0.00    +0.000 A 
ATOM      9  C   UNL     1      -4.823  12.675  19.717  0.00  0.00    +0.000 C 
ATOM     10  C   UNL     1      -2.570  12.561  20.959  0.00  0.00    +0.000 A 
ATOM     11  C   UNL     1      -1.231  12.136  20.796  0.00  0.00    +0.000 A 
ATOM     12  C   UNL     1      -0.455  12.220  22.070  0.00  0.00    +0.000 C 
ATOM     13  C   UNL     1      -1.520  12.619  23.108  0.00  0.00    +0.000 C 
ATOM     14  C   UNL     1      -2.860  12.939  22.393  0.00  0.00    +0.000 C 
ATOM     15  C   UNL     1      -2.123  13.998  23.192  0.00  0.00    +0.000 C 
ATOM     16  C   UNL     1      -2.748  14.385  24.515  0.00  0.00    +0.000 C 
ATOM     17  C   UNL     1      -1.511  15.174  22.470  0.00  0.00    +0.000 C 
ENDBRANCH   4   6
BRANCH   1  21
ATOM     18  C   UNL     1       1.949   5.000  20.770  0.00  0.00    +0.000 C 
ATOM     19  C   UNL     1       2.400   5.865  19.625  0.00  0.00    +0.000 A 
ATOM     20  C   UNL     1       1.867   7.175  19.582  0.00  0.00    +0.000 A 
ATOM     21  C   UNL     1       2.244   8.112  18.611  0.00  0.00    +0.000 A 
ATOM     22  C   UNL     1       3.189   7.722  17.660  0.00  0.00    +0.000 A 
ATOM     23  C   UNL     1       3.737   6.423  17.667  0.00  0.00    +0.000 A 
ATOM     24  C   UNL     1       4.763   6.061  16.623  0.00  0.00    +0.000 C 
ATOM     25  C   UNL     1       3.327   5.480  18.638  0.00  0.00    +0.000 A 
BRANCH  25  26
ATOM     26  O   UNL     1       3.963   4.263  18.540  0.00  0.00    +0.000 OA
BRANCH  26  27
ATOM     27  C   UNL     1       3.288   3.202  17.861  0.00  0.00    +0.000 C 
BRANCH  27  28
ATOM     28  C   UNL     1       3.239   1.939  18.734  0.00  0.00    +0.000 C 
BRANCH  28  29
ATOM     29  O   UNL     1       3.927   0.867  18.076  0.00  0.00    +0.000 OA
ATOM     30  H   UNL     1       4.112   0.194  18.757  0.00  0.00    +0.000 HD
ENDBRANCH  28  29
BRANCH  28  31
ATOM     31  C   UNL     1       3.825   2.150  20.137  0.00  0.00    +0.000 C 
BRANCH  31  32
ATOM     32  O   UNL     1       5.254   2.184  20.110  0.00  0.00    +0.000 OA
ATOM     33  H   UNL     1       5.544   2.160  19.181  0.00  0.00    +0.000 HD
ENDBRANCH  31  32
ENDBRANCH  28  31
ENDBRANCH  27  28
ENDBRANCH  26  27
ENDBRANCH  25  26
ENDBRANCH   1  21
TORSDOF 8
ENDMDL
MODEL 2
REMARK VINA RESULT:      -7.8      3.072      9.751
REMARK  Name = 
REMARK  13 active torsions:
REMARK  status: ('A' for Active; 'I' for Inactive)
REMARK    1  A    between atoms: C_1  and  C_2
REMARK    2  A    between atoms: C_4  and  C_5
REMARK    3  A    between atoms: C_8  and  C_9
REMARK    4  A    between atoms: C_11  and  C_12
REMARK    5  A    between atoms: C_18  and  C_19
REMARK    6  A    between atoms: C_18  and  C_20
REMARK    7  A    between atoms: C_23  and  C_24
REMARK    8  A    between atoms: C_25  and  O_26
REMARK    9  A    between atoms: O_26  and  C_27
REMARK   10  A    between atoms: C_27  and  C_28
REMARK   11  A    between atoms: C_28  and  O_29
REMARK   12  A    between atoms: C_28  and  C_30
REMARK   13  A    between atoms: C_30  and  O_31
REMARK                            x       y       z     vdW  Elec       q    Type
REMARK                         _______ _______ _______ _____ _____    ______ ____
ROOT
ATOM      1  C   UNL     1       0.973  10.173  18.629  0.00  0.00    +0.000 A 
ATOM      2  N   UNL     1       1.773  10.452  17.621  0.00  0.00    +0.000 NA
ATOM      3  N   UNL     1       2.579   9.347  17.438  0.00  0.00    +0.000 NA
ATOM      4  C   UNL     1       2.222   8.453  18.346  0.00  0.00    +0.000 A 
ATOM      5  O   UNL     1       1.208   8.928  19.150  0.00  0.00    +0.000 OA
ENDROOT
BRANCH   4   6
ATOM      6  C   UNL     1       2.776   7.132  18.438  0.00  0.00    +0.000 A 
ATOM      7  S   UNL     1       4.062   6.622  17.398  0.00  0.00    +0.000 S 
ATOM      8  C   UNL     1       4.300   5.143  18.246  0.00  0.00    +0.000 A 
ATOM      9  C   UNL     1       5.386   4.198  17.877  0.00  0.00    +0.000 C 
ATOM     10  C   UNL     1       3.348   5.028  19.214  0.00  0.00    +0.000 A 
ATOM     11  C   UNL     1       2.473   6.133  19.336  0.00  0.00    +0.000 A 
ATOM     12  C   UNL     1       1.564   6.003  20.515  0.00  0.00    +0.000 C 
ATOM     13  C   UNL     1       2.074   4.731  21.218  0.00  0.00    +0.000 C 
ATOM     14  C   UNL     1       3.152   4.041  20.340  0.00  0.00    +0.000 C 
ATOM     15  C   UNL     1       1.849   3.340  20.683  0.00  0.00    +0.000 C 
ATOM     16  C   UNL     1       1.949   2.207  21.681  0.00  0.00    +0.000 C 
ATOM     17  C   UNL     1       0.849   3.066  19.587  0.00  0.00    +0.000 C 
ENDBRANCH   4   6
BRANCH   1  21
ATOM     18  C   UNL     1      -3.719  11.699  18.318  0.00  0.00    +0.000 C 
ATOM     19  C   UNL     1      -2.450  11.730  19.124  0.00  0.00    +0.000 A 
ATOM     20  C   UNL     1      -1.362  10.985  18.610  0.00  0.00    +0.000 A 
ATOM     21  C   UNL     1      -0.100  10.971  19.218  0.00  0.00    +0.000 A 
ATOM     22  C   UNL     1       0.075  11.735  20.374  0.00  0.00    +0.000 A 
ATOM     23  C   UNL     1      -0.986  12.485  20.920  0.00  0.00    +0.000 A 
ATOM     24  C   UNL     1      -0.736  13.301  22.162  0.00  0.00    +0.000 C 
ATOM     25  C   UNL     1      -2.262  12.468  20.308  0.00  0.00    +0.000 A 
BRANCH  25  26
ATOM     26  O   UNL     1      -3.194  13.266  20.934  0.00  0.00    +0.000 OA
BRANCH  26  27
ATOM     27  C   UNL     1      -4.262  12.629  21.638  0.00  0.00    +0.000 C 
BRANCH  27  28
ATOM     28  C   UNL     1      -4.465  13.271  23.019  0.00  0.00    +0.000 C 
BRANCH  28  29
ATOM     29  O   UNL     1      -5.866  13.442  23.273  0.00  0.00    +0.000 OA
ATOM     30  H   UNL     1      -6.233  13.921  22.507  0.00  0.00    +0.000 HD
ENDBRANCH  28  29
BRANCH  28  31
ATOM     31  C   UNL     1      -3.824  12.468  24.159  0.00  0.00    +0.000 C 
BRANCH  31  32
ATOM     32  O   UNL     1      -4.806  11.773  24.931  0.00  0.00    +0.000 OA
ATOM     33  H   UNL     1      -4.810  12.146  25.830  0.00  0.00    +0.000 HD
ENDBRANCH  31  32
ENDBRANCH  28  31
ENDBRANCH  27  28
ENDBRANCH  26  27
ENDBRANCH  25  26
ENDBRANCH   1  21
TORSDOF 8
ENDMDL
MODEL 3
REMARK VINA RESULT:      -7.8      1.315      3.022
REMARK  Name = 
REMARK  13 active torsions:
REMARK  status: ('A' for Active; 'I' for Inactive)
REMARK    1  A    between atoms: C_1  and  C_2
REMARK    2  A    between atoms: C_4  and  C_5
REMARK    3  A    between atoms: C_8  and  C_9
REMARK    4  A    between atoms: C_11  and  C_12
REMARK    5  A    between atoms: C_18  and  C_19
REMARK    6  A    between atoms: C_18  and  C_20
REMARK    7  A    between atoms: C_23  and  C_24
REMARK    8  A    between atoms: C_25  and  O_26
REMARK    9  A    between atoms: O_26  and  C_27
REMARK   10  A    between atoms: C_27  and  C_28
REMARK   11  A    between atoms: C_28  and  O_29
REMARK   12  A    between atoms: C_28  and  C_30
REMARK   13  A    between atoms: C_30  and  O_31
REMARK                            x       y       z     vdW  Elec       q    Type
REMARK                         _______ _______ _______ _____ _____    ______ ____
ROOT
ATOM      1  C   UNL     1       1.311   9.620  18.752  0.00  0.00    +0.000 A 
ATOM      2  N   UNL     1       1.729  10.821  18.408  0.00  0.00    +0.000 NA
ATOM      3  N   UNL     1       0.694  11.692  18.679  0.00  0.00    +0.000 NA
ATOM      4  C   UNL     1      -0.298  10.972  19.177  0.00  0.00    +0.000 A 
ATOM      5  O   UNL     1       0.030   9.633  19.235  0.00  0.00    +0.000 OA
ENDROOT
BRANCH   4   6
ATOM      6  C   UNL     1      -1.533  11.524  19.657  0.00  0.00    +0.000 A 
ATOM      7  S   UNL     1      -1.633  12.293  21.205  0.00  0.00    +0.000 S 
ATOM      8  C   UNL     1      -3.237  12.857  20.937  0.00  0.00    +0.000 A 
ATOM      9  C   UNL     1      -3.940  13.712  21.929  0.00  0.00    +0.000 C 
ATOM     10  C   UNL     1      -3.686  12.368  19.746  0.00  0.00    +0.000 A 
ATOM     11  C   UNL     1      -2.746  11.609  19.011  0.00  0.00    +0.000 A 
ATOM     12  C   UNL     1      -3.256  11.244  17.654  0.00  0.00    +0.000 C 
ATOM     13  C   UNL     1      -4.595  11.998  17.564  0.00  0.00    +0.000 C 
ATOM     14  C   UNL     1      -4.931  12.642  18.936  0.00  0.00    +0.000 C 
ATOM     15  C   UNL     1      -5.832  11.587  18.320  0.00  0.00    +0.000 C 
ATOM     16  C   UNL     1      -7.155  12.081  17.774  0.00  0.00    +0.000 C 
ATOM     17  C   UNL     1      -5.943  10.235  18.981  0.00  0.00    +0.000 C 
ENDBRANCH   4   6
BRANCH   1  21
ATOM     18  C   UNL     1       1.933   5.156  20.784  0.00  0.00    +0.000 C 
ATOM     19  C   UNL     1       2.334   6.085  19.671  0.00  0.00    +0.000 A 
ATOM     20  C   UNL     1       1.697   7.349  19.651  0.00  0.00    +0.000 A 
ATOM     21  C   UNL     1       2.015   8.340  18.713  0.00  0.00    +0.000 A 
ATOM     22  C   UNL     1       3.006   8.053  17.771  0.00  0.00    +0.000 A 
ATOM     23  C   UNL     1       3.657   6.803  17.756  0.00  0.00    +0.000 A 
ATOM     24  C   UNL     1       4.728   6.554  16.725  0.00  0.00    +0.000 C 
ATOM     25  C   UNL     1       3.307   5.803  18.694  0.00  0.00    +0.000 A 
BRANCH  25  26
ATOM     26  O   UNL     1       4.041   4.644  18.578  0.00  0.00    +0.000 OA
BRANCH  26  27
ATOM     27  C   UNL     1       3.451   3.538  17.893  0.00  0.00    +0.000 C 
BRANCH  27  28
ATOM     28  C   UNL     1       3.405   2.298  18.797  0.00  0.00    +0.000 C 
BRANCH  28  29
ATOM     29  O   UNL     1       3.815   1.141  18.057  0.00  0.00    +0.000 OA
ATOM     30  H   UNL     1       4.479   0.680  18.603  0.00  0.00    +0.000 HD
ENDBRANCH  28  29
BRANCH  28  31
ATOM     31  C   UNL     1       4.264   2.438  20.061  0.00  0.00    +0.000 C 
BRANCH  31  32
ATOM     32  O   UNL     1       5.281   1.435  20.120  0.00  0.00    +0.000 OA
ATOM     33  H   UNL     1       5.010   0.690  19.555  0.00  0.00    +0.000 HD
ENDBRANCH  31  32
ENDBRANCH  28  31
ENDBRANCH  27  28
ENDBRANCH  26  27
ENDBRANCH  25  26
ENDBRANCH   1  21
TORSDOF 8
ENDMDL
MODEL 4
REMARK VINA RESULT:      -7.8      7.374     11.444
REMARK  Name = 
REMARK  13 active torsions:
REMARK  status: ('A' for Active; 'I' for Inactive)
REMARK    1  A    between atoms: C_1  and  C_2
REMARK    2  A    between atoms: C_4  and  C_5
REMARK    3  A    between atoms: C_8  and  C_9
REMARK    4  A    between atoms: C_11  and  C_12
REMARK    5  A    between atoms: C_18  and  C_19
REMARK    6  A    between atoms: C_18  and  C_20
REMARK    7  A    between atoms: C_23  and  C_24
REMARK    8  A    between atoms: C_25  and  O_26
REMARK    9  A    between atoms: O_26  and  C_27
REMARK   10  A    between atoms: C_27  and  C_28
REMARK   11  A    between atoms: C_28  and  O_29
REMARK   12  A    between atoms: C_28  and  C_30
REMARK   13  A    between atoms: C_30  and  O_31
REMARK                            x       y       z     vdW  Elec       q    Type
REMARK                         _______ _______ _______ _____ _____    ______ ____
ROOT
ATOM      1  C   UNL     1       8.376   8.766  18.254  0.00  0.00    +0.000 A 
ATOM      2  N   UNL     1       8.712   7.810  19.097  0.00  0.00    +0.000 NA
ATOM      3  N   UNL     1       7.983   6.694  18.740  0.00  0.00    +0.000 NA
ATOM      4  C   UNL     1       7.244   7.032  17.696  0.00  0.00    +0.000 A 
ATOM      5  O   UNL     1       7.438   8.352  17.346  0.00  0.00    +0.000 OA
ENDROOT
BRANCH   4   6
ATOM      6  C   UNL     1       6.396   6.122  16.980  0.00  0.00    +0.000 A 
ATOM      7  S   UNL     1       6.540   5.918  15.267  0.00  0.00    +0.000 S 
ATOM      8  C   UNL     1       5.447   4.588  15.230  0.00  0.00    +0.000 A 
ATOM      9  C   UNL     1       5.162   3.848  13.973  0.00  0.00    +0.000 C 
ATOM     10  C   UNL     1       4.931   4.403  16.477  0.00  0.00    +0.000 A 
ATOM     11  C   UNL     1       5.445   5.259  17.478  0.00  0.00    +0.000 A 
ATOM     12  C   UNL     1       4.952   4.892  18.841  0.00  0.00    +0.000 C 
ATOM     13  C   UNL     1       4.165   3.592  18.594  0.00  0.00    +0.000 C 
ATOM     14  C   UNL     1       4.059   3.320  17.070  0.00  0.00    +0.000 C 
ATOM     15  C   UNL     1       2.820   3.550  17.915  0.00  0.00    +0.000 C 
ATOM     16  C   UNL     1       1.964   2.330  18.183  0.00  0.00    +0.000 C 
ATOM     17  C   UNL     1       2.003   4.800  17.702  0.00  0.00    +0.000 C 
ENDBRANCH   4   6
BRANCH   1  21
ATOM     18  C   UNL     1       7.330  13.500  17.286  0.00  0.00    +0.000 C 
ATOM     19  C   UNL     1       8.388  12.520  17.714  0.00  0.00    +0.000 A 
ATOM     20  C   UNL     1       7.981  11.169  17.826  0.00  0.00    +0.000 A 
ATOM     21  C   UNL     1       8.871  10.137  18.153  0.00  0.00    +0.000 A 
ATOM     22  C   UNL     1      10.209  10.473  18.367  0.00  0.00    +0.000 A 
ATOM     23  C   UNL     1      10.650  11.809  18.271  0.00  0.00    +0.000 A 
ATOM     24  C   UNL     1      12.109  12.111  18.500  0.00  0.00    +0.000 C 
ATOM     25  C   UNL     1       9.734  12.843  17.965  0.00  0.00    +0.000 A 
BRANCH  25  26
ATOM     26  O   UNL     1      10.308  14.092  17.879  0.00  0.00    +0.000 OA
BRANCH  26  27
ATOM     27  C   UNL     1      10.065  15.020  18.937  0.00  0.00    +0.000 C 
BRANCH  27  28
ATOM     28  C   UNL     1      10.375  16.456  18.486  0.00  0.00    +0.000 C 
BRANCH  28  29
ATOM     29  O   UNL     1      11.784  16.700  18.580  0.00  0.00    +0.000 OA
ATOM     30  H   UNL     1      12.031  17.222  17.794  0.00  0.00    +0.000 HD
ENDBRANCH  28  29
BRANCH  28  31
ATOM     31  C   UNL     1       9.888  16.762  17.063  0.00  0.00    +0.000 C 
BRANCH  31  32
ATOM     32  O   UNL     1      10.795  16.263  16.078  0.00  0.00    +0.000 OA
ATOM     33  H   UNL     1      11.506  16.917  15.956  0.00  0.00    +0.000 HD
ENDBRANCH  31  32
ENDBRANCH  28  31
ENDBRANCH  27  28
ENDBRANCH  26  27
ENDBRANCH  25  26
ENDBRANCH   1  21
TORSDOF 8
ENDMDL
MODEL 5
REMARK VINA RESULT:      -7.8      1.751      2.287
REMARK  Name = 
REMARK  13 active torsions:
REMARK  status: ('A' for Active; 'I' for Inactive)
REMARK    1  A    between atoms: C_1  and  C_2
REMARK    2  A    between atoms: C_4  and  C_5
REMARK    3  A    between atoms: C_8  and  C_9
REMARK    4  A    between atoms: C_11  and  C_12
REMARK    5  A    between atoms: C_18  and  C_19
REMARK    6  A    between atoms: C_18  and  C_20
REMARK    7  A    between atoms: C_23  and  C_24
REMARK    8  A    between atoms: C_25  and  O_26
REMARK    9  A    between atoms: O_26  and  C_27
REMARK   10  A    between atoms: C_27  and  C_28
REMARK   11  A    between atoms: C_28  and  O_29
REMARK   12  A    between atoms: C_28  and  C_30
REMARK   13  A    between atoms: C_30  and  O_31
REMARK                            x       y       z     vdW  Elec       q    Type
REMARK                         _______ _______ _______ _____ _____    ______ ____
ROOT
ATOM      1  C   UNL     1       1.423   9.794  18.549  0.00  0.00    +0.000 A 
ATOM      2  N   UNL     1       1.861  11.030  18.678  0.00  0.00    +0.000 NA
ATOM      3  N   UNL     1       0.745  11.838  18.749  0.00  0.00    +0.000 NA
ATOM      4  C   UNL     1      -0.312  11.048  18.660  0.00  0.00    +0.000 A 
ATOM      5  O   UNL     1       0.056   9.726  18.515  0.00  0.00    +0.000 OA
ENDROOT
BRANCH   4   6
ATOM      6  C   UNL     1      -1.670  11.502  18.768  0.00  0.00    +0.000 A 
ATOM      7  S   UNL     1      -2.804  11.258  17.484  0.00  0.00    +0.000 S 
ATOM      8  C   UNL     1      -4.140  11.807  18.421  0.00  0.00    +0.000 A 
ATOM      9  C   UNL     1      -5.528  11.784  17.889  0.00  0.00    +0.000 C 
ATOM     10  C   UNL     1      -3.684  12.251  19.626  0.00  0.00    +0.000 A 
ATOM     11  C   UNL     1      -2.295  12.095  19.842  0.00  0.00    +0.000 A 
ATOM     12  C   UNL     1      -1.899  12.456  21.237  0.00  0.00    +0.000 C 
ATOM     13  C   UNL     1      -3.247  12.725  21.931  0.00  0.00    +0.000 C 
ATOM     14  C   UNL     1      -4.393  12.695  20.884  0.00  0.00    +0.000 C 
ATOM     15  C   UNL     1      -4.083  13.953  21.674  0.00  0.00    +0.000 C 
ATOM     16  C   UNL     1      -5.084  14.326  22.747  0.00  0.00    +0.000 C 
ATOM     17  C   UNL     1      -3.522  15.155  20.956  0.00  0.00    +0.000 C 
ENDBRANCH   4   6
BRANCH   1  21
ATOM     18  C   UNL     1       2.321   5.353  20.529  0.00  0.00    +0.000 C 
ATOM     19  C   UNL     1       2.628   6.300  19.401  0.00  0.00    +0.000 A 
ATOM     20  C   UNL     1       1.943   7.538  19.418  0.00  0.00    +0.000 A 
ATOM     21  C   UNL     1       2.174   8.542  18.469  0.00  0.00    +0.000 A 
ATOM     22  C   UNL     1       3.126   8.296  17.477  0.00  0.00    +0.000 A 
ATOM     23  C   UNL     1       3.824   7.073  17.424  0.00  0.00    +0.000 A 
ATOM     24  C   UNL     1       4.849   6.867  16.339  0.00  0.00    +0.000 C 
ATOM     25  C   UNL     1       3.561   6.058  18.375  0.00  0.00    +0.000 A 
BRANCH  25  26
ATOM     26  O   UNL     1       4.332   4.929  18.217  0.00  0.00    +0.000 OA
BRANCH  26  27
ATOM     27  C   UNL     1       5.304   4.630  19.221  0.00  0.00    +0.000 C 
BRANCH  27  28
ATOM     28  C   UNL     1       6.633   5.340  18.923  0.00  0.00    +0.000 C 
BRANCH  28  29
ATOM     29  O   UNL     1       7.409   5.443  20.124  0.00  0.00    +0.000 OA
ATOM     30  H   UNL     1       8.299   5.739  19.857  0.00  0.00    +0.000 HD
ENDBRANCH  28  29
BRANCH  28  31
ATOM     31  C   UNL     1       7.457   4.647  17.829  0.00  0.00    +0.000 C 
BRANCH  31  32
ATOM     32  O   UNL     1       6.624   3.920  16.923  0.00  0.00    +0.000 OA
ATOM     33  H   UNL     1       5.696   4.047  17.190  0.00  0.00    +0.000 HD
ENDBRANCH  31  32
ENDBRANCH  28  31
ENDBRANCH  27  28
ENDBRANCH  26  27
ENDBRANCH  25  26
ENDBRANCH   1  21
TORSDOF 8
ENDMDL
MODEL 6
REMARK VINA RESULT:      -7.7      3.242      9.790
REMARK  Name = 
REMARK  13 active torsions:
REMARK  status: ('A' for Active; 'I' for Inactive)
REMARK    1  A    between atoms: C_1  and  C_2
REMARK    2  A    between atoms: C_4  and  C_5
REMARK    3  A    between atoms: C_8  and  C_9
REMARK    4  A    between atoms: C_11  and  C_12
REMARK    5  A    between atoms: C_18  and  C_19
REMARK    6  A    between atoms: C_18  and  C_20
REMARK    7  A    between atoms: C_23  and  C_24
REMARK    8  A    between atoms: C_25  and  O_26
REMARK    9  A    between atoms: O_26  and  C_27
REMARK   10  A    between atoms: C_27  and  C_28
REMARK   11  A    between atoms: C_28  and  O_29
REMARK   12  A    between atoms: C_28  and  C_30
REMARK   13  A    between atoms: C_30  and  O_31
REMARK                            x       y       z     vdW  Elec       q    Type
REMARK                         _______ _______ _______ _____ _____    ______ ____
ROOT
ATOM      1  C   UNL     1       0.681   9.871  18.045  0.00  0.00    +0.000 A 
ATOM      2  N   UNL     1       1.795  10.374  17.554  0.00  0.00    +0.000 NA
ATOM      3  N   UNL     1       2.749   9.380  17.639  0.00  0.00    +0.000 NA
ATOM      4  C   UNL     1       2.161   8.324  18.176  0.00  0.00    +0.000 A 
ATOM      5  O   UNL     1       0.838   8.580  18.473  0.00  0.00    +0.000 OA
ENDROOT
BRANCH   4   6
ATOM      6  C   UNL     1       2.801   7.053  18.364  0.00  0.00    +0.000 A 
ATOM      7  S   UNL     1       4.203   6.609  17.450  0.00  0.00    +0.000 S 
ATOM      8  C   UNL     1       4.478   5.181  18.372  0.00  0.00    +0.000 A 
ATOM      9  C   UNL     1       5.658   4.311  18.128  0.00  0.00    +0.000 C 
ATOM     10  C   UNL     1       3.460   5.026  19.264  0.00  0.00    +0.000 A 
ATOM     11  C   UNL     1       2.499   6.064  19.273  0.00  0.00    +0.000 A 
ATOM     12  C   UNL     1       1.508   5.904  20.380  0.00  0.00    +0.000 C 
ATOM     13  C   UNL     1       2.050   4.699  21.170  0.00  0.00    +0.000 C 
ATOM     14  C   UNL     1       3.244   4.064  20.409  0.00  0.00    +0.000 C 
ATOM     15  C   UNL     1       1.973   3.277  20.674  0.00  0.00    +0.000 C 
ATOM     16  C   UNL     1       2.073   2.188  21.720  0.00  0.00    +0.000 C 
ATOM     17  C   UNL     1       1.090   2.891  19.513  0.00  0.00    +0.000 C 
ENDBRANCH   4   6
BRANCH   1  21
ATOM     18  C   UNL     1      -2.419  12.595  20.767  0.00  0.00    +0.000 C 
ATOM     19  C   UNL     1      -2.215  11.863  19.469  0.00  0.00    +0.000 A 
ATOM     20  C   UNL     1      -0.955  11.244  19.290  0.00  0.00    +0.000 A 
ATOM     21  C   UNL     1      -0.644  10.475  18.161  0.00  0.00    +0.000 A 
ATOM     22  C   UNL     1      -1.632  10.320  17.186  0.00  0.00    +0.000 A 
ATOM     23  C   UNL     1      -2.896  10.926  17.326  0.00  0.00    +0.000 A 
ATOM     24  C   UNL     1      -3.928  10.714  16.248  0.00  0.00    +0.000 C 
ATOM     25  C   UNL     1      -3.186  11.721  18.460  0.00  0.00    +0.000 A 
BRANCH  25  26
ATOM     26  O   UNL     1      -4.466  12.229  18.476  0.00  0.00    +0.000 OA
BRANCH  26  27
ATOM     27  C   UNL     1      -5.411  11.648  19.377  0.00  0.00    +0.000 C 
BRANCH  27  28
ATOM     28  C   UNL     1      -6.737  11.352  18.661  0.00  0.00    +0.000 C 
BRANCH  28  29
ATOM     29  O   UNL     1      -7.641  10.699  19.562  0.00  0.00    +0.000 OA
ATOM     30  H   UNL     1      -8.202  11.396  19.949  0.00  0.00    +0.000 HD
ENDBRANCH  28  29
BRANCH  28  31
ATOM     31  C   UNL     1      -7.402  12.606  18.076  0.00  0.00    +0.000 C 
BRANCH  31  32
ATOM     32  O   UNL     1      -6.701  13.086  16.927  0.00  0.00    +0.000 OA
ATOM     33  H   UNL     1      -5.751  12.914  17.053  0.00  0.00    +0.000 HD
ENDBRANCH  31  32
ENDBRANCH  28  31
ENDBRANCH  27  28
ENDBRANCH  26  27
ENDBRANCH  25  26
ENDBRANCH   1  21
TORSDOF 8
ENDMDL
MODEL 7
REMARK VINA RESULT:      -7.7      0.700      1.868
REMARK  Name = 
REMARK  13 active torsions:
REMARK  status: ('A' for Active; 'I' for Inactive)
REMARK    1  A    between atoms: C_1  and  C_2
REMARK    2  A    between atoms: C_4  and  C_5
REMARK    3  A    between atoms: C_8  and  C_9
REMARK    4  A    between atoms: C_11  and  C_12
REMARK    5  A    between atoms: C_18  and  C_19
REMARK    6  A    between atoms: C_18  and  C_20
REMARK    7  A    between atoms: C_23  and  C_24
REMARK    8  A    between atoms: C_25  and  O_26
REMARK    9  A    between atoms: O_26  and  C_27
REMARK   10  A    between atoms: C_27  and  C_28
REMARK   11  A    between atoms: C_28  and  O_29
REMARK   12  A    between atoms: C_28  and  C_30
REMARK   13  A    between atoms: C_30  and  O_31
REMARK                            x       y       z     vdW  Elec       q    Type
REMARK                         _______ _______ _______ _____ _____    ______ ____
ROOT
ATOM      1  C   UNL     1       1.517   9.465  18.765  0.00  0.00    +0.000 A 
ATOM      2  N   UNL     1       1.990  10.613  18.324  0.00  0.00    +0.000 NA
ATOM      3  N   UNL     1       1.012  11.558  18.558  0.00  0.00    +0.000 NA
ATOM      4  C   UNL     1      -0.003  10.933  19.131  0.00  0.00    +0.000 A 
ATOM      5  O   UNL     1       0.253   9.585  19.278  0.00  0.00    +0.000 OA
ENDROOT
BRANCH   4   6
ATOM      6  C   UNL     1      -1.192  11.586  19.601  0.00  0.00    +0.000 A 
ATOM      7  S   UNL     1      -2.572  11.786  18.575  0.00  0.00    +0.000 S 
ATOM      8  C   UNL     1      -3.565  12.373  19.854  0.00  0.00    +0.000 A 
ATOM      9  C   UNL     1      -5.002  12.690  19.643  0.00  0.00    +0.000 C 
ATOM     10  C   UNL     1      -2.809  12.498  20.981  0.00  0.00    +0.000 A 
ATOM     11  C   UNL     1      -1.467  12.067  20.861  0.00  0.00    +0.000 A 
ATOM     12  C   UNL     1      -0.751  12.087  22.172  0.00  0.00    +0.000 C 
ATOM     13  C   UNL     1      -1.860  12.450  23.177  0.00  0.00    +0.000 C 
ATOM     14  C   UNL     1      -3.162  12.815  22.415  0.00  0.00    +0.000 C 
ATOM     15  C   UNL     1      -2.455  13.830  23.294  0.00  0.00    +0.000 C 
ATOM     16  C   UNL     1      -3.138  14.164  24.603  0.00  0.00    +0.000 C 
ATOM     17  C   UNL     1      -1.802  15.031  22.655  0.00  0.00    +0.000 C 
ENDBRANCH   4   6
BRANCH   1  21
ATOM     18  C   UNL     1       4.668   6.310  16.629  0.00  0.00    +0.000 C 
ATOM     19  C   UNL     1       3.742   6.552  17.790  0.00  0.00    +0.000 A 
ATOM     20  C   UNL     1       3.087   7.806  17.817  0.00  0.00    +0.000 A 
ATOM     21  C   UNL     1       2.150   8.148  18.801  0.00  0.00    +0.000 A 
ATOM     22  C   UNL     1       1.859   7.198  19.782  0.00  0.00    +0.000 A 
ATOM     23  C   UNL     1       2.495   5.941  19.792  0.00  0.00    +0.000 A 
ATOM     24  C   UNL     1       2.133   4.950  20.868  0.00  0.00    +0.000 C 
ATOM     25  C   UNL     1       3.459   5.620  18.806  0.00  0.00    +0.000 A 
BRANCH  25  26
ATOM     26  O   UNL     1       3.980   4.351  18.924  0.00  0.00    +0.000 OA
BRANCH  26  27
ATOM     27  C   UNL     1       4.071   3.548  17.745  0.00  0.00    +0.000 C 
BRANCH  27  28
ATOM     28  C   UNL     1       3.381   2.191  17.955  0.00  0.00    +0.000 C 
BRANCH  28  29
ATOM     29  O   UNL     1       4.220   1.338  18.745  0.00  0.00    +0.000 OA
ATOM     30  H   UNL     1       3.689   1.061  19.515  0.00  0.00    +0.000 HD
ENDBRANCH  28  29
BRANCH  28  31
ATOM     31  C   UNL     1       1.997   2.310  18.608  0.00  0.00    +0.000 C 
BRANCH  31  32
ATOM     32  O   UNL     1       1.149   3.205  17.884  0.00  0.00    +0.000 OA
ATOM     33  H   UNL     1       1.296   4.106  18.219  0.00  0.00    +0.000 HD
ENDBRANCH  31  32
ENDBRANCH  28  31
ENDBRANCH  27  28
ENDBRANCH  26  27
ENDBRANCH  25  26
ENDBRANCH   1  21
TORSDOF 8
ENDMDL
MODEL 8
REMARK VINA RESULT:      -7.7      3.096      9.865
REMARK  Name = 
REMARK  13 active torsions:
REMARK  status: ('A' for Active; 'I' for Inactive)
REMARK    1  A    between atoms: C_1  and  C_2
REMARK    2  A    between atoms: C_4  and  C_5
REMARK    3  A    between atoms: C_8  and  C_9
REMARK    4  A    between atoms: C_11  and  C_12
REMARK    5  A    between atoms: C_18  and  C_19
REMARK    6  A    between atoms: C_18  and  C_20
REMARK    7  A    between atoms: C_23  and  C_24
REMARK    8  A    between atoms: C_25  and  O_26
REMARK    9  A    between atoms: O_26  and  C_27
REMARK   10  A    between atoms: C_27  and  C_28
REMARK   11  A    between atoms: C_28  and  O_29
REMARK   12  A    between atoms: C_28  and  C_30
REMARK   13  A    between atoms: C_30  and  O_31
REMARK                            x       y       z     vdW  Elec       q    Type
REMARK                         _______ _______ _______ _____ _____    ______ ____
ROOT
ATOM      1  C   UNL     1       1.042  10.136  18.621  0.00  0.00    +0.000 A 
ATOM      2  N   UNL     1       1.836  10.397  17.602  0.00  0.00    +0.000 NA
ATOM      3  N   UNL     1       2.630   9.283  17.425  0.00  0.00    +0.000 NA
ATOM      4  C   UNL     1       2.274   8.403  18.346  0.00  0.00    +0.000 A 
ATOM      5  O   UNL     1       1.271   8.896  19.154  0.00  0.00    +0.000 OA
ENDROOT
BRANCH   4   6
ATOM      6  C   UNL     1       2.818   7.078  18.448  0.00  0.00    +0.000 A 
ATOM      7  S   UNL     1       4.114   6.557  17.427  0.00  0.00    +0.000 S 
ATOM      8  C   UNL     1       4.330   5.078  18.281  0.00  0.00    +0.000 A 
ATOM      9  C   UNL     1       5.415   4.125  17.929  0.00  0.00    +0.000 C 
ATOM     10  C   UNL     1       3.364   4.972  19.236  0.00  0.00    +0.000 A 
ATOM     11  C   UNL     1       2.496   6.083  19.345  0.00  0.00    +0.000 A 
ATOM     12  C   UNL     1       1.570   5.962  20.511  0.00  0.00    +0.000 C 
ATOM     13  C   UNL     1       2.061   4.688  21.223  0.00  0.00    +0.000 C 
ATOM     14  C   UNL     1       3.146   3.988  20.362  0.00  0.00    +0.000 C 
ATOM     15  C   UNL     1       1.834   3.297  20.688  0.00  0.00    +0.000 C 
ATOM     16  C   UNL     1       1.912   2.166  21.690  0.00  0.00    +0.000 C 
ATOM     17  C   UNL     1       0.847   3.028  19.579  0.00  0.00    +0.000 C 
ENDBRANCH   4   6
BRANCH   1  21
ATOM     18  C   UNL     1      -3.657  11.651  18.367  0.00  0.00    +0.000 C 
ATOM     19  C   UNL     1      -2.371  11.705  19.144  0.00  0.00    +0.000 A 
ATOM     20  C   UNL     1      -1.294  10.946  18.628  0.00  0.00    +0.000 A 
ATOM     21  C   UNL     1      -0.019  10.950  19.209  0.00  0.00    +0.000 A 
ATOM     22  C   UNL     1       0.179  11.746  20.339  0.00  0.00    +0.000 A 
ATOM     23  C   UNL     1      -0.870  12.511  20.886  0.00  0.00    +0.000 A 
ATOM     24  C   UNL     1      -0.595  13.362  22.100  0.00  0.00    +0.000 C 
ATOM     25  C   UNL     1      -2.159  12.476  20.303  0.00  0.00    +0.000 A 
BRANCH  25  26
ATOM     26  O   UNL     1      -3.078  13.291  20.926  0.00  0.00    +0.000 OA
BRANCH  26  27
ATOM     27  C   UNL     1      -3.979  12.697  21.862  0.00  0.00    +0.000 C 
BRANCH  27  28
ATOM     28  C   UNL     1      -5.418  12.716  21.322  0.00  0.00    +0.000 C 
BRANCH  28  29
ATOM     29  O   UNL     1      -6.315  12.196  22.312  0.00  0.00    +0.000 OA
ATOM     30  H   UNL     1      -5.926  11.359  22.629  0.00  0.00    +0.000 HD
ENDBRANCH  28  29
BRANCH  28  31
ATOM     31  C   UNL     1      -5.881  14.113  20.884  0.00  0.00    +0.000 C 
BRANCH  31  32
ATOM     32  O   UNL     1      -5.549  14.372  19.518  0.00  0.00    +0.000 OA
ATOM     33  H   UNL     1      -5.797  13.593  18.988  0.00  0.00    +0.000 HD
ENDBRANCH  31  32
ENDBRANCH  28  31
ENDBRANCH  27  28
ENDBRANCH  26  27
ENDBRANCH  25  26
ENDBRANCH   1  21
TORSDOF 8
ENDMDL
MODEL 9
REMARK VINA RESULT:      -7.7      3.523     10.497
REMARK  Name = 
REMARK  13 active torsions:
REMARK  status: ('A' for Active; 'I' for Inactive)
REMARK    1  A    between atoms: C_1  and  C_2
REMARK    2  A    between atoms: C_4  and  C_5
REMARK    3  A    between atoms: C_8  and  C_9
REMARK    4  A    between atoms: C_11  and  C_12
REMARK    5  A    between atoms: C_18  and  C_19
REMARK    6  A    between atoms: C_18  and  C_20
REMARK    7  A    between atoms: C_23  and  C_24
REMARK    8  A    between atoms: C_25  and  O_26
REMARK    9  A    between atoms: O_26  and  C_27
REMARK   10  A    between atoms: C_27  and  C_28
REMARK   11  A    between atoms: C_28  and  O_29
REMARK   12  A    between atoms: C_28  and  C_30
REMARK   13  A    between atoms: C_30  and  O_31
REMARK                            x       y       z     vdW  Elec       q    Type
REMARK                         _______ _______ _______ _____ _____    ______ ____
ROOT
ATOM      1  C   UNL     1       1.291   8.942  19.794  0.00  0.00    +0.000 A 
ATOM      2  N   UNL     1       1.275   8.345  20.969  0.00  0.00    +0.000 NA
ATOM      3  N   UNL     1       1.818   7.091  20.782  0.00  0.00    +0.000 NA
ATOM      4  C   UNL     1       2.138   6.993  19.502  0.00  0.00    +0.000 A 
ATOM      5  O   UNL     1       1.811   8.142  18.812  0.00  0.00    +0.000 OA
ENDROOT
BRANCH   4   6
ATOM      6  C   UNL     1       2.801   5.860  18.921  0.00  0.00    +0.000 A 
ATOM      7  S   UNL     1       2.370   4.243  19.361  0.00  0.00    +0.000 S 
ATOM      8  C   UNL     1       3.359   3.537  18.141  0.00  0.00    +0.000 A 
ATOM      9  C   UNL     1       3.391   2.069  17.916  0.00  0.00    +0.000 C 
ATOM     10  C   UNL     1       4.056   4.523  17.510  0.00  0.00    +0.000 A 
ATOM     11  C   UNL     1       3.764   5.840  17.937  0.00  0.00    +0.000 A 
ATOM     12  C   UNL     1       4.447   6.869  17.096  0.00  0.00    +0.000 C 
ATOM     13  C   UNL     1       5.102   6.036  15.979  0.00  0.00    +0.000 C 
ATOM     14  C   UNL     1       4.944   4.523  16.287  0.00  0.00    +0.000 C 
ATOM     15  C   UNL     1       6.315   5.167  16.192  0.00  0.00    +0.000 C 
ATOM     16  C   UNL     1       7.126   4.822  14.961  0.00  0.00    +0.000 C 
ATOM     17  C   UNL     1       7.163   5.284  17.435  0.00  0.00    +0.000 C 
ENDBRANCH   4   6
BRANCH   1  21
ATOM     18  C   UNL     1      -2.419  12.191  19.453  0.00  0.00    +0.000 C 
ATOM     19  C   UNL     1      -0.943  11.962  19.274  0.00  0.00    +0.000 A 
ATOM     20  C   UNL     1      -0.466  10.671  19.603  0.00  0.00    +0.000 A 
ATOM     21  C   UNL     1       0.872  10.293  19.427  0.00  0.00    +0.000 A 
ATOM     22  C   UNL     1       1.753  11.239  18.901  0.00  0.00    +0.000 A 
ATOM     23  C   UNL     1       1.316  12.537  18.568  0.00  0.00    +0.000 A 
ATOM     24  C   UNL     1       2.309  13.514  17.992  0.00  0.00    +0.000 C 
ATOM     25  C   UNL     1      -0.033  12.912  18.775  0.00  0.00    +0.000 A 
BRANCH  25  26
ATOM     26  O   UNL     1      -0.323  14.199  18.382  0.00  0.00    +0.000 OA
BRANCH  26  27
ATOM     27  C   UNL     1      -0.260  15.234  19.365  0.00  0.00    +0.000 C 
BRANCH  27  28
ATOM     28  C   UNL     1      -0.017  16.600  18.705  0.00  0.00    +0.000 C 
BRANCH  28  29
ATOM     29  O   UNL     1      -1.264  17.154  18.265  0.00  0.00    +0.000 OA
ATOM     30  H   UNL     1      -1.940  16.868  18.907  0.00  0.00    +0.000 HD
ENDBRANCH  28  29
BRANCH  28  31
ATOM     31  C   UNL     1       0.700  17.598  19.625  0.00  0.00    +0.000 C 
BRANCH  31  32
ATOM     32  O   UNL     1       1.565  18.464  18.887  0.00  0.00    +0.000 OA
ATOM     33  H   UNL     1       2.457  18.409  19.274  0.00  0.00    +0.000 HD
ENDBRANCH  31  32
ENDBRANCH  28  31
ENDBRANCH  27  28
ENDBRANCH  26  27
ENDBRANCH  25  26
ENDBRANCH   1  21
TORSDOF 8
ENDMDL
