MODEL 1
REMARK VINA RESULT:      -8.0      0.000      0.000
REMARK  Name = 
REMARK  5 active torsions:
REMARK  status: ('A' for Active; 'I' for Inactive)
REMARK    1  A    between atoms: C_1  and  O_2
REMARK    2  A    between atoms: O_2  and  C_3
REMARK    3  A    between atoms: C_6  and  C_7
REMARK    4  A    between atoms: C_9  and  C_10
REMARK    5  A    between atoms: N_12  and  C_13
REMARK                            x       y       z     vdW  Elec       q    Type
REMARK                         _______ _______ _______ _____ _____    ______ ____
ROOT
ATOM      1  C   UNL     1       2.697   6.241  18.943  0.00  0.00    +0.000 A 
ATOM      2  C   UNL     1       4.019   5.902  19.132  0.00  0.00    +0.000 A 
ATOM      3  C   UNL     1       4.397   4.603  18.866  0.00  0.00    +0.000 A 
ATOM      4  C   UNL     1       3.457   3.572  18.871  0.00  0.00    +0.000 A 
ATOM      5  C   UNL     1       3.813   2.228  19.052  0.00  0.00    +0.000 A 
ATOM      6  C   UNL     1       2.827   1.253  19.110  0.00  0.00    +0.000 A 
ATOM      7  C   UNL     1       1.503   1.616  18.895  0.00  0.00    +0.000 A 
ATOM      8  C   UNL     1       1.165   2.963  18.695  0.00  0.00    +0.000 A 
ATOM      9  C   UNL     1       2.117   3.977  18.750  0.00  0.00    +0.000 A 
ATOM     10  N   UNL     1       1.757   5.287  18.702  0.00  0.00    +0.000 NA
ENDROOT
BRANCH   1  14
ATOM     11  C   UNL     1       1.175  10.268  18.909  0.00  0.00    +0.000 A 
ATOM     12  C   UNL     1       1.056   9.482  20.046  0.00  0.00    +0.000 A 
ATOM     13  C   UNL     1       1.635   8.216  20.081  0.00  0.00    +0.000 A 
ATOM     14  C   UNL     1       2.293   7.665  18.960  0.00  0.00    +0.000 A 
ATOM     15  C   UNL     1       2.476   8.506  17.855  0.00  0.00    +0.000 A 
ATOM     16  C   UNL     1       1.916   9.794  17.826  0.00  0.00    +0.000 A 
BRANCH  11  18
ATOM     17  C   UNL     1      -0.860  11.428  18.588  0.00  0.00    +0.000 C 
ATOM     18  O   UNL     1       0.500  11.452  18.984  0.00  0.00    +0.000 OA
ENDBRANCH  11  18
ENDBRANCH   1  14
BRANCH   3  19
ATOM     19  C   UNL     1       5.568   4.499  17.959  0.00  0.00    +0.000 C 
ATOM     20  O   UNL     1       6.709   4.483  18.391  0.00  0.00    +0.000 OA
ATOM     21  N   UNL     1       5.207   4.400  16.626  0.00  0.00    +0.000 N 
ATOM     22  H   UNL     1       4.230   4.236  16.414  0.00  0.00    +0.000 HD
BRANCH  21  23
ATOM     23  C   UNL     1       6.144   4.145  15.557  0.00  0.00    +0.000 C 
ATOM     24  C   UNL     1       5.448   3.804  14.243  0.00  0.00    +0.000 C 
ATOM     25  C   UNL     1       6.554   3.987  13.208  0.00  0.00    +0.000 C 
ATOM     26  C   UNL     1       7.472   5.073  13.771  0.00  0.00    +0.000 C 
ATOM     27  C   UNL     1       6.942   5.390  15.168  0.00  0.00    +0.000 C 
ENDBRANCH  21  23
ENDBRANCH   3  19
TORSDOF 4
ENDMDL
MODEL 2
REMARK VINA RESULT:      -7.8      1.167      1.206
REMARK  Name = 
REMARK  5 active torsions:
REMARK  status: ('A' for Active; 'I' for Inactive)
REMARK    1  A    between atoms: C_1  and  O_2
REMARK    2  A    between atoms: O_2  and  C_3
REMARK    3  A    between atoms: C_6  and  C_7
REMARK    4  A    between atoms: C_9  and  C_10
REMARK    5  A    between atoms: N_12  and  C_13
REMARK                            x       y       z     vdW  Elec       q    Type
REMARK                         _______ _______ _______ _____ _____    ______ ____
ROOT
ATOM      1  C   UNL     1       2.722   6.632  18.372  0.00  0.00    +0.000 A 
ATOM      2  C   UNL     1       4.028   6.453  17.972  0.00  0.00    +0.000 A 
ATOM      3  C   UNL     1       4.384   5.225  17.458  0.00  0.00    +0.000 A 
ATOM      4  C   UNL     1       3.636   4.084  17.754  0.00  0.00    +0.000 A 
ATOM      5  C   UNL     1       4.163   2.789  17.650  0.00  0.00    +0.000 A 
ATOM      6  C   UNL     1       3.389   1.696  18.018  0.00  0.00    +0.000 A 
ATOM      7  C   UNL     1       2.067   1.900  18.396  0.00  0.00    +0.000 A 
ATOM      8  C   UNL     1       1.549   3.202  18.475  0.00  0.00    +0.000 A 
ATOM      9  C   UNL     1       2.336   4.323  18.228  0.00  0.00    +0.000 A 
ATOM     10  N   UNL     1       1.864   5.579  18.450  0.00  0.00    +0.000 NA
ENDROOT
BRANCH   1  14
ATOM     11  C   UNL     1       0.936  10.461  19.199  0.00  0.00    +0.000 A 
ATOM     12  C   UNL     1       0.984   9.481  20.180  0.00  0.00    +0.000 A 
ATOM     13  C   UNL     1       1.648   8.282  19.935  0.00  0.00    +0.000 A 
ATOM     14  C   UNL     1       2.227   7.992  18.681  0.00  0.00    +0.000 A 
ATOM     15  C   UNL     1       2.242   9.025  17.735  0.00  0.00    +0.000 A 
ATOM     16  C   UNL     1       1.595  10.247  17.988  0.00  0.00    +0.000 A 
BRANCH  11  18
ATOM     17  C   UNL     1      -0.709  12.038  18.564  0.00  0.00    +0.000 C 
ATOM     18  O   UNL     1       0.193  11.553  19.544  0.00  0.00    +0.000 OA
ENDBRANCH  11  18
ENDBRANCH   1  14
BRANCH   3  19
ATOM     19  C   UNL     1       5.076   5.307  16.147  0.00  0.00    +0.000 C 
ATOM     20  O   UNL     1       5.150   6.357  15.531  0.00  0.00    +0.000 OA
ATOM     21  N   UNL     1       5.622   4.097  15.752  0.00  0.00    +0.000 N 
ATOM     22  H   UNL     1       5.654   3.350  16.435  0.00  0.00    +0.000 HD
BRANCH  21  23
ATOM     23  C   UNL     1       6.465   3.938  14.591  0.00  0.00    +0.000 C 
ATOM     24  C   UNL     1       5.659   3.742  13.310  0.00  0.00    +0.000 C 
ATOM     25  C   UNL     1       6.683   4.013  12.212  0.00  0.00    +0.000 C 
ATOM     26  C   UNL     1       7.669   5.022  12.804  0.00  0.00    +0.000 C 
ATOM     27  C   UNL     1       7.259   5.203  14.264  0.00  0.00    +0.000 C 
ENDBRANCH  21  23
ENDBRANCH   3  19
TORSDOF 4
ENDMDL
MODEL 3
REMARK VINA RESULT:      -7.8      1.396      1.406
REMARK  Name = 
REMARK  5 active torsions:
REMARK  status: ('A' for Active; 'I' for Inactive)
REMARK    1  A    between atoms: C_1  and  O_2
REMARK    2  A    between atoms: O_2  and  C_3
REMARK    3  A    between atoms: C_6  and  C_7
REMARK    4  A    between atoms: C_9  and  C_10
REMARK    5  A    between atoms: N_12  and  C_13
REMARK                            x       y       z     vdW  Elec       q    Type
REMARK                         _______ _______ _______ _____ _____    ______ ____
ROOT
ATOM      1  C   UNL     1       2.553   6.492  19.474  0.00  0.00    +0.000 A 
ATOM      2  C   UNL     1       3.710   6.022  18.890  0.00  0.00    +0.000 A 
ATOM      3  C   UNL     1       3.945   4.664  18.926  0.00  0.00    +0.000 A 
ATOM      4  C   UNL     1       3.332   3.859  19.886  0.00  0.00    +0.000 A 
ATOM      5  C   UNL     1       3.843   2.609  20.261  0.00  0.00    +0.000 A 
ATOM      6  C   UNL     1       3.223   1.881  21.267  0.00  0.00    +0.000 A 
ATOM      7  C   UNL     1       2.045   2.365  21.825  0.00  0.00    +0.000 A 
ATOM      8  C   UNL     1       1.535   3.609  21.424  0.00  0.00    +0.000 A 
ATOM      9  C   UNL     1       2.199   4.416  20.504  0.00  0.00    +0.000 A 
ATOM     10  N   UNL     1       1.773   5.678  20.236  0.00  0.00    +0.000 NA
ENDROOT
BRANCH   1  14
ATOM     11  C   UNL     1       0.966  10.421  18.709  0.00  0.00    +0.000 A 
ATOM     12  C   UNL     1       0.811   9.830  19.955  0.00  0.00    +0.000 A 
ATOM     13  C   UNL     1       1.410   8.602  20.223  0.00  0.00    +0.000 A 
ATOM     14  C   UNL     1       2.125   7.889  19.237  0.00  0.00    +0.000 A 
ATOM     15  C   UNL     1       2.342   8.540  18.016  0.00  0.00    +0.000 A 
ATOM     16  C   UNL     1       1.761   9.792  17.750  0.00  0.00    +0.000 A 
BRANCH  11  18
ATOM     17  C   UNL     1      -1.135  11.462  18.407  0.00  0.00    +0.000 C 
ATOM     18  O   UNL     1       0.269  11.584  18.558  0.00  0.00    +0.000 OA
ENDBRANCH  11  18
ENDBRANCH   1  14
BRANCH   3  19
ATOM     19  C   UNL     1       4.260   4.081  17.598  0.00  0.00    +0.000 C 
ATOM     20  O   UNL     1       3.417   3.483  16.949  0.00  0.00    +0.000 OA
ATOM     21  N   UNL     1       5.565   4.319  17.202  0.00  0.00    +0.000 N 
ATOM     22  H   UNL     1       6.106   4.984  17.742  0.00  0.00    +0.000 HD
BRANCH  21  23
ATOM     23  C   UNL     1       6.083   3.984  15.897  0.00  0.00    +0.000 C 
ATOM     24  C   UNL     1       5.080   4.272  14.783  0.00  0.00    +0.000 C 
ATOM     25  C   UNL     1       5.944   4.251  13.526  0.00  0.00    +0.000 C 
ATOM     26  C   UNL     1       7.331   4.719  13.968  0.00  0.00    +0.000 C 
ATOM     27  C   UNL     1       7.260   4.870  15.486  0.00  0.00    +0.000 C 
ENDBRANCH  21  23
ENDBRANCH   3  19
TORSDOF 4
ENDMDL
MODEL 4
REMARK VINA RESULT:      -7.7      2.070      7.086
REMARK  Name = 
REMARK  5 active torsions:
REMARK  status: ('A' for Active; 'I' for Inactive)
REMARK    1  A    between atoms: C_1  and  O_2
REMARK    2  A    between atoms: O_2  and  C_3
REMARK    3  A    between atoms: C_6  and  C_7
REMARK    4  A    between atoms: C_9  and  C_10
REMARK    5  A    between atoms: N_12  and  C_13
REMARK                            x       y       z     vdW  Elec       q    Type
REMARK                         _______ _______ _______ _____ _____    ______ ____
ROOT
ATOM      1  C   UNL     1       4.292   4.628  17.768  0.00  0.00    +0.000 A 
ATOM      2  C   UNL     1       3.250   5.528  17.731  0.00  0.00    +0.000 A 
ATOM      3  C   UNL     1       2.448   5.636  18.847  0.00  0.00    +0.000 A 
ATOM      4  C   UNL     1       2.369   4.592  19.771  0.00  0.00    +0.000 A 
ATOM      5  C   UNL     1       1.286   4.442  20.648  0.00  0.00    +0.000 A 
ATOM      6  C   UNL     1       1.234   3.349  21.502  0.00  0.00    +0.000 A 
ATOM      7  C   UNL     1       2.307   2.467  21.538  0.00  0.00    +0.000 A 
ATOM      8  C   UNL     1       3.393   2.643  20.667  0.00  0.00    +0.000 A 
ATOM      9  C   UNL     1       3.418   3.660  19.717  0.00  0.00    +0.000 A 
ATOM     10  N   UNL     1       4.405   3.731  18.785  0.00  0.00    +0.000 NA
ENDROOT
BRANCH   1  14
ATOM     11  C   UNL     1       7.173   5.055  14.597  0.00  0.00    +0.000 A 
ATOM     12  C   UNL     1       7.399   5.638  15.836  0.00  0.00    +0.000 A 
ATOM     13  C   UNL     1       6.510   5.415  16.883  0.00  0.00    +0.000 A 
ATOM     14  C   UNL     1       5.329   4.659  16.714  0.00  0.00    +0.000 A 
ATOM     15  C   UNL     1       5.164   4.010  15.483  0.00  0.00    +0.000 A 
ATOM     16  C   UNL     1       6.073   4.212  14.431  0.00  0.00    +0.000 A 
BRANCH  11  18
ATOM     17  C   UNL     1       7.702   5.188  12.296  0.00  0.00    +0.000 C 
ATOM     18  O   UNL     1       8.080   5.414  13.643  0.00  0.00    +0.000 OA
ENDBRANCH  11  18
ENDBRANCH   1  14
BRANCH   3  19
ATOM     19  C   UNL     1       2.281   7.030  19.327  0.00  0.00    +0.000 C 
ATOM     20  O   UNL     1       2.609   7.984  18.641  0.00  0.00    +0.000 OA
ATOM     21  N   UNL     1       1.704   7.100  20.584  0.00  0.00    +0.000 N 
ATOM     22  H   UNL     1       1.307   6.250  20.967  0.00  0.00    +0.000 HD
BRANCH  21  23
ATOM     23  C   UNL     1       1.303   8.334  21.217  0.00  0.00    +0.000 C 
ATOM     24  C   UNL     1       0.910   9.405  20.203  0.00  0.00    +0.000 C 
ATOM     25  C   UNL     1       0.152  10.422  21.051  0.00  0.00    +0.000 C 
ATOM     26  C   UNL     1      -0.496   9.619  22.181  0.00  0.00    +0.000 C 
ATOM     27  C   UNL     1       0.014   8.187  22.025  0.00  0.00    +0.000 C 
ENDBRANCH  21  23
ENDBRANCH   3  19
TORSDOF 4
ENDMDL
MODEL 5
REMARK VINA RESULT:      -7.6      1.545      1.788
REMARK  Name = 
REMARK  5 active torsions:
REMARK  status: ('A' for Active; 'I' for Inactive)
REMARK    1  A    between atoms: C_1  and  O_2
REMARK    2  A    between atoms: O_2  and  C_3
REMARK    3  A    between atoms: C_6  and  C_7
REMARK    4  A    between atoms: C_9  and  C_10
REMARK    5  A    between atoms: N_12  and  C_13
REMARK                            x       y       z     vdW  Elec       q    Type
REMARK                         _______ _______ _______ _____ _____    ______ ____
ROOT
ATOM      1  C   UNL     1       2.351   6.810  19.650  0.00  0.00    +0.000 A 
ATOM      2  C   UNL     1       3.468   6.527  18.895  0.00  0.00    +0.000 A 
ATOM      3  C   UNL     1       3.840   5.206  18.762  0.00  0.00    +0.000 A 
ATOM      4  C   UNL     1       3.432   4.253  19.697  0.00  0.00    +0.000 A 
ATOM      5  C   UNL     1       4.107   3.038  19.880  0.00  0.00    +0.000 A 
ATOM      6  C   UNL     1       3.691   2.158  20.868  0.00  0.00    +0.000 A 
ATOM      7  C   UNL     1       2.549   2.455  21.602  0.00  0.00    +0.000 A 
ATOM      8  C   UNL     1       1.872   3.667  21.393  0.00  0.00    +0.000 A 
ATOM      9  C   UNL     1       2.335   4.622  20.493  0.00  0.00    +0.000 A 
ATOM     10  N   UNL     1       1.756   5.849  20.406  0.00  0.00    +0.000 NA
ENDROOT
BRANCH   1  14
ATOM     11  C   UNL     1       0.301  10.592  19.481  0.00  0.00    +0.000 A 
ATOM     12  C   UNL     1       0.363   9.879  20.669  0.00  0.00    +0.000 A 
ATOM     13  C   UNL     1       1.108   8.705  20.739  0.00  0.00    +0.000 A 
ATOM     14  C   UNL     1       1.761   8.167  19.609  0.00  0.00    +0.000 A 
ATOM     15  C   UNL     1       1.758   8.945  18.444  0.00  0.00    +0.000 A 
ATOM     16  C   UNL     1       1.027  10.144  18.377  0.00  0.00    +0.000 A 
BRANCH  11  18
ATOM     17  C   UNL     1      -0.701  12.275  20.806  0.00  0.00    +0.000 C 
ATOM     18  O   UNL     1      -0.522  11.680  19.532  0.00  0.00    +0.000 OA
ENDBRANCH  11  18
ENDBRANCH   1  14
BRANCH   3  19
ATOM     19  C   UNL     1       4.045   4.785  17.354  0.00  0.00    +0.000 C 
ATOM     20  O   UNL     1       3.261   4.038  16.791  0.00  0.00    +0.000 OA
ATOM     21  N   UNL     1       5.175   5.347  16.784  0.00  0.00    +0.000 N 
ATOM     22  H   UNL     1       5.636   6.093  17.292  0.00  0.00    +0.000 HD
BRANCH  21  23
ATOM     23  C   UNL     1       5.523   5.214  15.389  0.00  0.00    +0.000 C 
ATOM     24  C   UNL     1       7.004   5.478  15.132  0.00  0.00    +0.000 C 
ATOM     25  C   UNL     1       7.222   4.893  13.740  0.00  0.00    +0.000 C 
ATOM     26  C   UNL     1       6.224   3.740  13.613  0.00  0.00    +0.000 C 
ATOM     27  C   UNL     1       5.374   3.779  14.881  0.00  0.00    +0.000 C 
ENDBRANCH  21  23
ENDBRANCH   3  19
TORSDOF 4
ENDMDL
MODEL 6
REMARK VINA RESULT:      -7.5      1.462      1.758
REMARK  Name = 
REMARK  5 active torsions:
REMARK  status: ('A' for Active; 'I' for Inactive)
REMARK    1  A    between atoms: C_1  and  O_2
REMARK    2  A    between atoms: O_2  and  C_3
REMARK    3  A    between atoms: C_6  and  C_7
REMARK    4  A    between atoms: C_9  and  C_10
REMARK    5  A    between atoms: N_12  and  C_13
REMARK                            x       y       z     vdW  Elec       q    Type
REMARK                         _______ _______ _______ _____ _____    ______ ____
ROOT
ATOM      1  C   UNL     1       2.503   6.528  19.428  0.00  0.00    +0.000 A 
ATOM      2  C   UNL     1       3.675   6.132  18.819  0.00  0.00    +0.000 A 
ATOM      3  C   UNL     1       3.995   4.792  18.844  0.00  0.00    +0.000 A 
ATOM      4  C   UNL     1       3.452   3.947  19.814  0.00  0.00    +0.000 A 
ATOM      5  C   UNL     1       4.047   2.730  20.173  0.00  0.00    +0.000 A 
ATOM      6  C   UNL     1       3.494   1.962  21.188  0.00  0.00    +0.000 A 
ATOM      7  C   UNL     1       2.301   2.371  21.772  0.00  0.00    +0.000 A 
ATOM      8  C   UNL     1       1.706   3.582  21.386  0.00  0.00    +0.000 A 
ATOM      9  C   UNL     1       2.300   4.431  20.457  0.00  0.00    +0.000 A 
ATOM     10  N   UNL     1       1.791   5.665  20.202  0.00  0.00    +0.000 NA
ENDROOT
BRANCH   1  14
ATOM     11  C   UNL     1       1.339  10.635  18.870  0.00  0.00    +0.000 A 
ATOM     12  C   UNL     1       1.968   9.938  17.849  0.00  0.00    +0.000 A 
ATOM     13  C   UNL     1       2.254   8.584  18.003  0.00  0.00    +0.000 A 
ATOM     14  C   UNL     1       1.985   7.896  19.206  0.00  0.00    +0.000 A 
ATOM     15  C   UNL     1       1.274   8.595  20.190  0.00  0.00    +0.000 A 
ATOM     16  C   UNL     1       0.960   9.955  20.028  0.00  0.00    +0.000 A 
BRANCH  11  18
ATOM     17  C   UNL     1       0.981  12.804  19.741  0.00  0.00    +0.000 C 
ATOM     18  O   UNL     1       1.184  11.967  18.616  0.00  0.00    +0.000 OA
ENDBRANCH  11  18
ENDBRANCH   1  14
BRANCH   3  19
ATOM     19  C   UNL     1       4.317   4.233  17.508  0.00  0.00    +0.000 C 
ATOM     20  O   UNL     1       3.452   3.762  16.788  0.00  0.00    +0.000 OA
ATOM     21  N   UNL     1       5.662   4.337  17.192  0.00  0.00    +0.000 N 
ATOM     22  H   UNL     1       6.242   4.913  17.791  0.00  0.00    +0.000 HD
BRANCH  21  23
ATOM     23  C   UNL     1       6.212   4.001  15.901  0.00  0.00    +0.000 C 
ATOM     24  C   UNL     1       5.176   4.097  14.785  0.00  0.00    +0.000 C 
ATOM     25  C   UNL     1       6.030   4.118  13.521  0.00  0.00    +0.000 C 
ATOM     26  C   UNL     1       7.348   4.784  13.922  0.00  0.00    +0.000 C 
ATOM     27  C   UNL     1       7.264   5.007  15.431  0.00  0.00    +0.000 C 
ENDBRANCH  21  23
ENDBRANCH   3  19
TORSDOF 4
ENDMDL
MODEL 7
REMARK VINA RESULT:      -7.5      1.310      1.617
REMARK  Name = 
REMARK  5 active torsions:
REMARK  status: ('A' for Active; 'I' for Inactive)
REMARK    1  A    between atoms: C_1  and  O_2
REMARK    2  A    between atoms: O_2  and  C_3
REMARK    3  A    between atoms: C_6  and  C_7
REMARK    4  A    between atoms: C_9  and  C_10
REMARK    5  A    between atoms: N_12  and  C_13
REMARK                            x       y       z     vdW  Elec       q    Type
REMARK                         _______ _______ _______ _____ _____    ______ ____
ROOT
ATOM      1  C   UNL     1       2.618   6.852  18.529  0.00  0.00    +0.000 A 
ATOM      2  C   UNL     1       3.945   6.806  18.160  0.00  0.00    +0.000 A 
ATOM      3  C   UNL     1       4.402   5.667  17.533  0.00  0.00    +0.000 A 
ATOM      4  C   UNL     1       3.729   4.453  17.681  0.00  0.00    +0.000 A 
ATOM      5  C   UNL     1       4.350   3.215  17.462  0.00  0.00    +0.000 A 
ATOM      6  C   UNL     1       3.647   2.040  17.685  0.00  0.00    +0.000 A 
ATOM      7  C   UNL     1       2.304   2.111  18.036  0.00  0.00    +0.000 A 
ATOM      8  C   UNL     1       1.691   3.359  18.231  0.00  0.00    +0.000 A 
ATOM      9  C   UNL     1       2.402   4.551  18.131  0.00  0.00    +0.000 A 
ATOM     10  N   UNL     1       1.835   5.741  18.466  0.00  0.00    +0.000 NA
ENDROOT
BRANCH   1  14
ATOM     11  C   UNL     1       0.536  10.421  19.740  0.00  0.00    +0.000 A 
ATOM     12  C   UNL     1       0.789   9.410  20.655  0.00  0.00    +0.000 A 
ATOM     13  C   UNL     1       1.546   8.304  20.280  0.00  0.00    +0.000 A 
ATOM     14  C   UNL     1       2.018   8.134  18.960  0.00  0.00    +0.000 A 
ATOM     15  C   UNL     1       1.826   9.204  18.077  0.00  0.00    +0.000 A 
ATOM     16  C   UNL     1       1.085  10.335  18.460  0.00  0.00    +0.000 A 
BRANCH  11  18
ATOM     17  C   UNL     1      -1.304  11.853  19.349  0.00  0.00    +0.000 C 
ATOM     18  O   UNL     1      -0.276  11.408  20.217  0.00  0.00    +0.000 OA
ENDBRANCH  11  18
ENDBRANCH   1  14
BRANCH   3  19
ATOM     19  C   UNL     1       5.122   5.936  16.264  0.00  0.00    +0.000 C 
ATOM     20  O   UNL     1       5.841   6.913  16.133  0.00  0.00    +0.000 OA
ATOM     21  N   UNL     1       4.902   4.961  15.305  0.00  0.00    +0.000 N 
ATOM     22  H   UNL     1       4.439   4.109  15.598  0.00  0.00    +0.000 HD
BRANCH  21  23
ATOM     23  C   UNL     1       5.594   4.909  14.038  0.00  0.00    +0.000 C 
ATOM     24  C   UNL     1       7.105   4.785  14.207  0.00  0.00    +0.000 C 
ATOM     25  C   UNL     1       7.571   4.337  12.825  0.00  0.00    +0.000 C 
ATOM     26  C   UNL     1       6.413   3.528  12.239  0.00  0.00    +0.000 C 
ATOM     27  C   UNL     1       5.268   3.644  13.243  0.00  0.00    +0.000 C 
ENDBRANCH  21  23
ENDBRANCH   3  19
TORSDOF 4
ENDMDL
MODEL 8
REMARK VINA RESULT:      -7.5      2.033      6.551
REMARK  Name = 
REMARK  5 active torsions:
REMARK  status: ('A' for Active; 'I' for Inactive)
REMARK    1  A    between atoms: C_1  and  O_2
REMARK    2  A    between atoms: O_2  and  C_3
REMARK    3  A    between atoms: C_6  and  C_7
REMARK    4  A    between atoms: C_9  and  C_10
REMARK    5  A    between atoms: N_12  and  C_13
REMARK                            x       y       z     vdW  Elec       q    Type
REMARK                         _______ _______ _______ _____ _____    ______ ____
ROOT
ATOM      1  C   UNL     1       4.184   4.461  17.957  0.00  0.00    +0.000 A 
ATOM      2  C   UNL     1       3.114   5.328  17.984  0.00  0.00    +0.000 A 
ATOM      3  C   UNL     1       2.324   5.344  19.114  0.00  0.00    +0.000 A 
ATOM      4  C   UNL     1       2.290   4.247  19.975  0.00  0.00    +0.000 A 
ATOM      5  C   UNL     1       1.224   4.011  20.855  0.00  0.00    +0.000 A 
ATOM      6  C   UNL     1       1.217   2.869  21.643  0.00  0.00    +0.000 A 
ATOM      7  C   UNL     1       2.318   2.021  21.614  0.00  0.00    +0.000 A 
ATOM      8  C   UNL     1       3.387   2.282  20.743  0.00  0.00    +0.000 A 
ATOM      9  C   UNL     1       3.368   3.354  19.855  0.00  0.00    +0.000 A 
ATOM     10  N   UNL     1       4.339   3.510  18.917  0.00  0.00    +0.000 NA
ENDROOT
BRANCH   1  14
ATOM     11  C   UNL     1       7.071   5.196  14.848  0.00  0.00    +0.000 A 
ATOM     12  C   UNL     1       7.394   5.431  16.177  0.00  0.00    +0.000 A 
ATOM     13  C   UNL     1       6.489   5.100  17.182  0.00  0.00    +0.000 A 
ATOM     14  C   UNL     1       5.206   4.588  16.894  0.00  0.00    +0.000 A 
ATOM     15  C   UNL     1       4.934   4.278  15.555  0.00  0.00    +0.000 A 
ATOM     16  C   UNL     1       5.855   4.587  14.539  0.00  0.00    +0.000 A 
BRANCH  11  18
ATOM     17  C   UNL     1       7.854   5.227  12.617  0.00  0.00    +0.000 C 
ATOM     18  O   UNL     1       8.015   5.633  13.965  0.00  0.00    +0.000 OA
ENDBRANCH  11  18
ENDBRANCH   1  14
BRANCH   3  19
ATOM     19  C   UNL     1       2.119   6.702  19.676  0.00  0.00    +0.000 C 
ATOM     20  O   UNL     1       2.061   6.892  20.880  0.00  0.00    +0.000 OA
ATOM     21  N   UNL     1       2.036   7.681  18.700  0.00  0.00    +0.000 N 
ATOM     22  H   UNL     1       2.286   7.423  17.753  0.00  0.00    +0.000 HD
BRANCH  21  23
ATOM     23  C   UNL     1       1.981   9.096  18.984  0.00  0.00    +0.000 C 
ATOM     24  C   UNL     1       2.196   9.947  17.735  0.00  0.00    +0.000 C 
ATOM     25  C   UNL     1       1.695  11.323  18.165  0.00  0.00    +0.000 C 
ATOM     26  C   UNL     1       0.599  11.061  19.200  0.00  0.00    +0.000 C 
ATOM     27  C   UNL     1       0.591   9.551  19.431  0.00  0.00    +0.000 C 
ENDBRANCH  21  23
ENDBRANCH   3  19
TORSDOF 4
ENDMDL
MODEL 9
REMARK VINA RESULT:      -7.5      1.522      2.002
REMARK  Name = 
REMARK  5 active torsions:
REMARK  status: ('A' for Active; 'I' for Inactive)
REMARK    1  A    between atoms: C_1  and  O_2
REMARK    2  A    between atoms: O_2  and  C_3
REMARK    3  A    between atoms: C_6  and  C_7
REMARK    4  A    between atoms: C_9  and  C_10
REMARK    5  A    between atoms: N_12  and  C_13
REMARK                            x       y       z     vdW  Elec       q    Type
REMARK                         _______ _______ _______ _____ _____    ______ ____
ROOT
ATOM      1  C   UNL     1       2.422   6.853  19.464  0.00  0.00    +0.000 A 
ATOM      2  C   UNL     1       3.545   6.548  18.726  0.00  0.00    +0.000 A 
ATOM      3  C   UNL     1       3.915   5.224  18.629  0.00  0.00    +0.000 A 
ATOM      4  C   UNL     1       3.495   4.295  19.583  0.00  0.00    +0.000 A 
ATOM      5  C   UNL     1       4.165   3.083  19.801  0.00  0.00    +0.000 A 
ATOM      6  C   UNL     1       3.737   2.227  20.806  0.00  0.00    +0.000 A 
ATOM      7  C   UNL     1       2.589   2.545  21.522  0.00  0.00    +0.000 A 
ATOM      8  C   UNL     1       1.917   3.753  21.277  0.00  0.00    +0.000 A 
ATOM      9  C   UNL     1       2.391   4.686  20.359  0.00  0.00    +0.000 A 
ATOM     10  N   UNL     1       1.816   5.912  20.238  0.00  0.00    +0.000 NA
ENDROOT
BRANCH   1  14
ATOM     11  C   UNL     1       1.060  10.934  19.313  0.00  0.00    +0.000 A 
ATOM     12  C   UNL     1       1.655  10.350  18.204  0.00  0.00    +0.000 A 
ATOM     13  C   UNL     1       2.004   9.003  18.230  0.00  0.00    +0.000 A 
ATOM     14  C   UNL     1       1.836   8.209  19.385  0.00  0.00    +0.000 A 
ATOM     15  C   UNL     1       1.157   8.794  20.462  0.00  0.00    +0.000 A 
ATOM     16  C   UNL     1       0.778  10.147  20.430  0.00  0.00    +0.000 A 
BRANCH  11  18
ATOM     17  C   UNL     1       1.757  12.989  18.372  0.00  0.00    +0.000 C 
ATOM     18  O   UNL     1       0.836  12.274  19.179  0.00  0.00    +0.000 OA
ENDBRANCH  11  18
ENDBRANCH   1  14
BRANCH   3  19
ATOM     19  C   UNL     1       4.132   4.768  17.234  0.00  0.00    +0.000 C 
ATOM     20  O   UNL     1       3.386   3.961  16.703  0.00  0.00    +0.000 OA
ATOM     21  N   UNL     1       5.225   5.373  16.635  0.00  0.00    +0.000 N 
ATOM     22  H   UNL     1       5.648   6.159  17.114  0.00  0.00    +0.000 HD
BRANCH  21  23
ATOM     23  C   UNL     1       5.568   5.213  15.242  0.00  0.00    +0.000 C 
ATOM     24  C   UNL     1       7.059   5.415  14.984  0.00  0.00    +0.000 C 
ATOM     25  C   UNL     1       7.255   4.809  13.598  0.00  0.00    +0.000 C 
ATOM     26  C   UNL     1       6.211   3.696  13.480  0.00  0.00    +0.000 C 
ATOM     27  C   UNL     1       5.362   3.781  14.747  0.00  0.00    +0.000 C 
ENDBRANCH  21  23
ENDBRANCH   3  19
TORSDOF 4
ENDMDL
