MODEL 1
REMARK VINA RESULT:      -9.2      0.000      0.000
REMARK  Name = 
REMARK  8 active torsions:
REMARK  status: ('A' for Active; 'I' for Inactive)
REMARK    1  A    between atoms: C_2  and  C_22
REMARK    2  A    between atoms: N_3  and  C_4
REMARK    3  A    between atoms: C_7  and  S_8
REMARK    4  A    between atoms: S_8  and  N_11
REMARK    5  A    between atoms: N_11  and  C_12
REMARK    6  A    between atoms: C_24  and  O_25
REMARK    7  A    between atoms: C_26  and  O_27
REMARK    8  A    between atoms: C_28  and  O_29
REMARK                            x       y       z     vdW  Elec       q    Type
REMARK                         _______ _______ _______ _____ _____    ______ ____
ROOT
ATOM      1  C   UNL     1       2.437   7.539  18.184  0.00  0.00    +0.000 A 
ATOM      2  C   UNL     1       3.441   7.423  17.217  0.00  0.00    +0.000 A 
ATOM      3  C   UNL     1       4.531   6.576  17.412  0.00  0.00    +0.000 A 
ATOM      4  C   UNL     1       4.627   5.840  18.591  0.00  0.00    +0.000 A 
ATOM      5  C   UNL     1       3.631   5.933  19.568  0.00  0.00    +0.000 A 
ATOM      6  C   UNL     1       2.549   6.803  19.372  0.00  0.00    +0.000 A 
ENDROOT
BRANCH   1   9
ATOM      7  O   UNL     1       1.722  10.010  19.620  0.00  0.00    +0.000 OA
ATOM      8  C   UNL     1       1.023   9.506  18.751  0.00  0.00    +0.000 C 
ATOM      9  N   UNL     1       1.313   8.371  18.004  0.00  0.00    +0.000 N 
ATOM     10  H   UNL     1       0.750   8.192  17.182  0.00  0.00    +0.000 HD
BRANCH   8  11
ATOM     11  C   UNL     1      -0.232  10.213  18.383  0.00  0.00    +0.000 A 
ATOM     12  C   UNL     1      -1.042   9.645  17.381  0.00  0.00    +0.000 A 
ATOM     13  C   UNL     1      -2.242  10.262  17.048  0.00  0.00    +0.000 A 
ATOM     14  C   UNL     1      -2.627  11.429  17.698  0.00  0.00    +0.000 A 
ATOM     15  C   UNL     1      -1.803  12.005  18.656  0.00  0.00    +0.000 A 
ATOM     16  C   UNL     1      -0.597  11.414  19.000  0.00  0.00    +0.000 A 
BRANCH  13  17
ATOM     17  O   UNL     1      -3.081   9.754  16.096  0.00  0.00    +0.000 OA
ATOM     18  H   UNL     1      -3.873   9.401  16.539  0.00  0.00    +0.000 HD
ENDBRANCH  13  17
BRANCH  14  19
ATOM     19  O   UNL     1      -3.823  12.024  17.408  0.00  0.00    +0.000 OA
ATOM     20  H   UNL     1      -3.661  12.978  17.562  0.00  0.00    +0.000 HD
ENDBRANCH  14  19
BRANCH  15  21
ATOM     21  O   UNL     1      -2.175  13.161  19.278  0.00  0.00    +0.000 OA
ATOM     22  H   UNL     1      -1.757  13.111  20.161  0.00  0.00    +0.000 HD
ENDBRANCH  15  21
ENDBRANCH   8  11
ENDBRANCH   1   9
BRANCH   4  23
ATOM     23  S   UNL     1       6.029   4.768  18.809  0.00  0.00    +0.000 S 
ATOM     24  O   UNL     1       6.496   4.366  17.495  0.00  0.00    +0.000 OA
ATOM     25  O   UNL     1       6.928   5.380  19.764  0.00  0.00    +0.000 OA
BRANCH  23  26
ATOM     26  N   UNL     1       5.354   3.438  19.580  0.00  0.00    +0.000 N 
ATOM     27  H   UNL     1       5.995   2.833  20.090  0.00  0.00    +0.000 HD
BRANCH  26  28
ATOM     28  C   UNL     1       4.036   3.035  19.277  0.00  0.00    +0.000 A 
ATOM     29  C   UNL     1       3.670   2.739  17.963  0.00  0.00    +0.000 A 
ATOM     30  C   UNL     1       2.343   2.407  17.672  0.00  0.00    +0.000 A 
ATOM     31  C   UNL     1       1.404   2.371  18.699  0.00  0.00    +0.000 A 
ATOM     32  F   UNL     1       0.127   2.081  18.414  0.00  0.00    +0.000 F 
ATOM     33  C   UNL     1       1.783   2.640  20.008  0.00  0.00    +0.000 A 
ATOM     34  F   UNL     1       0.878   2.612  20.995  0.00  0.00    +0.000 F 
ATOM     35  C   UNL     1       3.102   2.961  20.308  0.00  0.00    +0.000 A 
ENDBRANCH  26  28
ENDBRANCH  23  26
ENDBRANCH   4  23
TORSDOF 8
ENDMDL
MODEL 2
REMARK VINA RESULT:      -9.0      5.817      8.092
REMARK  Name = 
REMARK  8 active torsions:
REMARK  status: ('A' for Active; 'I' for Inactive)
REMARK    1  A    between atoms: C_2  and  C_22
REMARK    2  A    between atoms: N_3  and  C_4
REMARK    3  A    between atoms: C_7  and  S_8
REMARK    4  A    between atoms: S_8  and  N_11
REMARK    5  A    between atoms: N_11  and  C_12
REMARK    6  A    between atoms: C_24  and  O_25
REMARK    7  A    between atoms: C_26  and  O_27
REMARK    8  A    between atoms: C_28  and  O_29
REMARK                            x       y       z     vdW  Elec       q    Type
REMARK                         _______ _______ _______ _____ _____    ______ ____
ROOT
ATOM      1  C   UNL     1       8.077   8.506  17.925  0.00  0.00    +0.000 A 
ATOM      2  C   UNL     1       6.911   8.391  17.162  0.00  0.00    +0.000 A 
ATOM      3  C   UNL     1       6.157   7.219  17.176  0.00  0.00    +0.000 A 
ATOM      4  C   UNL     1       6.574   6.142  17.956  0.00  0.00    +0.000 A 
ATOM      5  C   UNL     1       7.731   6.237  18.733  0.00  0.00    +0.000 A 
ATOM      6  C   UNL     1       8.495   7.412  18.697  0.00  0.00    +0.000 A 
ENDROOT
BRANCH   1   9
ATOM      7  O   UNL     1       8.992  10.069  20.249  0.00  0.00    +0.000 OA
ATOM      8  C   UNL     1       9.210  10.391  19.088  0.00  0.00    +0.000 C 
ATOM      9  N   UNL     1       8.848   9.686  17.947  0.00  0.00    +0.000 N 
ATOM     10  H   UNL     1       9.274   9.958  17.071  0.00  0.00    +0.000 HD
BRANCH   8  11
ATOM     11  C   UNL     1      10.017  11.618  18.855  0.00  0.00    +0.000 A 
ATOM     12  C   UNL     1      10.631  11.777  17.599  0.00  0.00    +0.000 A 
ATOM     13  C   UNL     1      11.355  12.935  17.339  0.00  0.00    +0.000 A 
ATOM     14  C   UNL     1      11.469  13.916  18.317  0.00  0.00    +0.000 A 
ATOM     15  C   UNL     1      10.896  13.733  19.568  0.00  0.00    +0.000 A 
ATOM     16  C   UNL     1      10.175  12.584  19.855  0.00  0.00    +0.000 A 
BRANCH  13  17
ATOM     17  O   UNL     1      11.963  13.158  16.135  0.00  0.00    +0.000 OA
ATOM     18  H   UNL     1      11.273  13.252  15.454  0.00  0.00    +0.000 HD
ENDBRANCH  13  17
BRANCH  14  19
ATOM     19  O   UNL     1      12.145  15.077  18.061  0.00  0.00    +0.000 OA
ATOM     20  H   UNL     1      13.075  14.870  18.290  0.00  0.00    +0.000 HD
ENDBRANCH  14  19
BRANCH  15  21
ATOM     21  O   UNL     1      11.026  14.690  20.532  0.00  0.00    +0.000 OA
ATOM     22  H   UNL     1      10.332  15.347  20.323  0.00  0.00    +0.000 HD
ENDBRANCH  15  21
ENDBRANCH   8  11
ENDBRANCH   1   9
BRANCH   4  23
ATOM     23  S   UNL     1       5.589   4.661  17.952  0.00  0.00    +0.000 S 
ATOM     24  O   UNL     1       5.747   4.019  16.660  0.00  0.00    +0.000 OA
ATOM     25  O   UNL     1       5.844   3.939  19.180  0.00  0.00    +0.000 OA
BRANCH  23  26
ATOM     26  N   UNL     1       4.026   5.265  18.075  0.00  0.00    +0.000 N 
ATOM     27  H   UNL     1       3.865   6.193  17.688  0.00  0.00    +0.000 HD
BRANCH  26  28
ATOM     28  C   UNL     1       3.090   4.644  18.929  0.00  0.00    +0.000 A 
ATOM     29  C   UNL     1       2.896   5.114  20.229  0.00  0.00    +0.000 A 
ATOM     30  C   UNL     1       2.014   4.444  21.082  0.00  0.00    +0.000 A 
ATOM     31  C   UNL     1       1.336   3.319  20.623  0.00  0.00    +0.000 A 
ATOM     32  F   UNL     1       0.513   2.662  21.451  0.00  0.00    +0.000 F 
ATOM     33  C   UNL     1       1.514   2.876  19.319  0.00  0.00    +0.000 A 
ATOM     34  F   UNL     1       0.865   1.789  18.879  0.00  0.00    +0.000 F 
ATOM     35  C   UNL     1       2.380   3.541  18.460  0.00  0.00    +0.000 A 
ENDBRANCH  26  28
ENDBRANCH  23  26
ENDBRANCH   4  23
TORSDOF 8
ENDMDL
MODEL 3
REMARK VINA RESULT:      -9.0      0.730      1.685
REMARK  Name = 
REMARK  8 active torsions:
REMARK  status: ('A' for Active; 'I' for Inactive)
REMARK    1  A    between atoms: C_2  and  C_22
REMARK    2  A    between atoms: N_3  and  C_4
REMARK    3  A    between atoms: C_7  and  S_8
REMARK    4  A    between atoms: S_8  and  N_11
REMARK    5  A    between atoms: N_11  and  C_12
REMARK    6  A    between atoms: C_24  and  O_25
REMARK    7  A    between atoms: C_26  and  O_27
REMARK    8  A    between atoms: C_28  and  O_29
REMARK                            x       y       z     vdW  Elec       q    Type
REMARK                         _______ _______ _______ _____ _____    ______ ____
ROOT
ATOM      1  C   UNL     1       2.316   7.701  18.282  0.00  0.00    +0.000 A 
ATOM      2  C   UNL     1       3.214   7.656  17.210  0.00  0.00    +0.000 A 
ATOM      3  C   UNL     1       4.362   6.867  17.270  0.00  0.00    +0.000 A 
ATOM      4  C   UNL     1       4.624   6.119  18.415  0.00  0.00    +0.000 A 
ATOM      5  C   UNL     1       3.736   6.142  19.495  0.00  0.00    +0.000 A 
ATOM      6  C   UNL     1       2.595   6.953  19.435  0.00  0.00    +0.000 A 
ENDROOT
BRANCH   1   9
ATOM      7  O   UNL     1       2.028  10.633  18.268  0.00  0.00    +0.000 OA
ATOM      8  C   UNL     1       1.079   9.860  18.277  0.00  0.00    +0.000 C 
ATOM      9  N   UNL     1       1.137   8.472  18.242  0.00  0.00    +0.000 N 
ATOM     10  H   UNL     1       0.280   7.971  18.041  0.00  0.00    +0.000 HD
BRANCH   8  11
ATOM     11  C   UNL     1      -0.286  10.447  18.238  0.00  0.00    +0.000 A 
ATOM     12  C   UNL     1      -0.530  11.608  18.996  0.00  0.00    +0.000 A 
ATOM     13  C   UNL     1      -1.785  12.203  18.943  0.00  0.00    +0.000 A 
ATOM     14  C   UNL     1      -2.783  11.647  18.151  0.00  0.00    +0.000 A 
ATOM     15  C   UNL     1      -2.547  10.479  17.439  0.00  0.00    +0.000 A 
ATOM     16  C   UNL     1      -1.306   9.862  17.481  0.00  0.00    +0.000 A 
BRANCH  13  17
ATOM     17  O   UNL     1      -2.082  13.338  19.643  0.00  0.00    +0.000 OA
ATOM     18  H   UNL     1      -1.698  13.261  20.535  0.00  0.00    +0.000 HD
ENDBRANCH  13  17
BRANCH  14  19
ATOM     19  O   UNL     1      -4.010  12.244  18.059  0.00  0.00    +0.000 OA
ATOM     20  H   UNL     1      -3.815  13.203  18.099  0.00  0.00    +0.000 HD
ENDBRANCH  14  19
BRANCH  15  21
ATOM     21  O   UNL     1      -3.535   9.926  16.677  0.00  0.00    +0.000 OA
ATOM     22  H   UNL     1      -3.967   9.276  17.268  0.00  0.00    +0.000 HD
ENDBRANCH  15  21
ENDBRANCH   8  11
ENDBRANCH   1   9
BRANCH   4  23
ATOM     23  S   UNL     1       6.097   5.123  18.458  0.00  0.00    +0.000 S 
ATOM     24  O   UNL     1       6.983   5.585  17.405  0.00  0.00    +0.000 OA
ATOM     25  O   UNL     1       6.551   5.037  19.830  0.00  0.00    +0.000 OA
BRANCH  23  26
ATOM     26  N   UNL     1       5.517   3.599  18.056  0.00  0.00    +0.000 N 
ATOM     27  H   UNL     1       6.098   3.040  17.434  0.00  0.00    +0.000 HD
BRANCH  26  28
ATOM     28  C   UNL     1       4.175   3.256  18.325  0.00  0.00    +0.000 A 
ATOM     29  C   UNL     1       3.202   3.367  17.330  0.00  0.00    +0.000 A 
ATOM     30  C   UNL     1       1.866   3.088  17.634  0.00  0.00    +0.000 A 
ATOM     31  C   UNL     1       1.523   2.698  18.925  0.00  0.00    +0.000 A 
ATOM     32  F   UNL     1       0.238   2.459  19.221  0.00  0.00    +0.000 F 
ATOM     33  C   UNL     1       2.502   2.563  19.901  0.00  0.00    +0.000 A 
ATOM     34  F   UNL     1       2.170   2.193  21.145  0.00  0.00    +0.000 F 
ATOM     35  C   UNL     1       3.834   2.828  19.606  0.00  0.00    +0.000 A 
ENDBRANCH  26  28
ENDBRANCH  23  26
ENDBRANCH   4  23
TORSDOF 8
ENDMDL
MODEL 4
REMARK VINA RESULT:      -8.9      6.017      7.986
REMARK  Name = 
REMARK  8 active torsions:
REMARK  status: ('A' for Active; 'I' for Inactive)
REMARK    1  A    between atoms: C_2  and  C_22
REMARK    2  A    between atoms: N_3  and  C_4
REMARK    3  A    between atoms: C_7  and  S_8
REMARK    4  A    between atoms: S_8  and  N_11
REMARK    5  A    between atoms: N_11  and  C_12
REMARK    6  A    between atoms: C_24  and  O_25
REMARK    7  A    between atoms: C_26  and  O_27
REMARK    8  A    between atoms: C_28  and  O_29
REMARK                            x       y       z     vdW  Elec       q    Type
REMARK                         _______ _______ _______ _____ _____    ______ ____
ROOT
ATOM      1  C   UNL     1       8.204   8.818  18.047  0.00  0.00    +0.000 A 
ATOM      2  C   UNL     1       8.639   7.736  18.820  0.00  0.00    +0.000 A 
ATOM      3  C   UNL     1       7.974   6.512  18.777  0.00  0.00    +0.000 A 
ATOM      4  C   UNL     1       6.855   6.364  17.959  0.00  0.00    +0.000 A 
ATOM      5  C   UNL     1       6.408   7.429  17.172  0.00  0.00    +0.000 A 
ATOM      6  C   UNL     1       7.071   8.663  17.236  0.00  0.00    +0.000 A 
ENDROOT
BRANCH   1   9
ATOM      7  O   UNL     1       9.183  10.376  20.348  0.00  0.00    +0.000 OA
ATOM      8  C   UNL     1       9.268  10.757  19.188  0.00  0.00    +0.000 C 
ATOM      9  N   UNL     1       8.869  10.061  18.053  0.00  0.00    +0.000 N 
ATOM     10  H   UNL     1       9.191  10.402  17.156  0.00  0.00    +0.000 HD
BRANCH   8  11
ATOM     11  C   UNL     1       9.941  12.058  18.939  0.00  0.00    +0.000 A 
ATOM     12  C   UNL     1      10.229  12.411  17.607  0.00  0.00    +0.000 A 
ATOM     13  C   UNL     1      10.818  13.642  17.342  0.00  0.00    +0.000 A 
ATOM     14  C   UNL     1      11.121  14.505  18.388  0.00  0.00    +0.000 A 
ATOM     15  C   UNL     1      10.873  14.133  19.703  0.00  0.00    +0.000 A 
ATOM     16  C   UNL     1      10.293  12.907  19.994  0.00  0.00    +0.000 A 
BRANCH  13  17
ATOM     17  O   UNL     1      11.109  14.051  16.071  0.00  0.00    +0.000 OA
ATOM     18  H   UNL     1      10.875  13.334  15.455  0.00  0.00    +0.000 HD
ENDBRANCH  13  17
BRANCH  14  19
ATOM     19  O   UNL     1      11.665  15.735  18.140  0.00  0.00    +0.000 OA
ATOM     20  H   UNL     1      12.562  15.685  18.532  0.00  0.00    +0.000 HD
ENDBRANCH  14  19
BRANCH  15  21
ATOM     21  O   UNL     1      11.190  14.975  20.729  0.00  0.00    +0.000 OA
ATOM     22  H   UNL     1      11.278  15.854  20.308  0.00  0.00    +0.000 HD
ENDBRANCH  15  21
ENDBRANCH   8  11
ENDBRANCH   1   9
BRANCH   4  23
ATOM     23  S   UNL     1       6.030   4.789  17.928  0.00  0.00    +0.000 S 
ATOM     24  O   UNL     1       6.556   4.028  16.809  0.00  0.00    +0.000 OA
ATOM     25  O   UNL     1       6.036   4.244  19.269  0.00  0.00    +0.000 OA
BRANCH  23  26
ATOM     26  N   UNL     1       4.441   5.218  17.598  0.00  0.00    +0.000 N 
ATOM     27  H   UNL     1       4.285   6.169  17.267  0.00  0.00    +0.000 HD
BRANCH  26  28
ATOM     28  C   UNL     1       3.378   4.406  18.045  0.00  0.00    +0.000 A 
ATOM     29  C   UNL     1       3.156   3.151  17.474  0.00  0.00    +0.000 A 
ATOM     30  C   UNL     1       2.058   2.389  17.882  0.00  0.00    +0.000 A 
ATOM     31  C   UNL     1       1.201   2.889  18.858  0.00  0.00    +0.000 A 
ATOM     32  F   UNL     1       0.132   2.169  19.227  0.00  0.00    +0.000 F 
ATOM     33  C   UNL     1       1.445   4.125  19.441  0.00  0.00    +0.000 A 
ATOM     34  F   UNL     1       0.615   4.609  20.376  0.00  0.00    +0.000 F 
ATOM     35  C   UNL     1       2.540   4.886  19.049  0.00  0.00    +0.000 A 
ENDBRANCH  26  28
ENDBRANCH  23  26
ENDBRANCH   4  23
TORSDOF 8
ENDMDL
MODEL 5
REMARK VINA RESULT:      -8.9      0.507      1.806
REMARK  Name = 
REMARK  8 active torsions:
REMARK  status: ('A' for Active; 'I' for Inactive)
REMARK    1  A    between atoms: C_2  and  C_22
REMARK    2  A    between atoms: N_3  and  C_4
REMARK    3  A    between atoms: C_7  and  S_8
REMARK    4  A    between atoms: S_8  and  N_11
REMARK    5  A    between atoms: N_11  and  C_12
REMARK    6  A    between atoms: C_24  and  O_25
REMARK    7  A    between atoms: C_26  and  O_27
REMARK    8  A    between atoms: C_28  and  O_29
REMARK                            x       y       z     vdW  Elec       q    Type
REMARK                         _______ _______ _______ _____ _____    ______ ____
ROOT
ATOM      1  C   UNL     1       2.295   7.384  18.585  0.00  0.00    +0.000 A 
ATOM      2  C   UNL     1       2.615   6.638  19.724  0.00  0.00    +0.000 A 
ATOM      3  C   UNL     1       3.761   5.846  19.763  0.00  0.00    +0.000 A 
ATOM      4  C   UNL     1       4.597   5.789  18.649  0.00  0.00    +0.000 A 
ATOM      5  C   UNL     1       4.301   6.532  17.503  0.00  0.00    +0.000 A 
ATOM      6  C   UNL     1       3.135   7.311  17.465  0.00  0.00    +0.000 A 
ENDROOT
BRANCH   1   9
ATOM      7  O   UNL     1       2.126  10.252  17.930  0.00  0.00    +0.000 OA
ATOM      8  C   UNL     1       1.159   9.571  18.244  0.00  0.00    +0.000 C 
ATOM      9  N   UNL     1       1.154   8.211  18.524  0.00  0.00    +0.000 N 
ATOM     10  H   UNL     1       0.258   7.741  18.560  0.00  0.00    +0.000 HD
BRANCH   8  11
ATOM     11  C   UNL     1      -0.173  10.232  18.250  0.00  0.00    +0.000 A 
ATOM     12  C   UNL     1      -0.408  11.240  19.204  0.00  0.00    +0.000 A 
ATOM     13  C   UNL     1      -1.628  11.905  19.204  0.00  0.00    +0.000 A 
ATOM     14  C   UNL     1      -2.602  11.567  18.272  0.00  0.00    +0.000 A 
ATOM     15  C   UNL     1      -2.379  10.543  17.360  0.00  0.00    +0.000 A 
ATOM     16  C   UNL     1      -1.173   9.860  17.345  0.00  0.00    +0.000 A 
BRANCH  13  17
ATOM     17  O   UNL     1      -1.913  12.902  20.093  0.00  0.00    +0.000 OA
ATOM     18  H   UNL     1      -2.476  13.561  19.649  0.00  0.00    +0.000 HD
ENDBRANCH  13  17
BRANCH  14  19
ATOM     19  O   UNL     1      -3.792  12.239  18.235  0.00  0.00    +0.000 OA
ATOM     20  H   UNL     1      -4.397  11.689  18.775  0.00  0.00    +0.000 HD
ENDBRANCH  14  19
BRANCH  15  21
ATOM     21  O   UNL     1      -3.344  10.202  16.458  0.00  0.00    +0.000 OA
ATOM     22  H   UNL     1      -3.415   9.228  16.529  0.00  0.00    +0.000 HD
ENDBRANCH  15  21
ENDBRANCH   8  11
ENDBRANCH   1   9
BRANCH   4  23
ATOM     23  S   UNL     1       6.051   4.769  18.733  0.00  0.00    +0.000 S 
ATOM     24  O   UNL     1       6.520   4.542  17.378  0.00  0.00    +0.000 OA
ATOM     25  O   UNL     1       6.931   5.310  19.746  0.00  0.00    +0.000 OA
BRANCH  23  26
ATOM     26  N   UNL     1       5.449   3.328  19.351  0.00  0.00    +0.000 N 
ATOM     27  H   UNL     1       6.134   2.659  19.696  0.00  0.00    +0.000 HD
BRANCH  26  28
ATOM     28  C   UNL     1       4.106   2.963  19.121  0.00  0.00    +0.000 A 
ATOM     29  C   UNL     1       3.635   2.775  17.820  0.00  0.00    +0.000 A 
ATOM     30  C   UNL     1       2.285   2.480  17.609  0.00  0.00    +0.000 A 
ATOM     31  C   UNL     1       1.427   2.372  18.699  0.00  0.00    +0.000 A 
ATOM     32  F   UNL     1       0.128   2.117  18.492  0.00  0.00    +0.000 F 
ATOM     33  C   UNL     1       1.910   2.532  19.992  0.00  0.00    +0.000 A 
ATOM     34  F   UNL     1       1.082   2.434  21.041  0.00  0.00    +0.000 F 
ATOM     35  C   UNL     1       3.252   2.815  20.213  0.00  0.00    +0.000 A 
ENDBRANCH  26  28
ENDBRANCH  23  26
ENDBRANCH   4  23
TORSDOF 8
ENDMDL
MODEL 6
REMARK VINA RESULT:      -8.9      0.960      1.411
REMARK  Name = 
REMARK  8 active torsions:
REMARK  status: ('A' for Active; 'I' for Inactive)
REMARK    1  A    between atoms: C_2  and  C_22
REMARK    2  A    between atoms: N_3  and  C_4
REMARK    3  A    between atoms: C_7  and  S_8
REMARK    4  A    between atoms: S_8  and  N_11
REMARK    5  A    between atoms: N_11  and  C_12
REMARK    6  A    between atoms: C_24  and  O_25
REMARK    7  A    between atoms: C_26  and  O_27
REMARK    8  A    between atoms: C_28  and  O_29
REMARK                            x       y       z     vdW  Elec       q    Type
REMARK                         _______ _______ _______ _____ _____    ______ ____
ROOT
ATOM      1  C   UNL     1       2.621   7.634  18.580  0.00  0.00    +0.000 A 
ATOM      2  C   UNL     1       2.837   6.709  19.607  0.00  0.00    +0.000 A 
ATOM      3  C   UNL     1       3.876   5.782  19.530  0.00  0.00    +0.000 A 
ATOM      4  C   UNL     1       4.707   5.771  18.411  0.00  0.00    +0.000 A 
ATOM      5  C   UNL     1       4.514   6.692  17.377  0.00  0.00    +0.000 A 
ATOM      6  C   UNL     1       3.455   7.607  17.453  0.00  0.00    +0.000 A 
ENDROOT
BRANCH   1   9
ATOM      7  O   UNL     1       1.437   8.926  20.948  0.00  0.00    +0.000 OA
ATOM      8  C   UNL     1       1.057   9.133  19.804  0.00  0.00    +0.000 C 
ATOM      9  N   UNL     1       1.592   8.596  18.639  0.00  0.00    +0.000 N 
ATOM     10  H   UNL     1       1.320   9.015  17.759  0.00  0.00    +0.000 HD
BRANCH   8  11
ATOM     11  C   UNL     1      -0.033  10.125  19.611  0.00  0.00    +0.000 A 
ATOM     12  C   UNL     1      -0.469  10.383  18.297  0.00  0.00    +0.000 A 
ATOM     13  C   UNL     1      -1.516  11.272  18.091  0.00  0.00    +0.000 A 
ATOM     14  C   UNL     1      -2.118  11.900  19.176  0.00  0.00    +0.000 A 
ATOM     15  C   UNL     1      -1.655  11.672  20.465  0.00  0.00    +0.000 A 
ATOM     16  C   UNL     1      -0.606  10.795  20.697  0.00  0.00    +0.000 A 
BRANCH  13  17
ATOM     17  O   UNL     1      -1.996  11.555  16.843  0.00  0.00    +0.000 OA
ATOM     18  H   UNL     1      -1.704  12.450  16.595  0.00  0.00    +0.000 HD
ENDBRANCH  13  17
BRANCH  14  19
ATOM     19  O   UNL     1      -3.175  12.747  18.991  0.00  0.00    +0.000 OA
ATOM     20  H   UNL     1      -3.949  12.240  19.314  0.00  0.00    +0.000 HD
ENDBRANCH  14  19
BRANCH  15  21
ATOM     21  O   UNL     1      -2.235  12.304  21.526  0.00  0.00    +0.000 OA
ATOM     22  H   UNL     1      -2.028  13.251  21.393  0.00  0.00    +0.000 HD
ENDBRANCH  15  21
ENDBRANCH   8  11
ENDBRANCH   1   9
BRANCH   4  23
ATOM     23  S   UNL     1       6.023   4.577  18.345  0.00  0.00    +0.000 S 
ATOM     24  O   UNL     1       6.177   4.154  16.966  0.00  0.00    +0.000 OA
ATOM     25  O   UNL     1       7.147   5.093  19.097  0.00  0.00    +0.000 OA
BRANCH  23  26
ATOM     26  N   UNL     1       5.400   3.301  19.242  0.00  0.00    +0.000 N 
ATOM     27  H   UNL     1       6.075   2.715  19.730  0.00  0.00    +0.000 HD
BRANCH  26  28
ATOM     28  C   UNL     1       4.058   2.902  19.073  0.00  0.00    +0.000 A 
ATOM     29  C   UNL     1       3.559   2.613  17.801  0.00  0.00    +0.000 A 
ATOM     30  C   UNL     1       2.209   2.285  17.645  0.00  0.00    +0.000 A 
ATOM     31  C   UNL     1       1.379   2.246  18.761  0.00  0.00    +0.000 A 
ATOM     32  F   UNL     1       0.079   1.960  18.605  0.00  0.00    +0.000 F 
ATOM     33  C   UNL     1       1.889   2.508  20.026  0.00  0.00    +0.000 A 
ATOM     34  F   UNL     1       1.088   2.476  21.099  0.00  0.00    +0.000 F 
ATOM     35  C   UNL     1       3.233   2.824  20.192  0.00  0.00    +0.000 A 
ENDBRANCH  26  28
ENDBRANCH  23  26
ENDBRANCH   4  23
TORSDOF 8
ENDMDL
MODEL 7
REMARK VINA RESULT:      -8.9      5.968      8.086
REMARK  Name = 
REMARK  8 active torsions:
REMARK  status: ('A' for Active; 'I' for Inactive)
REMARK    1  A    between atoms: C_2  and  C_22
REMARK    2  A    between atoms: N_3  and  C_4
REMARK    3  A    between atoms: C_7  and  S_8
REMARK    4  A    between atoms: S_8  and  N_11
REMARK    5  A    between atoms: N_11  and  C_12
REMARK    6  A    between atoms: C_24  and  O_25
REMARK    7  A    between atoms: C_26  and  O_27
REMARK    8  A    between atoms: C_28  and  O_29
REMARK                            x       y       z     vdW  Elec       q    Type
REMARK                         _______ _______ _______ _____ _____    ______ ____
ROOT
ATOM      1  C   UNL     1       8.139   8.744  18.007  0.00  0.00    +0.000 A 
ATOM      2  C   UNL     1       8.591   7.668  18.778  0.00  0.00    +0.000 A 
ATOM      3  C   UNL     1       7.938   6.437  18.743  0.00  0.00    +0.000 A 
ATOM      4  C   UNL     1       6.814   6.277  17.935  0.00  0.00    +0.000 A 
ATOM      5  C   UNL     1       6.350   7.336  17.150  0.00  0.00    +0.000 A 
ATOM      6  C   UNL     1       7.001   8.576  17.206  0.00  0.00    +0.000 A 
ENDROOT
BRANCH   1   9
ATOM      7  O   UNL     1       9.205  10.273  20.289  0.00  0.00    +0.000 OA
ATOM      8  C   UNL     1       9.235  10.674  19.133  0.00  0.00    +0.000 C 
ATOM      9  N   UNL     1       8.792   9.994  18.005  0.00  0.00    +0.000 N 
ATOM     10  H   UNL     1       9.070  10.353  17.100  0.00  0.00    +0.000 HD
BRANCH   8  11
ATOM     11  C   UNL     1       9.884  11.986  18.877  0.00  0.00    +0.000 A 
ATOM     12  C   UNL     1      10.137  12.826  19.979  0.00  0.00    +0.000 A 
ATOM     13  C   UNL     1      10.782  14.039  19.774  0.00  0.00    +0.000 A 
ATOM     14  C   UNL     1      11.164  14.414  18.491  0.00  0.00    +0.000 A 
ATOM     15  C   UNL     1      10.874  13.600  17.404  0.00  0.00    +0.000 A 
ATOM     16  C   UNL     1      10.224  12.388  17.581  0.00  0.00    +0.000 A 
BRANCH  13  17
ATOM     17  O   UNL     1      11.071  14.892  20.802  0.00  0.00    +0.000 OA
ATOM     18  H   UNL     1      10.350  15.543  20.875  0.00  0.00    +0.000 HD
ENDBRANCH  13  17
BRANCH  14  19
ATOM     19  O   UNL     1      11.834  15.587  18.280  0.00  0.00    +0.000 OA
ATOM     20  H   UNL     1      11.285  16.064  17.623  0.00  0.00    +0.000 HD
ENDBRANCH  14  19
BRANCH  15  21
ATOM     21  O   UNL     1      11.233  13.980  16.144  0.00  0.00    +0.000 OA
ATOM     22  H   UNL     1      11.631  14.867  16.257  0.00  0.00    +0.000 HD
ENDBRANCH  15  21
ENDBRANCH   8  11
ENDBRANCH   1   9
BRANCH   4  23
ATOM     23  S   UNL     1       6.004   4.694  17.914  0.00  0.00    +0.000 S 
ATOM     24  O   UNL     1       6.568   3.915  16.826  0.00  0.00    +0.000 OA
ATOM     25  O   UNL     1       5.977   4.176  19.265  0.00  0.00    +0.000 OA
BRANCH  23  26
ATOM     26  N   UNL     1       4.421   5.101  17.532  0.00  0.00    +0.000 N 
ATOM     27  H   UNL     1       4.277   6.011  17.097  0.00  0.00    +0.000 HD
BRANCH  26  28
ATOM     28  C   UNL     1       3.347   4.354  18.060  0.00  0.00    +0.000 A 
ATOM     29  C   UNL     1       3.037   3.095  17.541  0.00  0.00    +0.000 A 
ATOM     30  C   UNL     1       1.928   2.399  18.032  0.00  0.00    +0.000 A 
ATOM     31  C   UNL     1       1.150   2.967  19.036  0.00  0.00    +0.000 A 
ATOM     32  F   UNL     1       0.071   2.311  19.485  0.00  0.00    +0.000 F 
ATOM     33  C   UNL     1       1.483   4.207  19.566  0.00  0.00    +0.000 A 
ATOM     34  F   UNL     1       0.730   4.757  20.528  0.00  0.00    +0.000 F 
ATOM     35  C   UNL     1       2.589   4.903  19.092  0.00  0.00    +0.000 A 
ENDBRANCH  26  28
ENDBRANCH  23  26
ENDBRANCH   4  23
TORSDOF 8
ENDMDL
MODEL 8
REMARK VINA RESULT:      -8.9      1.003      1.986
REMARK  Name = 
REMARK  8 active torsions:
REMARK  status: ('A' for Active; 'I' for Inactive)
REMARK    1  A    between atoms: C_2  and  C_22
REMARK    2  A    between atoms: N_3  and  C_4
REMARK    3  A    between atoms: C_7  and  S_8
REMARK    4  A    between atoms: S_8  and  N_11
REMARK    5  A    between atoms: N_11  and  C_12
REMARK    6  A    between atoms: C_24  and  O_25
REMARK    7  A    between atoms: C_26  and  O_27
REMARK    8  A    between atoms: C_28  and  O_29
REMARK                            x       y       z     vdW  Elec       q    Type
REMARK                         _______ _______ _______ _____ _____    ______ ____
ROOT
ATOM      1  C   UNL     1       2.626   7.623  18.617  0.00  0.00    +0.000 A 
ATOM      2  C   UNL     1       2.845   6.689  19.635  0.00  0.00    +0.000 A 
ATOM      3  C   UNL     1       3.881   5.761  19.545  0.00  0.00    +0.000 A 
ATOM      4  C   UNL     1       4.706   5.756  18.421  0.00  0.00    +0.000 A 
ATOM      5  C   UNL     1       4.510   6.686  17.396  0.00  0.00    +0.000 A 
ATOM      6  C   UNL     1       3.454   7.603  17.485  0.00  0.00    +0.000 A 
ENDROOT
BRANCH   1   9
ATOM      7  O   UNL     1       1.481   8.923  21.000  0.00  0.00    +0.000 OA
ATOM      8  C   UNL     1       1.084   9.129  19.861  0.00  0.00    +0.000 C 
ATOM      9  N   UNL     1       1.600   8.588  18.690  0.00  0.00    +0.000 N 
ATOM     10  H   UNL     1       1.315   9.005  17.813  0.00  0.00    +0.000 HD
BRANCH   8  11
ATOM     11  C   UNL     1      -0.007  10.122  19.682  0.00  0.00    +0.000 A 
ATOM     12  C   UNL     1      -0.586  10.684  20.836  0.00  0.00    +0.000 A 
ATOM     13  C   UNL     1      -1.578  11.648  20.697  0.00  0.00    +0.000 A 
ATOM     14  C   UNL     1      -1.991  12.041  19.430  0.00  0.00    +0.000 A 
ATOM     15  C   UNL     1      -1.445  11.452  18.297  0.00  0.00    +0.000 A 
ATOM     16  C   UNL     1      -0.460  10.483  18.409  0.00  0.00    +0.000 A 
BRANCH  13  17
ATOM     17  O   UNL     1      -2.169  12.243  21.776  0.00  0.00    +0.000 OA
ATOM     18  H   UNL     1      -3.103  12.417  21.560  0.00  0.00    +0.000 HD
ENDBRANCH  13  17
BRANCH  14  19
ATOM     19  O   UNL     1      -2.938  13.016  19.278  0.00  0.00    +0.000 OA
ATOM     20  H   UNL     1      -3.504  12.928  20.074  0.00  0.00    +0.000 HD
ENDBRANCH  14  19
BRANCH  15  21
ATOM     21  O   UNL     1      -1.867  11.827  17.055  0.00  0.00    +0.000 OA
ATOM     22  H   UNL     1      -2.163  10.995  16.633  0.00  0.00    +0.000 HD
ENDBRANCH  15  21
ENDBRANCH   8  11
ENDBRANCH   1   9
BRANCH   4  23
ATOM     23  S   UNL     1       6.018   4.559  18.338  0.00  0.00    +0.000 S 
ATOM     24  O   UNL     1       6.161   4.144  16.955  0.00  0.00    +0.000 OA
ATOM     25  O   UNL     1       7.149   5.068  19.085  0.00  0.00    +0.000 OA
BRANCH  23  26
ATOM     26  N   UNL     1       5.398   3.279  19.232  0.00  0.00    +0.000 N 
ATOM     27  H   UNL     1       6.076   2.690  19.713  0.00  0.00    +0.000 HD
BRANCH  26  28
ATOM     28  C   UNL     1       4.054   2.884  19.069  0.00  0.00    +0.000 A 
ATOM     29  C   UNL     1       3.552   2.588  17.800  0.00  0.00    +0.000 A 
ATOM     30  C   UNL     1       2.200   2.264  17.649  0.00  0.00    +0.000 A 
ATOM     31  C   UNL     1       1.373   2.234  18.768  0.00  0.00    +0.000 A 
ATOM     32  F   UNL     1       0.071   1.951  18.618  0.00  0.00    +0.000 F 
ATOM     33  C   UNL     1       1.887   2.502  20.030  0.00  0.00    +0.000 A 
ATOM     34  F   UNL     1       1.089   2.480  21.106  0.00  0.00    +0.000 F 
ATOM     35  C   UNL     1       3.232   2.815  20.191  0.00  0.00    +0.000 A 
ENDBRANCH  26  28
ENDBRANCH  23  26
ENDBRANCH   4  23
TORSDOF 8
ENDMDL
MODEL 9
REMARK VINA RESULT:      -8.8      5.663      7.974
REMARK  Name = 
REMARK  8 active torsions:
REMARK  status: ('A' for Active; 'I' for Inactive)
REMARK    1  A    between atoms: C_2  and  C_22
REMARK    2  A    between atoms: N_3  and  C_4
REMARK    3  A    between atoms: C_7  and  S_8
REMARK    4  A    between atoms: S_8  and  N_11
REMARK    5  A    between atoms: N_11  and  C_12
REMARK    6  A    between atoms: C_24  and  O_25
REMARK    7  A    between atoms: C_26  and  O_27
REMARK    8  A    between atoms: C_28  and  O_29
REMARK                            x       y       z     vdW  Elec       q    Type
REMARK                         _______ _______ _______ _____ _____    ______ ____
ROOT
ATOM      1  C   UNL     1       7.783   8.483  17.802  0.00  0.00    +0.000 A 
ATOM      2  C   UNL     1       6.593   8.296  17.092  0.00  0.00    +0.000 A 
ATOM      3  C   UNL     1       5.901   7.088  17.158  0.00  0.00    +0.000 A 
ATOM      4  C   UNL     1       6.405   6.047  17.936  0.00  0.00    +0.000 A 
ATOM      5  C   UNL     1       7.589   6.214  18.660  0.00  0.00    +0.000 A 
ATOM      6  C   UNL     1       8.289   7.426  18.572  0.00  0.00    +0.000 A 
ENDROOT
BRANCH   1   9
ATOM      7  O   UNL     1       9.080   9.920  20.024  0.00  0.00    +0.000 OA
ATOM      8  C   UNL     1       9.047  10.339  18.875  0.00  0.00    +0.000 C 
ATOM      9  N   UNL     1       8.493   9.700  17.772  0.00  0.00    +0.000 N 
ATOM     10  H   UNL     1       8.724  10.062  16.854  0.00  0.00    +0.000 HD
BRANCH   8  11
ATOM     11  C   UNL     1       9.739  11.624  18.592  0.00  0.00    +0.000 A 
ATOM     12  C   UNL     1       9.377  12.752  19.353  0.00  0.00    +0.000 A 
ATOM     13  C   UNL     1      10.039  13.955  19.140  0.00  0.00    +0.000 A 
ATOM     14  C   UNL     1      11.041  14.036  18.180  0.00  0.00    +0.000 A 
ATOM     15  C   UNL     1      11.362  12.930  17.404  0.00  0.00    +0.000 A 
ATOM     16  C   UNL     1      10.712  11.720  17.592  0.00  0.00    +0.000 A 
BRANCH  13  17
ATOM     17  O   UNL     1       9.747  15.082  19.855  0.00  0.00    +0.000 OA
ATOM     18  H   UNL     1       9.053  14.866  20.503  0.00  0.00    +0.000 HD
ENDBRANCH  13  17
BRANCH  14  19
ATOM     19  O   UNL     1      11.726  15.203  17.986  0.00  0.00    +0.000 OA
ATOM     20  H   UNL     1      11.173  15.705  17.352  0.00  0.00    +0.000 HD
ENDBRANCH  14  19
BRANCH  15  21
ATOM     21  O   UNL     1      12.333  13.018  16.449  0.00  0.00    +0.000 OA
ATOM     22  H   UNL     1      12.016  12.445  15.722  0.00  0.00    +0.000 HD
ENDBRANCH  15  21
ENDBRANCH   8  11
ENDBRANCH   1   9
BRANCH   4  23
ATOM     23  S   UNL     1       5.498   4.519  17.999  0.00  0.00    +0.000 S 
ATOM     24  O   UNL     1       5.730   3.807  16.756  0.00  0.00    +0.000 OA
ATOM     25  O   UNL     1       5.751   3.890  19.277  0.00  0.00    +0.000 OA
BRANCH  23  26
ATOM     26  N   UNL     1       3.904   5.046  18.038  0.00  0.00    +0.000 N 
ATOM     27  H   UNL     1       3.699   5.915  17.548  0.00  0.00    +0.000 HD
BRANCH  26  28
ATOM     28  C   UNL     1       2.989   4.473  18.946  0.00  0.00    +0.000 A 
ATOM     29  C   UNL     1       2.957   4.890  20.279  0.00  0.00    +0.000 A 
ATOM     30  C   UNL     1       2.091   4.264  21.180  0.00  0.00    +0.000 A 
ATOM     31  C   UNL     1       1.266   3.234  20.736  0.00  0.00    +0.000 A 
ATOM     32  F   UNL     1       0.457   2.616  21.607  0.00  0.00    +0.000 F 
ATOM     33  C   UNL     1       1.284   2.845  19.403  0.00  0.00    +0.000 A 
ATOM     34  F   UNL     1       0.494   1.850  18.977  0.00  0.00    +0.000 F 
ATOM     35  C   UNL     1       2.134   3.469  18.497  0.00  0.00    +0.000 A 
ENDBRANCH  26  28
ENDBRANCH  23  26
ENDBRANCH   4  23
TORSDOF 8
ENDMDL
