MODEL 1
REMARK VINA RESULT:      -7.0      0.000      0.000
REMARK  Name = 
REMARK  4 active torsions:
REMARK  status: ('A' for Active; 'I' for Inactive)
REMARK    1  A    between atoms: C_1  and  C_2
REMARK    2  A    between atoms: C_4  and  C_5
REMARK    3  A    between atoms: C_5  and  O_6
REMARK    4  A    between atoms: N_19  and  C_20
REMARK                            x       y       z     vdW  Elec       q    Type
REMARK                         _______ _______ _______ _____ _____    ______ ____
ROOT
ATOM      1  C   UNL     1       1.843   9.439  17.765  0.00  0.00    +0.000 C 
ATOM      2  C   UNL     1       2.527   8.104  17.772  0.00  0.00    +0.000 A 
ATOM      3  C   UNL     1       3.899   8.004  17.509  0.00  0.00    +0.000 A 
ATOM      4  C   UNL     1       4.573   6.765  17.518  0.00  0.00    +0.000 A 
ATOM      5  C   UNL     1       3.832   5.594  17.807  0.00  0.00    +0.000 A 
ATOM      6  C   UNL     1       2.467   5.700  18.090  0.00  0.00    +0.000 A 
ATOM      7  C   UNL     1       1.813   6.935  18.051  0.00  0.00    +0.000 A 
ATOM      8  O   UNL     1       1.699   4.580  18.291  0.00  0.00    +0.000 OA
ATOM      9  C   UNL     1       1.940   3.915  19.468  0.00  0.00    +0.000 A 
ATOM     10  N   UNL     1       0.802   3.628  20.154  0.00  0.00    +0.000 NA
ATOM     11  C   UNL     1       0.920   2.884  21.274  0.00  0.00    +0.000 A 
ATOM     12  C   UNL     1       2.129   2.437  21.773  0.00  0.00    +0.000 A 
ATOM     13  C   UNL     1       3.281   2.741  21.054  0.00  0.00    +0.000 A 
ATOM     14  C   UNL     1       3.194   3.472  19.859  0.00  0.00    +0.000 A 
ATOM     15  C   UNL     1       4.384   3.488  18.981  0.00  0.00    +0.000 C 
ATOM     16  O   UNL     1       5.278   2.672  19.217  0.00  0.00    +0.000 OA
ATOM     17  N   UNL     1       4.469   4.330  17.876  0.00  0.00    +0.000 N 
ATOM     18  C   UNL     1       4.934   3.715  16.640  0.00  0.00    +0.000 C 
ENDROOT
BRANCH   4  19
ATOM     19  C   UNL     1       6.072   6.721  17.318  0.00  0.00    +0.000 C 
BRANCH  19  20
ATOM     20  O   UNL     1       6.450   6.565  15.953  0.00  0.00    +0.000 OA
ATOM     21  H   UNL     1       7.098   5.840  15.930  0.00  0.00    +0.000 HD
ENDBRANCH  19  20
ENDBRANCH   4  19
TORSDOF 2
ENDMDL
MODEL 2
REMARK VINA RESULT:      -7.0      2.399      3.662
REMARK  Name = 
REMARK  4 active torsions:
REMARK  status: ('A' for Active; 'I' for Inactive)
REMARK    1  A    between atoms: C_1  and  C_2
REMARK    2  A    between atoms: C_4  and  C_5
REMARK    3  A    between atoms: C_5  and  O_6
REMARK    4  A    between atoms: N_19  and  C_20
REMARK                            x       y       z     vdW  Elec       q    Type
REMARK                         _______ _______ _______ _____ _____    ______ ____
ROOT
ATOM      1  C   UNL     1       5.986   3.738  13.094  0.00  0.00    +0.000 C 
ATOM      2  C   UNL     1       5.795   4.134  14.529  0.00  0.00    +0.000 A 
ATOM      3  C   UNL     1       6.208   5.392  14.982  0.00  0.00    +0.000 A 
ATOM      4  C   UNL     1       6.033   5.798  16.322  0.00  0.00    +0.000 A 
ATOM      5  C   UNL     1       5.418   4.899  17.226  0.00  0.00    +0.000 A 
ATOM      6  C   UNL     1       4.988   3.652  16.764  0.00  0.00    +0.000 A 
ATOM      7  C   UNL     1       5.193   3.260  15.438  0.00  0.00    +0.000 A 
ATOM      8  O   UNL     1       4.464   2.722  17.629  0.00  0.00    +0.000 OA
ATOM      9  C   UNL     1       3.217   3.024  18.119  0.00  0.00    +0.000 A 
ATOM     10  N   UNL     1       2.345   1.986  18.017  0.00  0.00    +0.000 NA
ATOM     11  C   UNL     1       1.122   2.143  18.565  0.00  0.00    +0.000 A 
ATOM     12  C   UNL     1       0.704   3.306  19.184  0.00  0.00    +0.000 A 
ATOM     13  C   UNL     1       1.613   4.355  19.278  0.00  0.00    +0.000 A 
ATOM     14  C   UNL     1       2.910   4.213  18.762  0.00  0.00    +0.000 A 
ATOM     15  C   UNL     1       3.920   5.214  19.169  0.00  0.00    +0.000 C 
ATOM     16  O   UNL     1       3.640   5.954  20.115  0.00  0.00    +0.000 OA
ATOM     17  N   UNL     1       5.176   5.274  18.571  0.00  0.00    +0.000 N 
ATOM     18  C   UNL     1       6.309   5.389  19.478  0.00  0.00    +0.000 C 
ENDROOT
BRANCH   4  19
ATOM     19  C   UNL     1       6.414   7.202  16.740  0.00  0.00    +0.000 C 
BRANCH  19  20
ATOM     20  O   UNL     1       7.823   7.399  16.823  0.00  0.00    +0.000 OA
ATOM     21  H   UNL     1       8.059   7.289  17.760  0.00  0.00    +0.000 HD
ENDBRANCH  19  20
ENDBRANCH   4  19
TORSDOF 2
ENDMDL
MODEL 3
REMARK VINA RESULT:      -6.9      2.126      4.854
REMARK  Name = 
REMARK  4 active torsions:
REMARK  status: ('A' for Active; 'I' for Inactive)
REMARK    1  A    between atoms: C_1  and  C_2
REMARK    2  A    between atoms: C_4  and  C_5
REMARK    3  A    between atoms: C_5  and  O_6
REMARK    4  A    between atoms: N_19  and  C_20
REMARK                            x       y       z     vdW  Elec       q    Type
REMARK                         _______ _______ _______ _____ _____    ______ ____
ROOT
ATOM      1  C   UNL     1       1.173   8.057  20.831  0.00  0.00    +0.000 C 
ATOM      2  C   UNL     1       1.851   6.769  20.463  0.00  0.00    +0.000 A 
ATOM      3  C   UNL     1       1.267   5.539  20.786  0.00  0.00    +0.000 A 
ATOM      4  C   UNL     1       1.874   4.312  20.445  0.00  0.00    +0.000 A 
ATOM      5  C   UNL     1       3.108   4.337  19.753  0.00  0.00    +0.000 A 
ATOM      6  C   UNL     1       3.677   5.567  19.413  0.00  0.00    +0.000 A 
ATOM      7  C   UNL     1       3.071   6.772  19.783  0.00  0.00    +0.000 A 
ATOM      8  O   UNL     1       4.913   5.633  18.818  0.00  0.00    +0.000 OA
ATOM      9  C   UNL     1       4.951   5.202  17.514  0.00  0.00    +0.000 A 
ATOM     10  N   UNL     1       5.586   6.075  16.689  0.00  0.00    +0.000 NA
ATOM     11  C   UNL     1       5.771   5.699  15.406  0.00  0.00    +0.000 A 
ATOM     12  C   UNL     1       5.320   4.499  14.887  0.00  0.00    +0.000 A 
ATOM     13  C   UNL     1       4.674   3.620  15.750  0.00  0.00    +0.000 A 
ATOM     14  C   UNL     1       4.504   3.956  17.103  0.00  0.00    +0.000 A 
ATOM     15  C   UNL     1       4.112   2.873  18.031  0.00  0.00    +0.000 C 
ATOM     16  O   UNL     1       4.200   1.713  17.622  0.00  0.00    +0.000 OA
ATOM     17  N   UNL     1       3.736   3.133  19.345  0.00  0.00    +0.000 N 
ATOM     18  C   UNL     1       4.339   2.283  20.361  0.00  0.00    +0.000 C 
ENDROOT
BRANCH   4  19
ATOM     19  C   UNL     1       1.157   3.010  20.736  0.00  0.00    +0.000 C 
BRANCH  19  20
ATOM     20  O   UNL     1       1.365   2.542  22.066  0.00  0.00    +0.000 OA
ATOM     21  H   UNL     1       1.473   3.334  22.620  0.00  0.00    +0.000 HD
ENDBRANCH  19  20
ENDBRANCH   4  19
TORSDOF 2
ENDMDL
MODEL 4
REMARK VINA RESULT:      -6.7      1.955      5.046
REMARK  Name = 
REMARK  4 active torsions:
REMARK  status: ('A' for Active; 'I' for Inactive)
REMARK    1  A    between atoms: C_1  and  C_2
REMARK    2  A    between atoms: C_4  and  C_5
REMARK    3  A    between atoms: C_5  and  O_6
REMARK    4  A    between atoms: N_19  and  C_20
REMARK                            x       y       z     vdW  Elec       q    Type
REMARK                         _______ _______ _______ _____ _____    ______ ____
ROOT
ATOM      1  C   UNL     1       1.089   2.329  21.867  0.00  0.00    +0.000 C 
ATOM      2  C   UNL     1       1.917   3.200  20.967  0.00  0.00    +0.000 A 
ATOM      3  C   UNL     1       2.626   2.646  19.895  0.00  0.00    +0.000 A 
ATOM      4  C   UNL     1       3.405   3.439  19.026  0.00  0.00    +0.000 A 
ATOM      5  C   UNL     1       3.461   4.835  19.252  0.00  0.00    +0.000 A 
ATOM      6  C   UNL     1       2.735   5.386  20.311  0.00  0.00    +0.000 A 
ATOM      7  C   UNL     1       1.990   4.580  21.176  0.00  0.00    +0.000 A 
ATOM      8  O   UNL     1       2.832   6.723  20.614  0.00  0.00    +0.000 OA
ATOM      9  C   UNL     1       2.241   7.567  19.707  0.00  0.00    +0.000 A 
ATOM     10  N   UNL     1       1.435   8.491  20.294  0.00  0.00    +0.000 NA
ATOM     11  C   UNL     1       0.887   9.435  19.500  0.00  0.00    +0.000 A 
ATOM     12  C   UNL     1       1.072   9.486  18.131  0.00  0.00    +0.000 A 
ATOM     13  C   UNL     1       1.901   8.531  17.552  0.00  0.00    +0.000 A 
ATOM     14  C   UNL     1       2.527   7.562  18.350  0.00  0.00    +0.000 A 
ATOM     15  C   UNL     1       3.634   6.789  17.745  0.00  0.00    +0.000 C 
ATOM     16  O   UNL     1       4.102   7.201  16.681  0.00  0.00    +0.000 OA
ATOM     17  N   UNL     1       4.190   5.683  18.381  0.00  0.00    +0.000 N 
ATOM     18  C   UNL     1       5.645   5.632  18.414  0.00  0.00    +0.000 C 
ENDROOT
BRANCH   4  19
ATOM     19  C   UNL     1       4.077   2.805  17.827  0.00  0.00    +0.000 C 
BRANCH  19  20
ATOM     20  O   UNL     1       4.039   1.381  17.852  0.00  0.00    +0.000 OA
ATOM     21  H   UNL     1       4.940   1.080  17.643  0.00  0.00    +0.000 HD
ENDBRANCH  19  20
ENDBRANCH   4  19
TORSDOF 2
ENDMDL
MODEL 5
REMARK VINA RESULT:      -6.4      2.221      4.443
REMARK  Name = 
REMARK  4 active torsions:
REMARK  status: ('A' for Active; 'I' for Inactive)
REMARK    1  A    between atoms: C_1  and  C_2
REMARK    2  A    between atoms: C_4  and  C_5
REMARK    3  A    between atoms: C_5  and  O_6
REMARK    4  A    between atoms: N_19  and  C_20
REMARK                            x       y       z     vdW  Elec       q    Type
REMARK                         _______ _______ _______ _____ _____    ______ ____
ROOT
ATOM      1  C   UNL     1       7.448   6.630  17.065  0.00  0.00    +0.000 C 
ATOM      2  C   UNL     1       6.141   6.123  17.599  0.00  0.00    +0.000 A 
ATOM      3  C   UNL     1       6.063   4.873  18.225  0.00  0.00    +0.000 A 
ATOM      4  C   UNL     1       4.851   4.373  18.747  0.00  0.00    +0.000 A 
ATOM      5  C   UNL     1       3.686   5.169  18.631  0.00  0.00    +0.000 A 
ATOM      6  C   UNL     1       3.772   6.425  18.025  0.00  0.00    +0.000 A 
ATOM      7  C   UNL     1       4.978   6.891  17.492  0.00  0.00    +0.000 A 
ATOM      8  O   UNL     1       2.649   7.188  17.819  0.00  0.00    +0.000 OA
ATOM      9  C   UNL     1       2.095   7.722  18.956  0.00  0.00    +0.000 A 
ATOM     10  N   UNL     1       1.831   9.051  18.839  0.00  0.00    +0.000 NA
ATOM     11  C   UNL     1       1.190   9.651  19.864  0.00  0.00    +0.000 A 
ATOM     12  C   UNL     1       0.825   8.999  21.027  0.00  0.00    +0.000 A 
ATOM     13  C   UNL     1       1.104   7.640  21.124  0.00  0.00    +0.000 A 
ATOM     14  C   UNL     1       1.728   6.969  20.060  0.00  0.00    +0.000 A 
ATOM     15  C   UNL     1       1.706   5.490  20.079  0.00  0.00    +0.000 C 
ATOM     16  O   UNL     1       0.942   4.942  20.876  0.00  0.00    +0.000 OA
ATOM     17  N   UNL     1       2.453   4.735  19.180  0.00  0.00    +0.000 N 
ATOM     18  C   UNL     1       1.751   3.635  18.534  0.00  0.00    +0.000 C 
ENDROOT
BRANCH   4  19
ATOM     19  C   UNL     1       4.839   3.058  19.495  0.00  0.00    +0.000 C 
BRANCH  19  20
ATOM     20  O   UNL     1       4.484   1.950  18.672  0.00  0.00    +0.000 OA
ATOM     21  H   UNL     1       5.267   1.374  18.636  0.00  0.00    +0.000 HD
ENDBRANCH  19  20
ENDBRANCH   4  19
TORSDOF 2
ENDMDL
MODEL 6
REMARK VINA RESULT:      -6.2      6.815      9.308
REMARK  Name = 
REMARK  4 active torsions:
REMARK  status: ('A' for Active; 'I' for Inactive)
REMARK    1  A    between atoms: C_1  and  C_2
REMARK    2  A    between atoms: C_4  and  C_5
REMARK    3  A    between atoms: C_5  and  O_6
REMARK    4  A    between atoms: N_19  and  C_20
REMARK                            x       y       z     vdW  Elec       q    Type
REMARK                         _______ _______ _______ _____ _____    ______ ____
ROOT
ATOM      1  C   UNL     1      -2.860   9.699  15.880  0.00  0.00    +0.000 C 
ATOM      2  C   UNL     1      -2.738  10.491  17.149  0.00  0.00    +0.000 A 
ATOM      3  C   UNL     1      -3.830  11.210  17.648  0.00  0.00    +0.000 A 
ATOM      4  C   UNL     1      -3.750  11.956  18.843  0.00  0.00    +0.000 A 
ATOM      5  C   UNL     1      -2.526  11.967  19.552  0.00  0.00    +0.000 A 
ATOM      6  C   UNL     1      -1.444  11.230  19.062  0.00  0.00    +0.000 A 
ATOM      7  C   UNL     1      -1.536  10.518  17.862  0.00  0.00    +0.000 A 
ATOM      8  O   UNL     1      -0.217  11.285  19.676  0.00  0.00    +0.000 OA
ATOM      9  C   UNL     1      -0.151  10.659  20.896  0.00  0.00    +0.000 A 
ATOM     10  N   UNL     1       0.918   9.827  21.005  0.00  0.00    +0.000 NA
ATOM     11  C   UNL     1       1.134   9.242  22.202  0.00  0.00    +0.000 A 
ATOM     12  C   UNL     1       0.311   9.416  23.299  0.00  0.00    +0.000 A 
ATOM     13  C   UNL     1      -0.777  10.272  23.166  0.00  0.00    +0.000 A 
ATOM     14  C   UNL     1      -1.008  10.936  21.950  0.00  0.00    +0.000 A 
ATOM     15  C   UNL     1      -1.965  12.063  21.960  0.00  0.00    +0.000 C 
ATOM     16  O   UNL     1      -2.310  12.510  23.056  0.00  0.00    +0.000 OA
ATOM     17  N   UNL     1      -2.406  12.661  20.782  0.00  0.00    +0.000 N 
ATOM     18  C   UNL     1      -2.393  14.117  20.763  0.00  0.00    +0.000 C 
ENDROOT
BRANCH   4  19
ATOM     19  C   UNL     1      -4.985  12.641  19.387  0.00  0.00    +0.000 C 
BRANCH  19  20
ATOM     20  O   UNL     1      -5.741  13.313  18.383  0.00  0.00    +0.000 OA
ATOM     21  H   UNL     1      -6.569  12.814  18.284  0.00  0.00    +0.000 HD
ENDBRANCH  19  20
ENDBRANCH   4  19
TORSDOF 2
ENDMDL
MODEL 7
REMARK VINA RESULT:      -6.2      1.711      4.830
REMARK  Name = 
REMARK  4 active torsions:
REMARK  status: ('A' for Active; 'I' for Inactive)
REMARK    1  A    between atoms: C_1  and  C_2
REMARK    2  A    between atoms: C_4  and  C_5
REMARK    3  A    between atoms: C_5  and  O_6
REMARK    4  A    between atoms: N_19  and  C_20
REMARK                            x       y       z     vdW  Elec       q    Type
REMARK                         _______ _______ _______ _____ _____    ______ ____
ROOT
ATOM      1  C   UNL     1       1.951   9.355  17.957  0.00  0.00    +0.000 C 
ATOM      2  C   UNL     1       2.506   7.967  18.088  0.00  0.00    +0.000 A 
ATOM      3  C   UNL     1       1.729   6.938  18.635  0.00  0.00    +0.000 A 
ATOM      4  C   UNL     1       2.218   5.621  18.762  0.00  0.00    +0.000 A 
ATOM      5  C   UNL     1       3.533   5.341  18.318  0.00  0.00    +0.000 A 
ATOM      6  C   UNL     1       4.297   6.366  17.753  0.00  0.00    +0.000 A 
ATOM      7  C   UNL     1       3.803   7.671  17.659  0.00  0.00    +0.000 A 
ATOM      8  O   UNL     1       5.604   6.154  17.389  0.00  0.00    +0.000 OA
ATOM      9  C   UNL     1       5.776   5.354  16.286  0.00  0.00    +0.000 A 
ATOM     10  N   UNL     1       6.629   5.890  15.374  0.00  0.00    +0.000 NA
ATOM     11  C   UNL     1       6.948   5.137  14.301  0.00  0.00    +0.000 A 
ATOM     12  C   UNL     1       6.428   3.878  14.067  0.00  0.00    +0.000 A 
ATOM     13  C   UNL     1       5.557   3.348  15.013  0.00  0.00    +0.000 A 
ATOM     14  C   UNL     1       5.238   4.082  16.167  0.00  0.00    +0.000 A 
ATOM     15  C   UNL     1       4.581   3.357  17.277  0.00  0.00    +0.000 C 
ATOM     16  O   UNL     1       4.579   2.125  17.230  0.00  0.00    +0.000 OA
ATOM     17  N   UNL     1       4.055   4.025  18.379  0.00  0.00    +0.000 N 
ATOM     18  C   UNL     1       4.391   3.468  19.681  0.00  0.00    +0.000 C 
ENDROOT
BRANCH   4  19
ATOM     19  C   UNL     1       1.307   4.525  19.274  0.00  0.00    +0.000 C 
BRANCH  19  20
ATOM     20  O   UNL     1       1.060   4.613  20.674  0.00  0.00    +0.000 OA
ATOM     21  H   UNL     1       1.520   3.859  21.081  0.00  0.00    +0.000 HD
ENDBRANCH  19  20
ENDBRANCH   4  19
TORSDOF 2
ENDMDL
MODEL 8
REMARK VINA RESULT:      -6.1      1.967      5.246
REMARK  Name = 
REMARK  4 active torsions:
REMARK  status: ('A' for Active; 'I' for Inactive)
REMARK    1  A    between atoms: C_1  and  C_2
REMARK    2  A    between atoms: C_4  and  C_5
REMARK    3  A    between atoms: C_5  and  O_6
REMARK    4  A    between atoms: N_19  and  C_20
REMARK                            x       y       z     vdW  Elec       q    Type
REMARK                         _______ _______ _______ _____ _____    ______ ____
ROOT
ATOM      1  C   UNL     1       1.387   2.595  21.443  0.00  0.00    +0.000 C 
ATOM      2  C   UNL     1       1.767   3.759  20.576  0.00  0.00    +0.000 A 
ATOM      3  C   UNL     1       1.652   5.070  21.052  0.00  0.00    +0.000 A 
ATOM      4  C   UNL     1       2.011   6.184  20.265  0.00  0.00    +0.000 A 
ATOM      5  C   UNL     1       2.503   5.958  18.957  0.00  0.00    +0.000 A 
ATOM      6  C   UNL     1       2.637   4.647  18.493  0.00  0.00    +0.000 A 
ATOM      7  C   UNL     1       2.252   3.557  19.281  0.00  0.00    +0.000 A 
ATOM      8  O   UNL     1       3.030   4.391  17.202  0.00  0.00    +0.000 OA
ATOM      9  C   UNL     1       4.347   4.671  16.932  0.00  0.00    +0.000 A 
ATOM     10  N   UNL     1       4.982   3.653  16.294  0.00  0.00    +0.000 NA
ATOM     11  C   UNL     1       6.252   3.866  15.889  0.00  0.00    +0.000 A 
ATOM     12  C   UNL     1       6.942   5.041  16.120  0.00  0.00    +0.000 A 
ATOM     13  C   UNL     1       6.273   6.070  16.774  0.00  0.00    +0.000 A 
ATOM     14  C   UNL     1       4.936   5.903  17.169  0.00  0.00    +0.000 A 
ATOM     15  C   UNL     1       4.183   7.116  17.558  0.00  0.00    +0.000 C 
ATOM     16  O   UNL     1       4.681   8.209  17.280  0.00  0.00    +0.000 OA
ATOM     17  N   UNL     1       2.922   7.040  18.142  0.00  0.00    +0.000 N 
ATOM     18  C   UNL     1       1.911   7.931  17.593  0.00  0.00    +0.000 C 
ENDROOT
BRANCH   4  19
ATOM     19  C   UNL     1       1.955   7.576  20.858  0.00  0.00    +0.000 C 
BRANCH  19  20
ATOM     20  O   UNL     1       0.634   7.981  21.210  0.00  0.00    +0.000 OA
ATOM     21  H   UNL     1       0.379   7.443  21.979  0.00  0.00    +0.000 HD
ENDBRANCH  19  20
ENDBRANCH   4  19
TORSDOF 2
ENDMDL
MODEL 9
REMARK VINA RESULT:      -6.1      6.008      8.695
REMARK  Name = 
REMARK  4 active torsions:
REMARK  status: ('A' for Active; 'I' for Inactive)
REMARK    1  A    between atoms: C_1  and  C_2
REMARK    2  A    between atoms: C_4  and  C_5
REMARK    3  A    between atoms: C_5  and  O_6
REMARK    4  A    between atoms: N_19  and  C_20
REMARK                            x       y       z     vdW  Elec       q    Type
REMARK                         _______ _______ _______ _____ _____    ______ ____
ROOT
ATOM      1  C   UNL     1      -3.663  10.262  15.325  0.00  0.00    +0.000 C 
ATOM      2  C   UNL     1      -3.154  10.762  16.645  0.00  0.00    +0.000 A 
ATOM      3  C   UNL     1      -4.013  11.411  17.540  0.00  0.00    +0.000 A 
ATOM      4  C   UNL     1      -3.568  11.884  18.792  0.00  0.00    +0.000 A 
ATOM      5  C   UNL     1      -2.211  11.687  19.146  0.00  0.00    +0.000 A 
ATOM      6  C   UNL     1      -1.363  11.019  18.259  0.00  0.00    +0.000 A 
ATOM      7  C   UNL     1      -1.818  10.581  17.012  0.00  0.00    +0.000 A 
ATOM      8  O   UNL     1      -0.023  10.885  18.530  0.00  0.00    +0.000 OA
ATOM      9  C   UNL     1       0.277  10.013  19.548  0.00  0.00    +0.000 A 
ATOM     10  N   UNL     1       1.252   9.127  19.212  0.00  0.00    +0.000 NA
ATOM     11  C   UNL     1       1.695   8.293  20.177  0.00  0.00    +0.000 A 
ATOM     12  C   UNL     1       1.189   8.271  21.462  0.00  0.00    +0.000 A 
ATOM     13  C   UNL     1       0.193   9.188  21.784  0.00  0.00    +0.000 A 
ATOM     14  C   UNL     1      -0.261  10.103  20.822  0.00  0.00    +0.000 A 
ATOM     15  C   UNL     1      -1.070  11.247  21.296  0.00  0.00    +0.000 C 
ATOM     16  O   UNL     1      -1.087  11.469  22.509  0.00  0.00    +0.000 OA
ATOM     17  N   UNL     1      -1.724  12.100  20.411  0.00  0.00    +0.000 N 
ATOM     18  C   UNL     1      -1.570  13.525  20.668  0.00  0.00    +0.000 C 
ENDROOT
BRANCH   4  19
ATOM     19  C   UNL     1      -4.556  12.497  19.761  0.00  0.00    +0.000 C 
BRANCH  19  20
ATOM     20  O   UNL     1      -5.028  13.775  19.344  0.00  0.00    +0.000 OA
ATOM     21  H   UNL     1      -4.843  14.387  20.076  0.00  0.00    +0.000 HD
ENDBRANCH  19  20
ENDBRANCH   4  19
TORSDOF 2
ENDMDL
