MODEL 1
REMARK VINA RESULT:      -8.9      0.000      0.000
REMARK  Name = 
REMARK  8 active torsions:
REMARK  status: ('A' for Active; 'I' for Inactive)
REMARK    1  A    between atoms: C_1  and  C_2
REMARK    2  A    between atoms: C_5  and  O_6
REMARK    3  A    between atoms: C_7  and  C_8
REMARK    4  A    between atoms: C_7  and  C_9
REMARK    5  A    between atoms: C_14  and  C_15
REMARK    6  A    between atoms: C_19  and  C_20
REMARK    7  A    between atoms: C_21  and  C_22
REMARK    8  A    between atoms: C_22  and  O_24
REMARK                            x       y       z     vdW  Elec       q    Type
REMARK                         _______ _______ _______ _____ _____    ______ ____
ROOT
ATOM      1  C   UNL     1       4.832   2.157  20.360  0.00  0.00    +0.000 C 
ATOM      2  C   UNL     1       3.732   3.186  20.059  0.00  0.00    +0.000 C 
ATOM      3  C   UNL     1       2.364   2.478  20.032  0.00  0.00    +0.000 C 
ATOM      4  C   UNL     1       1.199   3.456  19.893  0.00  0.00    +0.000 C 
ATOM      5  C   UNL     1       1.361   4.427  18.722  0.00  0.00    +0.000 C 
ATOM      6  C   UNL     1       2.751   5.136  18.688  0.00  0.00    +0.000 C 
ATOM      7  C   UNL     1       2.825   6.124  19.887  0.00  0.00    +0.000 C 
ATOM      8  C   UNL     1       2.817   6.035  17.427  0.00  0.00    +0.000 C 
ATOM      9  C   UNL     1       3.934   4.056  18.763  0.00  0.00    +0.000 C 
ATOM     10  C   UNL     1       4.047   3.133  17.518  0.00  0.00    +0.000 C 
ATOM     11  C   UNL     1       5.064   3.873  16.745  0.00  0.00    +0.000 A 
ATOM     12  C   UNL     1       5.367   3.705  15.411  0.00  0.00    +0.000 A 
ATOM     13  C   UNL     1       6.345   4.522  14.846  0.00  0.00    +0.000 A 
ATOM     14  C   UNL     1       6.987   5.483  15.657  0.00  0.00    +0.000 A 
ATOM     15  C   UNL     1       6.663   5.670  17.011  0.00  0.00    +0.000 A 
ATOM     16  C   UNL     1       5.687   4.824  17.539  0.00  0.00    +0.000 A 
ATOM     17  O   UNL     1       5.245   4.757  18.846  0.00  0.00    +0.000 OA
ENDROOT
BRANCH  13  18
ATOM     18  C   UNL     1       6.690   4.390  13.376  0.00  0.00    +0.000 C 
ATOM     19  O   UNL     1       7.555   5.204  12.931  0.00  0.00    +0.000 OA
ATOM     20  O   UNL     1       6.110   3.462  12.740  0.00  0.00    +0.000 OA
ENDBRANCH  13  18
BRANCH   5  21
ATOM     21  O   UNL     1       1.110   3.758  17.489  0.00  0.00    +0.000 OA
ATOM     22  H   UNL     1       0.165   3.792  17.264  0.00  0.00    +0.000 HD
ENDBRANCH   5  21
BRANCH  15  23
ATOM     23  C   UNL     1       7.369   6.677  17.819  0.00  0.00    +0.000 C 
ATOM     24  C   UNL     1       7.573   7.942  17.403  0.00  0.00    +0.000 C 
BRANCH  24  25
ATOM     25  C   UNL     1       8.343   8.880  18.241  0.00  0.00    +0.000 C 
ATOM     26  O   UNL     1       8.413  10.079  18.015  0.00  0.00    +0.000 OA
BRANCH  25  27
ATOM     27  O   UNL     1       8.919   8.282  19.290  0.00  0.00    +0.000 OA
ATOM     28  H   UNL     1       9.880   8.132  19.228  0.00  0.00    +0.000 HD
ENDBRANCH  25  27
ENDBRANCH  24  25
ENDBRANCH  15  23
TORSDOF 5
ENDMDL
MODEL 2
REMARK VINA RESULT:      -7.1      1.458      4.811
REMARK  Name = 
REMARK  8 active torsions:
REMARK  status: ('A' for Active; 'I' for Inactive)
REMARK    1  A    between atoms: C_1  and  C_2
REMARK    2  A    between atoms: C_5  and  O_6
REMARK    3  A    between atoms: C_7  and  C_8
REMARK    4  A    between atoms: C_7  and  C_9
REMARK    5  A    between atoms: C_14  and  C_15
REMARK    6  A    between atoms: C_19  and  C_20
REMARK    7  A    between atoms: C_21  and  C_22
REMARK    8  A    between atoms: C_22  and  O_24
REMARK                            x       y       z     vdW  Elec       q    Type
REMARK                         _______ _______ _______ _____ _____    ______ ____
ROOT
ATOM      1  C   UNL     1       0.804   4.811  17.102  0.00  0.00    +0.000 C 
ATOM      2  C   UNL     1       1.477   3.739  17.974  0.00  0.00    +0.000 C 
ATOM      3  C   UNL     1       0.795   3.701  19.354  0.00  0.00    +0.000 C 
ATOM      4  C   UNL     1       1.300   2.556  20.229  0.00  0.00    +0.000 C 
ATOM      5  C   UNL     1       2.824   2.512  20.345  0.00  0.00    +0.000 C 
ATOM      6  C   UNL     1       3.558   2.589  18.970  0.00  0.00    +0.000 C 
ATOM      7  C   UNL     1       3.295   1.264  18.201  0.00  0.00    +0.000 C 
ATOM      8  C   UNL     1       5.087   2.605  19.224  0.00  0.00    +0.000 C 
ATOM      9  C   UNL     1       3.039   3.852  18.127  0.00  0.00    +0.000 C 
ATOM     10  C   UNL     1       3.412   5.232  18.735  0.00  0.00    +0.000 C 
ATOM     11  C   UNL     1       4.650   5.514  17.983  0.00  0.00    +0.000 A 
ATOM     12  C   UNL     1       5.605   6.461  18.292  0.00  0.00    +0.000 A 
ATOM     13  C   UNL     1       6.728   6.560  17.473  0.00  0.00    +0.000 A 
ATOM     14  C   UNL     1       6.846   5.696  16.364  0.00  0.00    +0.000 A 
ATOM     15  C   UNL     1       5.885   4.716  16.061  0.00  0.00    +0.000 A 
ATOM     16  C   UNL     1       4.772   4.658  16.899  0.00  0.00    +0.000 A 
ATOM     17  O   UNL     1       3.664   3.841  16.776  0.00  0.00    +0.000 OA
ENDROOT
BRANCH  13  18
ATOM     18  C   UNL     1       7.815   7.569  17.792  0.00  0.00    +0.000 C 
ATOM     19  O   UNL     1       7.834   8.613  17.074  0.00  0.00    +0.000 OA
ATOM     20  O   UNL     1       8.576   7.290  18.764  0.00  0.00    +0.000 OA
ENDBRANCH  13  18
BRANCH   5  21
ATOM     21  O   UNL     1       3.282   3.544  21.215  0.00  0.00    +0.000 OA
ATOM     22  H   UNL     1       3.342   3.223  22.130  0.00  0.00    +0.000 HD
ENDBRANCH   5  21
BRANCH  15  23
ATOM     23  C   UNL     1       6.046   3.846  14.886  0.00  0.00    +0.000 C 
ATOM     24  C   UNL     1       5.685   4.217  13.641  0.00  0.00    +0.000 C 
BRANCH  24  25
ATOM     25  C   UNL     1       5.820   3.268  12.519  0.00  0.00    +0.000 C 
ATOM     26  O   UNL     1       4.877   2.905  11.832  0.00  0.00    +0.000 OA
BRANCH  25  27
ATOM     27  O   UNL     1       7.085   2.883  12.318  0.00  0.00    +0.000 OA
ATOM     28  H   UNL     1       7.631   3.466  11.759  0.00  0.00    +0.000 HD
ENDBRANCH  25  27
ENDBRANCH  24  25
ENDBRANCH  15  23
TORSDOF 5
ENDMDL
MODEL 3
REMARK VINA RESULT:      -6.7      2.679      6.551
REMARK  Name = 
REMARK  8 active torsions:
REMARK  status: ('A' for Active; 'I' for Inactive)
REMARK    1  A    between atoms: C_1  and  C_2
REMARK    2  A    between atoms: C_5  and  O_6
REMARK    3  A    between atoms: C_7  and  C_8
REMARK    4  A    between atoms: C_7  and  C_9
REMARK    5  A    between atoms: C_14  and  C_15
REMARK    6  A    between atoms: C_19  and  C_20
REMARK    7  A    between atoms: C_21  and  C_22
REMARK    8  A    between atoms: C_22  and  O_24
REMARK                            x       y       z     vdW  Elec       q    Type
REMARK                         _______ _______ _______ _____ _____    ______ ____
ROOT
ATOM      1  C   UNL     1       7.686   5.699  18.834  0.00  0.00    +0.000 C 
ATOM      2  C   UNL     1       6.884   4.847  17.838  0.00  0.00    +0.000 C 
ATOM      3  C   UNL     1       7.529   4.948  16.443  0.00  0.00    +0.000 C 
ATOM      4  C   UNL     1       6.885   4.008  15.428  0.00  0.00    +0.000 C 
ATOM      5  C   UNL     1       5.362   4.140  15.362  0.00  0.00    +0.000 C 
ATOM      6  C   UNL     1       4.670   4.083  16.760  0.00  0.00    +0.000 C 
ATOM      7  C   UNL     1       4.804   2.637  17.313  0.00  0.00    +0.000 C 
ATOM      8  C   UNL     1       3.147   4.296  16.568  0.00  0.00    +0.000 C 
ATOM      9  C   UNL     1       5.340   5.143  17.761  0.00  0.00    +0.000 C 
ATOM     10  C   UNL     1       5.105   6.631  17.379  0.00  0.00    +0.000 C 
ATOM     11  C   UNL     1       3.921   6.922  18.210  0.00  0.00    +0.000 A 
ATOM     12  C   UNL     1       3.068   7.998  18.080  0.00  0.00    +0.000 A 
ATOM     13  C   UNL     1       1.979   8.088  18.946  0.00  0.00    +0.000 A 
ATOM     14  C   UNL     1       1.791   7.082  19.918  0.00  0.00    +0.000 A 
ATOM     15  C   UNL     1       2.647   5.974  20.036  0.00  0.00    +0.000 A 
ATOM     16  C   UNL     1       3.730   5.928  19.158  0.00  0.00    +0.000 A 
ATOM     17  O   UNL     1       4.745   4.992  19.118  0.00  0.00    +0.000 OA
ENDROOT
BRANCH  13  18
ATOM     18  C   UNL     1       1.001   9.240  18.821  0.00  0.00    +0.000 C 
ATOM     19  O   UNL     1       0.705   9.594  17.640  0.00  0.00    +0.000 OA
ATOM     20  O   UNL     1       0.548   9.717  19.902  0.00  0.00    +0.000 OA
ENDBRANCH  13  18
BRANCH   5  21
ATOM     21  O   UNL     1       5.000   5.334  14.673  0.00  0.00    +0.000 OA
ATOM     22  H   UNL     1       4.606   5.127  13.809  0.00  0.00    +0.000 HD
ENDBRANCH   5  21
BRANCH  15  23
ATOM     23  C   UNL     1       2.418   4.957  21.075  0.00  0.00    +0.000 C 
ATOM     24  C   UNL     1       2.293   3.643  20.803  0.00  0.00    +0.000 C 
BRANCH  24  25
ATOM     25  C   UNL     1       2.003   2.688  21.889  0.00  0.00    +0.000 C 
ATOM     26  O   UNL     1       0.901   2.577  22.407  0.00  0.00    +0.000 OA
BRANCH  25  27
ATOM     27  O   UNL     1       3.061   1.938  22.214  0.00  0.00    +0.000 OA
ATOM     28  H   UNL     1       3.869   2.418  22.472  0.00  0.00    +0.000 HD
ENDBRANCH  25  27
ENDBRANCH  24  25
ENDBRANCH  15  23
TORSDOF 5
ENDMDL
MODEL 4
REMARK VINA RESULT:      -6.4      7.718     10.293
REMARK  Name = 
REMARK  8 active torsions:
REMARK  status: ('A' for Active; 'I' for Inactive)
REMARK    1  A    between atoms: C_1  and  C_2
REMARK    2  A    between atoms: C_5  and  O_6
REMARK    3  A    between atoms: C_7  and  C_8
REMARK    4  A    between atoms: C_7  and  C_9
REMARK    5  A    between atoms: C_14  and  C_15
REMARK    6  A    between atoms: C_19  and  C_20
REMARK    7  A    between atoms: C_21  and  C_22
REMARK    8  A    between atoms: C_22  and  O_24
REMARK                            x       y       z     vdW  Elec       q    Type
REMARK                         _______ _______ _______ _____ _____    ______ ____
ROOT
ATOM      1  C   UNL     1      -2.135  11.967  23.199  0.00  0.00    +0.000 C 
ATOM      2  C   UNL     1      -1.297  13.066  22.530  0.00  0.00    +0.000 C 
ATOM      3  C   UNL     1      -1.896  14.444  22.869  0.00  0.00    +0.000 C 
ATOM      4  C   UNL     1      -1.032  15.600  22.371  0.00  0.00    +0.000 C 
ATOM      5  C   UNL     1      -0.666  15.488  20.890  0.00  0.00    +0.000 C 
ATOM      6  C   UNL     1      -0.091  14.091  20.494  0.00  0.00    +0.000 C 
ATOM      7  C   UNL     1       1.312  13.938  21.145  0.00  0.00    +0.000 C 
ATOM      8  C   UNL     1       0.174  14.080  18.967  0.00  0.00    +0.000 C 
ATOM      9  C   UNL     1      -1.077  12.921  20.978  0.00  0.00    +0.000 C 
ATOM     10  C   UNL     1      -2.449  12.889  20.250  0.00  0.00    +0.000 C 
ATOM     11  C   UNL     1      -2.152  11.904  19.192  0.00  0.00    +0.000 A 
ATOM     12  C   UNL     1      -2.888  11.676  18.048  0.00  0.00    +0.000 A 
ATOM     13  C   UNL     1      -2.430  10.719  17.146  0.00  0.00    +0.000 A 
ATOM     14  C   UNL     1      -1.237  10.020  17.434  0.00  0.00    +0.000 A 
ATOM     15  C   UNL     1      -0.475  10.268  18.588  0.00  0.00    +0.000 A 
ATOM     16  C   UNL     1      -0.974  11.226  19.470  0.00  0.00    +0.000 A 
ATOM     17  O   UNL     1      -0.456  11.597  20.695  0.00  0.00    +0.000 OA
ENDROOT
BRANCH  13  18
ATOM     18  C   UNL     1      -3.194  10.455  15.863  0.00  0.00    +0.000 C 
ATOM     19  O   UNL     1      -4.395  10.861  15.836  0.00  0.00    +0.000 OA
ATOM     20  O   UNL     1      -2.554   9.887  14.931  0.00  0.00    +0.000 OA
ENDBRANCH  13  18
BRANCH   5  21
ATOM     21  O   UNL     1      -1.791  15.814  20.078  0.00  0.00    +0.000 OA
ATOM     22  H   UNL     1      -2.481  15.135  20.156  0.00  0.00    +0.000 HD
ENDBRANCH   5  21
BRANCH  15  23
ATOM     23  C   UNL     1       0.755   9.505  18.851  0.00  0.00    +0.000 C 
ATOM     24  C   UNL     1       1.318   8.681  17.945  0.00  0.00    +0.000 C 
BRANCH  24  25
ATOM     25  C   UNL     1       2.519   7.901  18.301  0.00  0.00    +0.000 C 
ATOM     26  O   UNL     1       2.618   7.260  19.337  0.00  0.00    +0.000 OA
BRANCH  25  27
ATOM     27  O   UNL     1       3.462   7.942  17.354  0.00  0.00    +0.000 OA
ATOM     28  H   UNL     1       4.303   7.495  17.560  0.00  0.00    +0.000 HD
ENDBRANCH  25  27
ENDBRANCH  24  25
ENDBRANCH  15  23
TORSDOF 5
ENDMDL
MODEL 5
REMARK VINA RESULT:      -6.3      2.763      4.370
REMARK  Name = 
REMARK  8 active torsions:
REMARK  status: ('A' for Active; 'I' for Inactive)
REMARK    1  A    between atoms: C_1  and  C_2
REMARK    2  A    between atoms: C_5  and  O_6
REMARK    3  A    between atoms: C_7  and  C_8
REMARK    4  A    between atoms: C_7  and  C_9
REMARK    5  A    between atoms: C_14  and  C_15
REMARK    6  A    between atoms: C_19  and  C_20
REMARK    7  A    between atoms: C_21  and  C_22
REMARK    8  A    between atoms: C_22  and  O_24
REMARK                            x       y       z     vdW  Elec       q    Type
REMARK                         _______ _______ _______ _____ _____    ______ ____
ROOT
ATOM      1  C   UNL     1       2.248   4.478  21.896  0.00  0.00    +0.000 C 
ATOM      2  C   UNL     1       1.950   3.690  20.611  0.00  0.00    +0.000 C 
ATOM      3  C   UNL     1       2.207   2.191  20.859  0.00  0.00    +0.000 C 
ATOM      4  C   UNL     1       1.784   1.319  19.679  0.00  0.00    +0.000 C 
ATOM      5  C   UNL     1       2.369   1.784  18.344  0.00  0.00    +0.000 C 
ATOM      6  C   UNL     1       2.167   3.308  18.071  0.00  0.00    +0.000 C 
ATOM      7  C   UNL     1       0.654   3.562  17.821  0.00  0.00    +0.000 C 
ATOM      8  C   UNL     1       2.858   3.667  16.731  0.00  0.00    +0.000 C 
ATOM      9  C   UNL     1       2.695   4.175  19.313  0.00  0.00    +0.000 C 
ATOM     10  C   UNL     1       4.232   4.120  19.533  0.00  0.00    +0.000 C 
ATOM     11  C   UNL     1       4.638   5.331  18.794  0.00  0.00    +0.000 A 
ATOM     12  C   UNL     1       5.913   5.655  18.379  0.00  0.00    +0.000 A 
ATOM     13  C   UNL     1       6.096   6.835  17.663  0.00  0.00    +0.000 A 
ATOM     14  C   UNL     1       4.978   7.653  17.391  0.00  0.00    +0.000 A 
ATOM     15  C   UNL     1       3.675   7.313  17.794  0.00  0.00    +0.000 A 
ATOM     16  C   UNL     1       3.538   6.129  18.517  0.00  0.00    +0.000 A 
ATOM     17  O   UNL     1       2.387   5.614  19.083  0.00  0.00    +0.000 OA
ENDROOT
BRANCH  13  18
ATOM     18  C   UNL     1       7.477   7.216  17.164  0.00  0.00    +0.000 C 
ATOM     19  O   UNL     1       7.910   6.562  16.168  0.00  0.00    +0.000 OA
ATOM     20  O   UNL     1       8.051   8.171  17.766  0.00  0.00    +0.000 OA
ENDBRANCH  13  18
BRANCH   5  21
ATOM     21  O   UNL     1       3.750   1.441  18.265  0.00  0.00    +0.000 OA
ATOM     22  H   UNL     1       3.868   0.586  17.817  0.00  0.00    +0.000 HD
ENDBRANCH   5  21
BRANCH  15  23
ATOM     23  C   UNL     1       2.543   8.205  17.498  0.00  0.00    +0.000 C 
ATOM     24  C   UNL     1       2.092   9.133  18.365  0.00  0.00    +0.000 C 
BRANCH  24  25
ATOM     25  C   UNL     1       0.911   9.951  18.023  0.00  0.00    +0.000 C 
ATOM     26  O   UNL     1      -0.170   9.470  17.716  0.00  0.00    +0.000 OA
BRANCH  25  27
ATOM     27  O   UNL     1       1.145  11.263  18.125  0.00  0.00    +0.000 OA
ATOM     28  H   UNL     1       0.365  11.846  18.093  0.00  0.00    +0.000 HD
ENDBRANCH  25  27
ENDBRANCH  24  25
ENDBRANCH  15  23
TORSDOF 5
ENDMDL
MODEL 6
REMARK VINA RESULT:      -6.2      8.728     11.714
REMARK  Name = 
REMARK  8 active torsions:
REMARK  status: ('A' for Active; 'I' for Inactive)
REMARK    1  A    between atoms: C_1  and  C_2
REMARK    2  A    between atoms: C_5  and  O_6
REMARK    3  A    between atoms: C_7  and  C_8
REMARK    4  A    between atoms: C_7  and  C_9
REMARK    5  A    between atoms: C_14  and  C_15
REMARK    6  A    between atoms: C_19  and  C_20
REMARK    7  A    between atoms: C_21  and  C_22
REMARK    8  A    between atoms: C_22  and  O_24
REMARK                            x       y       z     vdW  Elec       q    Type
REMARK                         _______ _______ _______ _____ _____    ______ ____
ROOT
ATOM      1  C   UNL     1       3.357  14.619  17.796  0.00  0.00    +0.000 C 
ATOM      2  C   UNL     1       2.323  15.508  18.504  0.00  0.00    +0.000 C 
ATOM      3  C   UNL     1       3.054  16.549  19.373  0.00  0.00    +0.000 C 
ATOM      4  C   UNL     1       2.103  17.573  19.989  0.00  0.00    +0.000 C 
ATOM      5  C   UNL     1       0.927  16.935  20.731  0.00  0.00    +0.000 C 
ATOM      6  C   UNL     1       0.183  15.844  19.900  0.00  0.00    +0.000 C 
ATOM      7  C   UNL     1      -0.567  16.546  18.733  0.00  0.00    +0.000 C 
ATOM      8  C   UNL     1      -0.936  15.229  20.780  0.00  0.00    +0.000 C 
ATOM      9  C   UNL     1       1.222  14.758  19.341  0.00  0.00    +0.000 C 
ATOM     10  C   UNL     1       1.895  13.883  20.435  0.00  0.00    +0.000 C 
ATOM     11  C   UNL     1       0.995  12.713  20.413  0.00  0.00    +0.000 A 
ATOM     12  C   UNL     1       0.903  11.727  21.373  0.00  0.00    +0.000 A 
ATOM     13  C   UNL     1      -0.033  10.711  21.190  0.00  0.00    +0.000 A 
ATOM     14  C   UNL     1      -0.846  10.728  20.036  0.00  0.00    +0.000 A 
ATOM     15  C   UNL     1      -0.769  11.745  19.070  0.00  0.00    +0.000 A 
ATOM     16  C   UNL     1       0.189  12.736  19.285  0.00  0.00    +0.000 A 
ATOM     17  O   UNL     1       0.510  13.794  18.457  0.00  0.00    +0.000 OA
ENDROOT
BRANCH  13  18
ATOM     18  C   UNL     1      -0.186   9.621  22.233  0.00  0.00    +0.000 C 
ATOM     19  O   UNL     1      -0.528   8.480  21.800  0.00  0.00    +0.000 OA
ATOM     20  O   UNL     1       0.073   9.944  23.430  0.00  0.00    +0.000 OA
ENDBRANCH  13  18
BRANCH   5  21
ATOM     21  O   UNL     1       1.363  16.403  21.980  0.00  0.00    +0.000 OA
ATOM     22  H   UNL     1       1.039  16.945  22.718  0.00  0.00    +0.000 HD
ENDBRANCH   5  21
BRANCH  15  23
ATOM     23  C   UNL     1      -1.629  11.712  17.877  0.00  0.00    +0.000 C 
ATOM     24  C   UNL     1      -2.000  10.568  17.268  0.00  0.00    +0.000 C 
BRANCH  24  25
ATOM     25  C   UNL     1      -2.815  10.615  16.039  0.00  0.00    +0.000 C 
ATOM     26  O   UNL     1      -2.764   9.760  15.167  0.00  0.00    +0.000 OA
BRANCH  25  27
ATOM     27  O   UNL     1      -3.636  11.670  16.005  0.00  0.00    +0.000 OA
ATOM     28  H   UNL     1      -4.449  11.604  16.539  0.00  0.00    +0.000 HD
ENDBRANCH  25  27
ENDBRANCH  24  25
ENDBRANCH  15  23
TORSDOF 5
ENDMDL
MODEL 7
REMARK VINA RESULT:      -6.2      9.721     12.766
REMARK  Name = 
REMARK  8 active torsions:
REMARK  status: ('A' for Active; 'I' for Inactive)
REMARK    1  A    between atoms: C_1  and  C_2
REMARK    2  A    between atoms: C_5  and  O_6
REMARK    3  A    between atoms: C_7  and  C_8
REMARK    4  A    between atoms: C_7  and  C_9
REMARK    5  A    between atoms: C_14  and  C_15
REMARK    6  A    between atoms: C_19  and  C_20
REMARK    7  A    between atoms: C_21  and  C_22
REMARK    8  A    between atoms: C_22  and  O_24
REMARK                            x       y       z     vdW  Elec       q    Type
REMARK                         _______ _______ _______ _____ _____    ______ ____
ROOT
ATOM      1  C   UNL     1      -1.511  16.778  21.390  0.00  0.00    +0.000 C 
ATOM      2  C   UNL     1      -2.939  16.258  21.617  0.00  0.00    +0.000 C 
ATOM      3  C   UNL     1      -3.545  16.953  22.851  0.00  0.00    +0.000 C 
ATOM      4  C   UNL     1      -5.019  16.608  23.056  0.00  0.00    +0.000 C 
ATOM      5  C   UNL     1      -5.293  15.104  23.057  0.00  0.00    +0.000 C 
ATOM      6  C   UNL     1      -4.661  14.353  21.843  0.00  0.00    +0.000 C 
ATOM      7  C   UNL     1      -5.422  14.778  20.556  0.00  0.00    +0.000 C 
ATOM      8  C   UNL     1      -4.948  12.837  21.993  0.00  0.00    +0.000 C 
ATOM      9  C   UNL     1      -3.098  14.697  21.723  0.00  0.00    +0.000 C 
ATOM     10  C   UNL     1      -2.226  14.153  22.888  0.00  0.00    +0.000 C 
ATOM     11  C   UNL     1      -1.770  12.882  22.293  0.00  0.00    +0.000 A 
ATOM     12  C   UNL     1      -1.204  11.816  22.960  0.00  0.00    +0.000 A 
ATOM     13  C   UNL     1      -0.862  10.682  22.227  0.00  0.00    +0.000 A 
ATOM     14  C   UNL     1      -1.105  10.666  20.836  0.00  0.00    +0.000 A 
ATOM     15  C   UNL     1      -1.703  11.743  20.159  0.00  0.00    +0.000 A 
ATOM     16  C   UNL     1      -2.019  12.862  20.929  0.00  0.00    +0.000 A 
ATOM     17  O   UNL     1      -2.542  14.065  20.494  0.00  0.00    +0.000 OA
ENDROOT
BRANCH  13  18
ATOM     18  C   UNL     1      -0.262   9.477  22.924  0.00  0.00    +0.000 C 
ATOM     19  O   UNL     1      -0.581   8.344  22.453  0.00  0.00    +0.000 OA
ATOM     20  O   UNL     1       0.525   9.715  23.886  0.00  0.00    +0.000 OA
ENDBRANCH  13  18
BRANCH   5  21
ATOM     21  O   UNL     1      -4.859  14.524  24.284  0.00  0.00    +0.000 OA
ATOM     22  H   UNL     1      -3.896  14.392  24.281  0.00  0.00    +0.000 HD
ENDBRANCH   5  21
BRANCH  15  23
ATOM     23  C   UNL     1      -1.924  11.685  18.706  0.00  0.00    +0.000 C 
ATOM     24  C   UNL     1      -2.318  10.565  18.066  0.00  0.00    +0.000 C 
BRANCH  24  25
ATOM     25  C   UNL     1      -2.461  10.566  16.597  0.00  0.00    +0.000 C 
ATOM     26  O   UNL     1      -2.745   9.568  15.952  0.00  0.00    +0.000 OA
BRANCH  25  27
ATOM     27  O   UNL     1      -2.285  11.778  16.062  0.00  0.00    +0.000 OA
ATOM     28  H   UNL     1      -2.017  11.803  15.125  0.00  0.00    +0.000 HD
ENDBRANCH  25  27
ENDBRANCH  24  25
ENDBRANCH  15  23
TORSDOF 5
ENDMDL
MODEL 8
REMARK VINA RESULT:      -6.2      8.564     11.105
REMARK  Name = 
REMARK  8 active torsions:
REMARK  status: ('A' for Active; 'I' for Inactive)
REMARK    1  A    between atoms: C_1  and  C_2
REMARK    2  A    between atoms: C_5  and  O_6
REMARK    3  A    between atoms: C_7  and  C_8
REMARK    4  A    between atoms: C_7  and  C_9
REMARK    5  A    between atoms: C_14  and  C_15
REMARK    6  A    between atoms: C_19  and  C_20
REMARK    7  A    between atoms: C_21  and  C_22
REMARK    8  A    between atoms: C_22  and  O_24
REMARK                            x       y       z     vdW  Elec       q    Type
REMARK                         _______ _______ _______ _____ _____    ______ ____
ROOT
ATOM      1  C   UNL     1      -3.867  12.574  23.251  0.00  0.00    +0.000 C 
ATOM      2  C   UNL     1      -2.947  13.685  22.723  0.00  0.00    +0.000 C 
ATOM      3  C   UNL     1      -3.696  15.031  22.764  0.00  0.00    +0.000 C 
ATOM      4  C   UNL     1      -2.801  16.214  22.402  0.00  0.00    +0.000 C 
ATOM      5  C   UNL     1      -2.047  16.021  21.085  0.00  0.00    +0.000 C 
ATOM      6  C   UNL     1      -1.306  14.651  20.985  0.00  0.00    +0.000 C 
ATOM      7  C   UNL     1      -0.120  14.662  21.990  0.00  0.00    +0.000 C 
ATOM      8  C   UNL     1      -0.643  14.547  19.588  0.00  0.00    +0.000 C 
ATOM      9  C   UNL     1      -2.313  13.444  21.303  0.00  0.00    +0.000 C 
ATOM     10  C   UNL     1      -3.437  13.245  20.249  0.00  0.00    +0.000 C 
ATOM     11  C   UNL     1      -2.811  12.211  19.402  0.00  0.00    +0.000 A 
ATOM     12  C   UNL     1      -3.202  11.839  18.133  0.00  0.00    +0.000 A 
ATOM     13  C   UNL     1      -2.464  10.857  17.474  0.00  0.00    +0.000 A 
ATOM     14  C   UNL     1      -1.352  10.282  18.127  0.00  0.00    +0.000 A 
ATOM     15  C   UNL     1      -0.940  10.677  19.411  0.00  0.00    +0.000 A 
ATOM     16  C   UNL     1      -1.712  11.654  20.039  0.00  0.00    +0.000 A 
ATOM     17  O   UNL     1      -1.562  12.157  21.317  0.00  0.00    +0.000 OA
ENDROOT
BRANCH  13  18
ATOM     18  C   UNL     1      -2.841  10.437  16.067  0.00  0.00    +0.000 C 
ATOM     19  O   UNL     1      -3.204  11.367  15.286  0.00  0.00    +0.000 OA
ATOM     20  O   UNL     1      -2.728   9.206  15.796  0.00  0.00    +0.000 OA
ENDBRANCH  13  18
BRANCH   5  21
ATOM     21  O   UNL     1      -2.932  16.193  19.981  0.00  0.00    +0.000 OA
ATOM     22  H   UNL     1      -3.588  15.477  19.951  0.00  0.00    +0.000 HD
ENDBRANCH   5  21
BRANCH  15  23
ATOM     23  C   UNL     1       0.219  10.039  20.056  0.00  0.00    +0.000 C 
ATOM     24  C   UNL     1       0.131   9.350  21.211  0.00  0.00    +0.000 C 
BRANCH  24  25
ATOM     25  C   UNL     1       1.346   8.789  21.831  0.00  0.00    +0.000 C 
ATOM     26  O   UNL     1       1.889   9.283  22.808  0.00  0.00    +0.000 OA
BRANCH  25  27
ATOM     27  O   UNL     1       1.761   7.668  21.231  0.00  0.00    +0.000 OA
ATOM     28  H   UNL     1       1.154   6.906  21.270  0.00  0.00    +0.000 HD
ENDBRANCH  25  27
ENDBRANCH  24  25
ENDBRANCH  15  23
TORSDOF 5
ENDMDL
MODEL 9
REMARK VINA RESULT:      -6.2      7.924     11.233
REMARK  Name = 
REMARK  8 active torsions:
REMARK  status: ('A' for Active; 'I' for Inactive)
REMARK    1  A    between atoms: C_1  and  C_2
REMARK    2  A    between atoms: C_5  and  O_6
REMARK    3  A    between atoms: C_7  and  C_8
REMARK    4  A    between atoms: C_7  and  C_9
REMARK    5  A    between atoms: C_14  and  C_15
REMARK    6  A    between atoms: C_19  and  C_20
REMARK    7  A    between atoms: C_21  and  C_22
REMARK    8  A    between atoms: C_22  and  O_24
REMARK                            x       y       z     vdW  Elec       q    Type
REMARK                         _______ _______ _______ _____ _____    ______ ____
ROOT
ATOM      1  C   UNL     1       2.928  14.711  17.884  0.00  0.00    +0.000 C 
ATOM      2  C   UNL     1       1.925  15.310  18.882  0.00  0.00    +0.000 C 
ATOM      3  C   UNL     1       2.679  16.179  19.906  0.00  0.00    +0.000 C 
ATOM      4  C   UNL     1       1.739  16.937  20.840  0.00  0.00    +0.000 C 
ATOM      5  C   UNL     1       0.700  16.038  21.512  0.00  0.00    +0.000 C 
ATOM      6  C   UNL     1      -0.060  15.109  20.513  0.00  0.00    +0.000 C 
ATOM      7  C   UNL     1      -0.983  15.994  19.629  0.00  0.00    +0.000 C 
ATOM      8  C   UNL     1      -1.029  14.205  21.317  0.00  0.00    +0.000 C 
ATOM      9  C   UNL     1       0.979  14.286  19.610  0.00  0.00    +0.000 C 
ATOM     10  C   UNL     1       1.827  13.243  20.390  0.00  0.00    +0.000 C 
ATOM     11  C   UNL     1       1.010  12.034  20.168  0.00  0.00    +0.000 A 
ATOM     12  C   UNL     1       1.094  10.845  20.862  0.00  0.00    +0.000 A 
ATOM     13  C   UNL     1       0.212   9.820  20.526  0.00  0.00    +0.000 A 
ATOM     14  C   UNL     1      -0.726  10.033  19.493  0.00  0.00    +0.000 A 
ATOM     15  C   UNL     1      -0.826  11.252  18.801  0.00  0.00    +0.000 A 
ATOM     16  C   UNL     1       0.082  12.247  19.161  0.00  0.00    +0.000 A 
ATOM     17  O   UNL     1       0.236  13.496  18.589  0.00  0.00    +0.000 OA
ENDROOT
BRANCH  13  18
ATOM     18  C   UNL     1       0.251   8.505  21.281  0.00  0.00    +0.000 C 
ATOM     19  O   UNL     1      -0.792   8.210  21.939  0.00  0.00    +0.000 OA
ATOM     20  O   UNL     1       1.304   7.813  21.158  0.00  0.00    +0.000 OA
ENDBRANCH  13  18
BRANCH   5  21
ATOM     21  O   UNL     1       1.309  15.268  22.545  0.00  0.00    +0.000 OA
ATOM     22  H   UNL     1       2.264  15.440  22.586  0.00  0.00    +0.000 HD
ENDBRANCH   5  21
BRANCH  15  23
ATOM     23  C   UNL     1      -1.813  11.422  17.723  0.00  0.00    +0.000 C 
ATOM     24  C   UNL     1      -2.260  10.400  16.966  0.00  0.00    +0.000 C 
BRANCH  24  25
ATOM     25  C   UNL     1      -3.204  10.657  15.862  0.00  0.00    +0.000 C 
ATOM     26  O   UNL     1      -4.334  11.091  16.034  0.00  0.00    +0.000 OA
BRANCH  25  27
ATOM     27  O   UNL     1      -2.676  10.400  14.661  0.00  0.00    +0.000 OA
ATOM     28  H   UNL     1      -2.034  11.051  14.322  0.00  0.00    +0.000 HD
ENDBRANCH  25  27
ENDBRANCH  24  25
ENDBRANCH  15  23
TORSDOF 5
ENDMDL
