MODEL 1
REMARK VINA RESULT:      -9.3      0.000      0.000
REMARK  Name = 
REMARK  4 active torsions:
REMARK  status: ('A' for Active; 'I' for Inactive)
REMARK    1  A    between atoms: C_2  and  C_14
REMARK    2  A    between atoms: N_3  and  C_4
REMARK    3  A    between atoms: C_16  and  C_17
REMARK    4  A    between atoms: C_17  and  C_18
REMARK                            x       y       z     vdW  Elec       q    Type
REMARK                         _______ _______ _______ _____ _____    ______ ____
ROOT
ATOM      1  C   UNL     1       0.281   9.870  21.664  0.00  0.00    +0.000 A 
ATOM      2  C   UNL     1      -0.057  10.767  20.626  0.00  0.00    +0.000 A 
ATOM      3  C   UNL     1      -1.027  11.769  20.818  0.00  0.00    +0.000 A 
ATOM      4  C   UNL     1      -1.643  11.869  22.072  0.00  0.00    +0.000 A 
ATOM      5  C   UNL     1      -1.288  11.001  23.109  0.00  0.00    +0.000 A 
ATOM      6  C   UNL     1      -0.332  10.014  22.902  0.00  0.00    +0.000 A 
ATOM      7  F   UNL     1      -0.034   9.195  23.925  0.00  0.00    +0.000 F 
ENDROOT
BRANCH   1   9
ATOM      8  O   UNL     1       2.132   8.555  22.220  0.00  0.00    +0.000 OA
ATOM      9  C   UNL     1       1.264   8.789  21.385  0.00  0.00    +0.000 C 
ATOM     10  N   UNL     1       1.208   8.103  20.174  0.00  0.00    +0.000 N 
ATOM     11  H   UNL     1       0.606   8.441  19.427  0.00  0.00    +0.000 HD
BRANCH  10  12
ATOM     12  C   UNL     1       2.259   7.147  19.900  0.00  0.00    +0.000 C 
ATOM     13  C   UNL     1       2.969   7.467  18.565  0.00  0.00    +0.000 C 
ATOM     14  C   UNL     1       3.276   6.128  17.977  0.00  0.00    +0.000 C 
ATOM     15  O   UNL     1       3.959   5.908  16.993  0.00  0.00    +0.000 OA
ATOM     16  C   UNL     1       2.596   5.096  18.731  0.00  0.00    +0.000 A 
ATOM     17  C   UNL     1       2.657   3.729  18.515  0.00  0.00    +0.000 A 
ATOM     18  C   UNL     1       1.996   2.906  19.418  0.00  0.00    +0.000 A 
ATOM     19  C   UNL     1       1.278   3.469  20.490  0.00  0.00    +0.000 A 
ATOM     20  C   UNL     1       1.227   4.863  20.684  0.00  0.00    +0.000 A 
ATOM     21  C   UNL     1       1.903   5.687  19.794  0.00  0.00    +0.000 A 
ENDBRANCH  10  12
ENDBRANCH   1   9
BRANCH   3  22
ATOM     22  C   UNL     1      -1.404  12.706  19.684  0.00  0.00    +0.000 C 
BRANCH  22  23
ATOM     23  C   UNL     1      -2.186  12.017  18.568  0.00  0.00    +0.000 A 
ATOM     24  N   UNL     1      -1.491  11.526  17.583  0.00  0.00    +0.000 NA
ATOM     25  N   UNL     1      -2.154  10.968  16.533  0.00  0.00    +0.000 N 
ATOM     26  C   UNL     1      -3.513  10.970  16.344  0.00  0.00    +0.000 A 
ATOM     27  O   UNL     1      -4.037  10.574  15.312  0.00  0.00    +0.000 OA
ATOM     28  C   UNL     1      -4.318  11.453  17.479  0.00  0.00    +0.000 A 
ATOM     29  C   UNL     1      -5.717  11.374  17.423  0.00  0.00    +0.000 A 
ATOM     30  C   UNL     1      -6.475  11.765  18.523  0.00  0.00    +0.000 A 
ATOM     31  C   UNL     1      -5.837  12.225  19.674  0.00  0.00    +0.000 A 
ATOM     32  C   UNL     1      -4.441  12.315  19.723  0.00  0.00    +0.000 A 
ATOM     33  C   UNL     1      -3.673  11.941  18.614  0.00  0.00    +0.000 A 
ATOM     34  H   UNL     1      -1.581  10.628  15.767  0.00  0.00    +0.000 HD
ENDBRANCH  22  23
ENDBRANCH   3  22
TORSDOF 4
ENDMDL
MODEL 2
REMARK VINA RESULT:      -9.3      2.305      3.568
REMARK  Name = 
REMARK  4 active torsions:
REMARK  status: ('A' for Active; 'I' for Inactive)
REMARK    1  A    between atoms: C_2  and  C_14
REMARK    2  A    between atoms: N_3  and  C_4
REMARK    3  A    between atoms: C_16  and  C_17
REMARK    4  A    between atoms: C_17  and  C_18
REMARK                            x       y       z     vdW  Elec       q    Type
REMARK                         _______ _______ _______ _____ _____    ______ ____
ROOT
ATOM      1  C   UNL     1       1.370   8.934  19.515  0.00  0.00    +0.000 A 
ATOM      2  C   UNL     1       0.875  10.201  19.132  0.00  0.00    +0.000 A 
ATOM      3  C   UNL     1       0.128  10.990  20.028  0.00  0.00    +0.000 A 
ATOM      4  C   UNL     1      -0.102  10.498  21.318  0.00  0.00    +0.000 A 
ATOM      5  C   UNL     1       0.414   9.257  21.708  0.00  0.00    +0.000 A 
ATOM      6  C   UNL     1       1.144   8.487  20.810  0.00  0.00    +0.000 A 
ATOM      7  F   UNL     1       1.607   7.296  21.227  0.00  0.00    +0.000 F 
ENDROOT
BRANCH   1   9
ATOM      8  O   UNL     1       2.278   8.586  17.388  0.00  0.00    +0.000 OA
ATOM      9  C   UNL     1       2.095   8.114  18.507  0.00  0.00    +0.000 C 
ATOM     10  N   UNL     1       2.505   6.824  18.834  0.00  0.00    +0.000 N 
ATOM     11  H   UNL     1       2.177   6.390  19.693  0.00  0.00    +0.000 HD
BRANCH  10  12
ATOM     12  C   UNL     1       3.095   6.026  17.782  0.00  0.00    +0.000 C 
ATOM     13  C   UNL     1       2.670   4.545  17.901  0.00  0.00    +0.000 C 
ATOM     14  C   UNL     1       3.884   3.775  17.490  0.00  0.00    +0.000 C 
ATOM     15  O   UNL     1       3.950   2.574  17.301  0.00  0.00    +0.000 OA
ATOM     16  C   UNL     1       5.016   4.670  17.384  0.00  0.00    +0.000 A 
ATOM     17  C   UNL     1       6.306   4.340  16.999  0.00  0.00    +0.000 A 
ATOM     18  C   UNL     1       7.224   5.375  16.876  0.00  0.00    +0.000 A 
ATOM     19  C   UNL     1       6.837   6.698  17.162  0.00  0.00    +0.000 A 
ATOM     20  C   UNL     1       5.521   7.006  17.558  0.00  0.00    +0.000 A 
ATOM     21  C   UNL     1       4.596   5.976  17.663  0.00  0.00    +0.000 A 
ENDBRANCH  10  12
ENDBRANCH   1   9
BRANCH   3  22
ATOM     22  C   UNL     1      -0.426  12.335  19.593  0.00  0.00    +0.000 C 
BRANCH  22  23
ATOM     23  C   UNL     1      -1.948  12.354  19.485  0.00  0.00    +0.000 A 
ATOM     24  N   UNL     1      -2.602  12.854  20.494  0.00  0.00    +0.000 NA
ATOM     25  N   UNL     1      -3.962  12.825  20.469  0.00  0.00    +0.000 N 
ATOM     26  C   UNL     1      -4.738  12.205  19.522  0.00  0.00    +0.000 A 
ATOM     27  O   UNL     1      -5.952  12.096  19.631  0.00  0.00    +0.000 OA
ATOM     28  C   UNL     1      -4.023  11.699  18.338  0.00  0.00    +0.000 A 
ATOM     29  C   UNL     1      -4.749  11.163  17.264  0.00  0.00    +0.000 A 
ATOM     30  C   UNL     1      -4.079  10.750  16.116  0.00  0.00    +0.000 A 
ATOM     31  C   UNL     1      -2.693  10.877  16.041  0.00  0.00    +0.000 A 
ATOM     32  C   UNL     1      -1.969  11.401  17.119  0.00  0.00    +0.000 A 
ATOM     33  C   UNL     1      -2.634  11.802  18.283  0.00  0.00    +0.000 A 
ATOM     34  H   UNL     1      -4.437  13.191  21.288  0.00  0.00    +0.000 HD
ENDBRANCH  22  23
ENDBRANCH   3  22
TORSDOF 4
ENDMDL
MODEL 3
REMARK VINA RESULT:      -9.3      3.092      9.412
REMARK  Name = 
REMARK  4 active torsions:
REMARK  status: ('A' for Active; 'I' for Inactive)
REMARK    1  A    between atoms: C_2  and  C_14
REMARK    2  A    between atoms: N_3  and  C_4
REMARK    3  A    between atoms: C_16  and  C_17
REMARK    4  A    between atoms: C_17  and  C_18
REMARK                            x       y       z     vdW  Elec       q    Type
REMARK                         _______ _______ _______ _____ _____    ______ ____
ROOT
ATOM      1  C   UNL     1       2.131   5.697  20.024  0.00  0.00    +0.000 A 
ATOM      2  C   UNL     1       3.417   5.227  19.676  0.00  0.00    +0.000 A 
ATOM      3  C   UNL     1       3.717   3.851  19.688  0.00  0.00    +0.000 A 
ATOM      4  C   UNL     1       2.704   2.952  20.041  0.00  0.00    +0.000 A 
ATOM      5  C   UNL     1       1.421   3.413  20.357  0.00  0.00    +0.000 A 
ATOM      6  C   UNL     1       1.143   4.774  20.345  0.00  0.00    +0.000 A 
ATOM      7  F   UNL     1      -0.100   5.170  20.668  0.00  0.00    +0.000 F 
ENDROOT
BRANCH   1   9
ATOM      8  O   UNL     1       2.466   7.873  19.239  0.00  0.00    +0.000 OA
ATOM      9  C   UNL     1       1.889   7.164  20.058  0.00  0.00    +0.000 C 
ATOM     10  N   UNL     1       1.059   7.703  21.038  0.00  0.00    +0.000 N 
ATOM     11  H   UNL     1       0.749   7.124  21.814  0.00  0.00    +0.000 HD
BRANCH  10  12
ATOM     12  C   UNL     1       0.955   9.144  21.104  0.00  0.00    +0.000 C 
ATOM     13  C   UNL     1       0.629   9.614  22.540  0.00  0.00    +0.000 C 
ATOM     14  C   UNL     1      -0.288  10.780  22.351  0.00  0.00    +0.000 C 
ATOM     15  O   UNL     1      -0.677  11.543  23.216  0.00  0.00    +0.000 OA
ATOM     16  C   UNL     1      -0.697  10.859  20.965  0.00  0.00    +0.000 A 
ATOM     17  C   UNL     1      -1.517  11.817  20.391  0.00  0.00    +0.000 A 
ATOM     18  C   UNL     1      -1.711  11.758  19.017  0.00  0.00    +0.000 A 
ATOM     19  C   UNL     1      -1.102  10.737  18.263  0.00  0.00    +0.000 A 
ATOM     20  C   UNL     1      -0.278   9.770  18.871  0.00  0.00    +0.000 A 
ATOM     21  C   UNL     1      -0.067   9.838  20.242  0.00  0.00    +0.000 A 
ENDBRANCH  10  12
ENDBRANCH   1   9
BRANCH   3  22
ATOM     22  C   UNL     1       5.112   3.362  19.343  0.00  0.00    +0.000 C 
BRANCH  22  23
ATOM     23  C   UNL     1       5.977   4.429  18.677  0.00  0.00    +0.000 A 
ATOM     24  N   UNL     1       6.638   5.226  19.466  0.00  0.00    +0.000 NA
ATOM     25  N   UNL     1       7.365   6.236  18.914  0.00  0.00    +0.000 N 
ATOM     26  C   UNL     1       7.384   6.583  17.586  0.00  0.00    +0.000 A 
ATOM     27  O   UNL     1       7.949   7.587  17.175  0.00  0.00    +0.000 OA
ATOM     28  C   UNL     1       6.704   5.652  16.670  0.00  0.00    +0.000 A 
ATOM     29  C   UNL     1       6.780   5.861  15.286  0.00  0.00    +0.000 A 
ATOM     30  C   UNL     1       6.197   4.943  14.417  0.00  0.00    +0.000 A 
ATOM     31  C   UNL     1       5.549   3.820  14.929  0.00  0.00    +0.000 A 
ATOM     32  C   UNL     1       5.464   3.621  16.312  0.00  0.00    +0.000 A 
ATOM     33  C   UNL     1       6.031   4.549  17.193  0.00  0.00    +0.000 A 
ATOM     34  H   UNL     1       7.838   6.858  19.562  0.00  0.00    +0.000 HD
ENDBRANCH  22  23
ENDBRANCH   3  22
TORSDOF 4
ENDMDL
MODEL 4
REMARK VINA RESULT:      -9.1      3.052      4.480
REMARK  Name = 
REMARK  4 active torsions:
REMARK  status: ('A' for Active; 'I' for Inactive)
REMARK    1  A    between atoms: C_2  and  C_14
REMARK    2  A    between atoms: N_3  and  C_4
REMARK    3  A    between atoms: C_16  and  C_17
REMARK    4  A    between atoms: C_17  and  C_18
REMARK                            x       y       z     vdW  Elec       q    Type
REMARK                         _______ _______ _______ _____ _____    ______ ____
ROOT
ATOM      1  C   UNL     1       2.255   7.215  19.328  0.00  0.00    +0.000 A 
ATOM      2  C   UNL     1       2.077   8.438  18.642  0.00  0.00    +0.000 A 
ATOM      3  C   UNL     1       1.281   9.466  19.182  0.00  0.00    +0.000 A 
ATOM      4  C   UNL     1       0.677   9.256  20.427  0.00  0.00    +0.000 A 
ATOM      5  C   UNL     1       0.875   8.058  21.121  0.00  0.00    +0.000 A 
ATOM      6  C   UNL     1       1.660   7.051  20.572  0.00  0.00    +0.000 A 
ATOM      7  F   UNL     1       1.811   5.913  21.271  0.00  0.00    +0.000 F 
ENDROOT
BRANCH   1   9
ATOM      8  O   UNL     1       2.464   5.147  18.258  0.00  0.00    +0.000 OA
ATOM      9  C   UNL     1       3.051   6.139  18.680  0.00  0.00    +0.000 C 
ATOM     10  N   UNL     1       4.437   6.257  18.607  0.00  0.00    +0.000 N 
ATOM     11  H   UNL     1       4.912   6.990  19.128  0.00  0.00    +0.000 HD
BRANCH  10  12
ATOM     12  C   UNL     1       5.174   5.130  18.078  0.00  0.00    +0.000 C 
ATOM     13  C   UNL     1       6.527   4.958  18.806  0.00  0.00    +0.000 C 
ATOM     14  C   UNL     1       7.471   4.513  17.736  0.00  0.00    +0.000 C 
ATOM     15  O   UNL     1       8.614   4.124  17.895  0.00  0.00    +0.000 OA
ATOM     16  C   UNL     1       6.841   4.650  16.440  0.00  0.00    +0.000 A 
ATOM     17  C   UNL     1       7.381   4.312  15.210  0.00  0.00    +0.000 A 
ATOM     18  C   UNL     1       6.566   4.441  14.093  0.00  0.00    +0.000 A 
ATOM     19  C   UNL     1       5.251   4.922  14.232  0.00  0.00    +0.000 A 
ATOM     20  C   UNL     1       4.726   5.264  15.494  0.00  0.00    +0.000 A 
ATOM     21  C   UNL     1       5.532   5.118  16.615  0.00  0.00    +0.000 A 
ENDBRANCH  10  12
ENDBRANCH   1   9
BRANCH   3  22
ATOM     22  C   UNL     1       1.073  10.762  18.419  0.00  0.00    +0.000 C 
BRANCH  22  23
ATOM     23  C   UNL     1      -0.182  11.519  18.847  0.00  0.00    +0.000 A 
ATOM     24  N   UNL     1      -0.020  12.486  19.703  0.00  0.00    +0.000 NA
ATOM     25  N   UNL     1      -1.121  13.139  20.165  0.00  0.00    +0.000 N 
ATOM     26  C   UNL     1      -2.426  12.803  19.905  0.00  0.00    +0.000 A 
ATOM     27  O   UNL     1      -3.370  13.346  20.463  0.00  0.00    +0.000 OA
ATOM     28  C   UNL     1      -2.629  11.762  18.884  0.00  0.00    +0.000 A 
ATOM     29  C   UNL     1      -3.929  11.444  18.465  0.00  0.00    +0.000 A 
ATOM     30  C   UNL     1      -4.117  10.511  17.450  0.00  0.00    +0.000 A 
ATOM     31  C   UNL     1      -3.013   9.905  16.853  0.00  0.00    +0.000 A 
ATOM     32  C   UNL     1      -1.717  10.215  17.282  0.00  0.00    +0.000 A 
ATOM     33  C   UNL     1      -1.520  11.139  18.314  0.00  0.00    +0.000 A 
ATOM     34  H   UNL     1      -0.959  13.863  20.859  0.00  0.00    +0.000 HD
ENDBRANCH  22  23
ENDBRANCH   3  22
TORSDOF 4
ENDMDL
MODEL 5
REMARK VINA RESULT:      -9.0      2.064      3.197
REMARK  Name = 
REMARK  4 active torsions:
REMARK  status: ('A' for Active; 'I' for Inactive)
REMARK    1  A    between atoms: C_2  and  C_14
REMARK    2  A    between atoms: N_3  and  C_4
REMARK    3  A    between atoms: C_16  and  C_17
REMARK    4  A    between atoms: C_17  and  C_18
REMARK                            x       y       z     vdW  Elec       q    Type
REMARK                         _______ _______ _______ _____ _____    ______ ____
ROOT
ATOM      1  C   UNL     1       1.324   9.040  19.482  0.00  0.00    +0.000 A 
ATOM      2  C   UNL     1       0.737  10.255  19.063  0.00  0.00    +0.000 A 
ATOM      3  C   UNL     1      -0.014  11.045  19.954  0.00  0.00    +0.000 A 
ATOM      4  C   UNL     1      -0.154  10.607  21.276  0.00  0.00    +0.000 A 
ATOM      5  C   UNL     1       0.452   9.420  21.700  0.00  0.00    +0.000 A 
ATOM      6  C   UNL     1       1.185   8.648  20.807  0.00  0.00    +0.000 A 
ATOM      7  F   UNL     1       1.737   7.509  21.258  0.00  0.00    +0.000 F 
ENDROOT
BRANCH   1   9
ATOM      8  O   UNL     1       2.216   8.668  17.352  0.00  0.00    +0.000 OA
ATOM      9  C   UNL     1       2.050   8.212  18.481  0.00  0.00    +0.000 C 
ATOM     10  N   UNL     1       2.480   6.933  18.825  0.00  0.00    +0.000 N 
ATOM     11  H   UNL     1       2.166   6.510  19.695  0.00  0.00    +0.000 HD
BRANCH  10  12
ATOM     12  C   UNL     1       3.070   6.125  17.781  0.00  0.00    +0.000 C 
ATOM     13  C   UNL     1       2.620   4.651  17.897  0.00  0.00    +0.000 C 
ATOM     14  C   UNL     1       3.827   3.861  17.501  0.00  0.00    +0.000 C 
ATOM     15  O   UNL     1       3.876   2.659  17.314  0.00  0.00    +0.000 OA
ATOM     16  C   UNL     1       4.974   4.738  17.409  0.00  0.00    +0.000 A 
ATOM     17  C   UNL     1       6.263   4.387  17.039  0.00  0.00    +0.000 A 
ATOM     18  C   UNL     1       7.199   5.408  16.927  0.00  0.00    +0.000 A 
ATOM     19  C   UNL     1       6.830   6.736  17.207  0.00  0.00    +0.000 A 
ATOM     20  C   UNL     1       5.514   7.066  17.587  0.00  0.00    +0.000 A 
ATOM     21  C   UNL     1       4.571   6.051  17.681  0.00  0.00    +0.000 A 
ENDBRANCH  10  12
ENDBRANCH   1   9
BRANCH   3  22
ATOM     22  C   UNL     1      -0.666  12.332  19.482  0.00  0.00    +0.000 C 
BRANCH  22  23
ATOM     23  C   UNL     1      -2.087  12.131  18.960  0.00  0.00    +0.000 A 
ATOM     24  N   UNL     1      -2.210  11.789  17.710  0.00  0.00    +0.000 NA
ATOM     25  N   UNL     1      -3.460  11.671  17.186  0.00  0.00    +0.000 N 
ATOM     26  C   UNL     1      -4.634  11.992  17.821  0.00  0.00    +0.000 A 
ATOM     27  O   UNL     1      -5.715  11.994  17.247  0.00  0.00    +0.000 OA
ATOM     28  C   UNL     1      -4.523  12.309  19.254  0.00  0.00    +0.000 A 
ATOM     29  C   UNL     1      -5.683  12.527  20.010  0.00  0.00    +0.000 A 
ATOM     30  C   UNL     1      -5.582  12.757  21.379  0.00  0.00    +0.000 A 
ATOM     31  C   UNL     1      -4.329  12.762  21.989  0.00  0.00    +0.000 A 
ATOM     32  C   UNL     1      -3.170  12.557  21.230  0.00  0.00    +0.000 A 
ATOM     33  C   UNL     1      -3.263  12.343  19.850  0.00  0.00    +0.000 A 
ATOM     34  H   UNL     1      -3.517  11.437  16.200  0.00  0.00    +0.000 HD
ENDBRANCH  22  23
ENDBRANCH   3  22
TORSDOF 4
ENDMDL
MODEL 6
REMARK VINA RESULT:      -8.7      3.032      9.043
REMARK  Name = 
REMARK  4 active torsions:
REMARK  status: ('A' for Active; 'I' for Inactive)
REMARK    1  A    between atoms: C_2  and  C_14
REMARK    2  A    between atoms: N_3  and  C_4
REMARK    3  A    between atoms: C_16  and  C_17
REMARK    4  A    between atoms: C_17  and  C_18
REMARK                            x       y       z     vdW  Elec       q    Type
REMARK                         _______ _______ _______ _____ _____    ______ ____
ROOT
ATOM      1  C   UNL     1       0.535  10.681  20.203  0.00  0.00    +0.000 A 
ATOM      2  C   UNL     1       0.878   9.418  20.734  0.00  0.00    +0.000 A 
ATOM      3  C   UNL     1       1.516   8.445  19.941  0.00  0.00    +0.000 A 
ATOM      4  C   UNL     1       1.817   8.762  18.612  0.00  0.00    +0.000 A 
ATOM      5  C   UNL     1       1.505  10.022  18.093  0.00  0.00    +0.000 A 
ATOM      6  C   UNL     1       0.871  10.970  18.887  0.00  0.00    +0.000 A 
ATOM      7  F   UNL     1       0.579  12.163  18.340  0.00  0.00    +0.000 F 
ENDROOT
BRANCH   1   9
ATOM      8  O   UNL     1       0.451  12.388  21.799  0.00  0.00    +0.000 OA
ATOM      9  C   UNL     1      -0.197  11.646  21.066  0.00  0.00    +0.000 C 
ATOM     10  N   UNL     1      -1.590  11.657  21.061  0.00  0.00    +0.000 N 
ATOM     11  H   UNL     1      -2.101  10.911  20.594  0.00  0.00    +0.000 HD
BRANCH  10  12
ATOM     12  C   UNL     1      -2.254  12.527  22.007  0.00  0.00    +0.000 C 
ATOM     13  C   UNL     1      -2.413  11.838  23.381  0.00  0.00    +0.000 C 
ATOM     14  C   UNL     1      -3.741  12.309  23.881  0.00  0.00    +0.000 C 
ATOM     15  O   UNL     1      -4.203  12.124  24.993  0.00  0.00    +0.000 OA
ATOM     16  C   UNL     1      -4.445  12.999  22.822  0.00  0.00    +0.000 A 
ATOM     17  C   UNL     1      -5.688  13.604  22.904  0.00  0.00    +0.000 A 
ATOM     18  C   UNL     1      -6.142  14.294  21.787  0.00  0.00    +0.000 A 
ATOM     19  C   UNL     1      -5.357  14.339  20.620  0.00  0.00    +0.000 A 
ATOM     20  C   UNL     1      -4.098  13.710  20.559  0.00  0.00    +0.000 A 
ATOM     21  C   UNL     1      -3.633  13.036  21.681  0.00  0.00    +0.000 A 
ENDBRANCH  10  12
ENDBRANCH   1   9
BRANCH   3  22
ATOM     22  C   UNL     1       1.850   7.080  20.516  0.00  0.00    +0.000 C 
BRANCH  22  23
ATOM     23  C   UNL     1       2.533   6.154  19.512  0.00  0.00    +0.000 A 
ATOM     24  N   UNL     1       3.541   6.647  18.851  0.00  0.00    +0.000 NA
ATOM     25  N   UNL     1       4.132   5.879  17.896  0.00  0.00    +0.000 N 
ATOM     26  C   UNL     1       3.696   4.651  17.464  0.00  0.00    +0.000 A 
ATOM     27  O   UNL     1       4.192   4.074  16.505  0.00  0.00    +0.000 OA
ATOM     28  C   UNL     1       2.606   4.046  18.247  0.00  0.00    +0.000 A 
ATOM     29  C   UNL     1       2.183   2.741  17.956  0.00  0.00    +0.000 A 
ATOM     30  C   UNL     1       1.201   2.143  18.741  0.00  0.00    +0.000 A 
ATOM     31  C   UNL     1       0.652   2.842  19.814  0.00  0.00    +0.000 A 
ATOM     32  C   UNL     1       1.068   4.149  20.095  0.00  0.00    +0.000 A 
ATOM     33  C   UNL     1       2.041   4.764  19.300  0.00  0.00    +0.000 A 
ATOM     34  H   UNL     1       4.891   6.309  17.376  0.00  0.00    +0.000 HD
ENDBRANCH  22  23
ENDBRANCH   3  22
TORSDOF 4
ENDMDL
MODEL 7
REMARK VINA RESULT:      -8.7      3.845      5.198
REMARK  Name = 
REMARK  4 active torsions:
REMARK  status: ('A' for Active; 'I' for Inactive)
REMARK    1  A    between atoms: C_2  and  C_14
REMARK    2  A    between atoms: N_3  and  C_4
REMARK    3  A    between atoms: C_16  and  C_17
REMARK    4  A    between atoms: C_17  and  C_18
REMARK                            x       y       z     vdW  Elec       q    Type
REMARK                         _______ _______ _______ _____ _____    ______ ____
ROOT
ATOM      1  C   UNL     1       0.650  10.005  18.929  0.00  0.00    +0.000 A 
ATOM      2  C   UNL     1       0.950  11.154  19.695  0.00  0.00    +0.000 A 
ATOM      3  C   UNL     1       0.216  12.345  19.538  0.00  0.00    +0.000 A 
ATOM      4  C   UNL     1      -0.834  12.363  18.612  0.00  0.00    +0.000 A 
ATOM      5  C   UNL     1      -1.151  11.218  17.874  0.00  0.00    +0.000 A 
ATOM      6  C   UNL     1      -0.413  10.052  18.037  0.00  0.00    +0.000 A 
ATOM      7  F   UNL     1      -0.748   8.982  17.296  0.00  0.00    +0.000 F 
ENDROOT
BRANCH   1   9
ATOM      8  O   UNL     1       1.618   8.303  20.206  0.00  0.00    +0.000 OA
ATOM      9  C   UNL     1       1.502   8.796  19.088  0.00  0.00    +0.000 C 
ATOM     10  N   UNL     1       2.180   8.281  17.985  0.00  0.00    +0.000 N 
ATOM     11  H   UNL     1       2.219   8.813  17.120  0.00  0.00    +0.000 HD
BRANCH  10  12
ATOM     12  C   UNL     1       3.089   7.180  18.217  0.00  0.00    +0.000 C 
ATOM     13  C   UNL     1       4.376   7.333  17.375  0.00  0.00    +0.000 C 
ATOM     14  C   UNL     1       4.727   5.937  16.974  0.00  0.00    +0.000 C 
ATOM     15  O   UNL     1       5.750   5.578  16.419  0.00  0.00    +0.000 OA
ATOM     16  C   UNL     1       3.635   5.045  17.304  0.00  0.00    +0.000 A 
ATOM     17  C   UNL     1       3.594   3.673  17.116  0.00  0.00    +0.000 A 
ATOM     18  C   UNL     1       2.479   2.993  17.590  0.00  0.00    +0.000 A 
ATOM     19  C   UNL     1       1.434   3.701  18.213  0.00  0.00    +0.000 A 
ATOM     20  C   UNL     1       1.497   5.098  18.386  0.00  0.00    +0.000 A 
ATOM     21  C   UNL     1       2.619   5.778  17.931  0.00  0.00    +0.000 A 
ENDBRANCH  10  12
ENDBRANCH   1   9
BRANCH   3  22
ATOM     22  C   UNL     1       0.569  13.581  20.345  0.00  0.00    +0.000 C 
BRANCH  22  23
ATOM     23  C   UNL     1       1.551  14.507  19.631  0.00  0.00    +0.000 A 
ATOM     24  N   UNL     1       2.813  14.199  19.713  0.00  0.00    +0.000 NA
ATOM     25  N   UNL     1       3.727  15.037  19.151  0.00  0.00    +0.000 N 
ATOM     26  C   UNL     1       3.461  16.262  18.593  0.00  0.00    +0.000 A 
ATOM     27  O   UNL     1       4.344  17.027  18.231  0.00  0.00    +0.000 OA
ATOM     28  C   UNL     1       2.037  16.595  18.425  0.00  0.00    +0.000 A 
ATOM     29  C   UNL     1       1.672  17.770  17.751  0.00  0.00    +0.000 A 
ATOM     30  C   UNL     1       0.327  18.049  17.530  0.00  0.00    +0.000 A 
ATOM     31  C   UNL     1      -0.648  17.157  17.975  0.00  0.00    +0.000 A 
ATOM     32  C   UNL     1      -0.282  15.991  18.658  0.00  0.00    +0.000 A 
ATOM     33  C   UNL     1       1.068  15.712  18.900  0.00  0.00    +0.000 A 
ATOM     34  H   UNL     1       4.703  14.782  19.266  0.00  0.00    +0.000 HD
ENDBRANCH  22  23
ENDBRANCH   3  22
TORSDOF 4
ENDMDL
MODEL 8
REMARK VINA RESULT:      -8.6      2.521      9.144
REMARK  Name = 
REMARK  4 active torsions:
REMARK  status: ('A' for Active; 'I' for Inactive)
REMARK    1  A    between atoms: C_2  and  C_14
REMARK    2  A    between atoms: N_3  and  C_4
REMARK    3  A    between atoms: C_16  and  C_17
REMARK    4  A    between atoms: C_17  and  C_18
REMARK                            x       y       z     vdW  Elec       q    Type
REMARK                         _______ _______ _______ _____ _____    ______ ____
ROOT
ATOM      1  C   UNL     1       0.395   9.872  19.484  0.00  0.00    +0.000 A 
ATOM      2  C   UNL     1       1.092   9.371  18.362  0.00  0.00    +0.000 A 
ATOM      3  C   UNL     1       1.989   8.293  18.484  0.00  0.00    +0.000 A 
ATOM      4  C   UNL     1       2.165   7.713  19.746  0.00  0.00    +0.000 A 
ATOM      5  C   UNL     1       1.454   8.188  20.853  0.00  0.00    +0.000 A 
ATOM      6  C   UNL     1       0.577   9.257  20.717  0.00  0.00    +0.000 A 
ATOM      7  F   UNL     1      -0.075   9.687  21.811  0.00  0.00    +0.000 F 
ENDROOT
BRANCH   1   9
ATOM      8  O   UNL     1       0.018  12.119  18.962  0.00  0.00    +0.000 OA
ATOM      9  C   UNL     1      -0.488  11.056  19.309  0.00  0.00    +0.000 C 
ATOM     10  N   UNL     1      -1.849  10.947  19.585  0.00  0.00    +0.000 N 
ATOM     11  H   UNL     1      -2.207  10.117  20.050  0.00  0.00    +0.000 HD
BRANCH  10  12
ATOM     12  C   UNL     1      -2.641  12.156  19.517  0.00  0.00    +0.000 C 
ATOM     13  C   UNL     1      -2.890  12.739  20.927  0.00  0.00    +0.000 C 
ATOM     14  C   UNL     1      -4.281  13.283  20.864  0.00  0.00    +0.000 C 
ATOM     15  O   UNL     1      -4.832  13.959  21.713  0.00  0.00    +0.000 OA
ATOM     16  C   UNL     1      -4.920  12.849  19.640  0.00  0.00    +0.000 A 
ATOM     17  C   UNL     1      -6.196  13.172  19.207  0.00  0.00    +0.000 A 
ATOM     18  C   UNL     1      -6.581  12.720  17.951  0.00  0.00    +0.000 A 
ATOM     19  C   UNL     1      -5.695  11.946  17.179  0.00  0.00    +0.000 A 
ATOM     20  C   UNL     1      -4.404  11.626  17.644  0.00  0.00    +0.000 A 
ATOM     21  C   UNL     1      -4.010  12.093  18.892  0.00  0.00    +0.000 A 
ENDBRANCH  10  12
ENDBRANCH   1   9
BRANCH   3  22
ATOM     22  C   UNL     1       2.755   7.786  17.276  0.00  0.00    +0.000 C 
BRANCH  22  23
ATOM     23  C   UNL     1       3.787   6.714  17.622  0.00  0.00    +0.000 A 
ATOM     24  N   UNL     1       5.018   7.110  17.768  0.00  0.00    +0.000 NA
ATOM     25  N   UNL     1       5.979   6.177  18.005  0.00  0.00    +0.000 N 
ATOM     26  C   UNL     1       5.803   4.816  17.995  0.00  0.00    +0.000 A 
ATOM     27  O   UNL     1       6.736   4.029  18.079  0.00  0.00    +0.000 OA
ATOM     28  C   UNL     1       4.409   4.351  17.906  0.00  0.00    +0.000 A 
ATOM     29  C   UNL     1       4.124   2.982  18.014  0.00  0.00    +0.000 A 
ATOM     30  C   UNL     1       2.801   2.549  18.000  0.00  0.00    +0.000 A 
ATOM     31  C   UNL     1       1.770   3.480  17.887  0.00  0.00    +0.000 A 
ATOM     32  C   UNL     1       2.057   4.845  17.767  0.00  0.00    +0.000 A 
ATOM     33  C   UNL     1       3.385   5.286  17.761  0.00  0.00    +0.000 A 
ATOM     34  H   UNL     1       6.933   6.519  18.078  0.00  0.00    +0.000 HD
ENDBRANCH  22  23
ENDBRANCH   3  22
TORSDOF 4
ENDMDL
MODEL 9
REMARK VINA RESULT:      -8.6      3.282      4.699
REMARK  Name = 
REMARK  4 active torsions:
REMARK  status: ('A' for Active; 'I' for Inactive)
REMARK    1  A    between atoms: C_2  and  C_14
REMARK    2  A    between atoms: N_3  and  C_4
REMARK    3  A    between atoms: C_16  and  C_17
REMARK    4  A    between atoms: C_17  and  C_18
REMARK                            x       y       z     vdW  Elec       q    Type
REMARK                         _______ _______ _______ _____ _____    ______ ____
ROOT
ATOM      1  C   UNL     1       0.716   9.753  19.507  0.00  0.00    +0.000 A 
ATOM      2  C   UNL     1       0.746  10.619  20.623  0.00  0.00    +0.000 A 
ATOM      3  C   UNL     1      -0.005  11.810  20.640  0.00  0.00    +0.000 A 
ATOM      4  C   UNL     1      -0.799  12.113  19.527  0.00  0.00    +0.000 A 
ATOM      5  C   UNL     1      -0.852  11.242  18.434  0.00  0.00    +0.000 A 
ATOM      6  C   UNL     1      -0.101  10.073  18.431  0.00  0.00    +0.000 A 
ATOM      7  F   UNL     1      -0.175   9.274  17.352  0.00  0.00    +0.000 F 
ENDROOT
BRANCH   1   9
ATOM      8  O   UNL     1       1.804   7.989  20.590  0.00  0.00    +0.000 OA
ATOM      9  C   UNL     1       1.581   8.543  19.517  0.00  0.00    +0.000 C 
ATOM     10  N   UNL     1       2.152   8.095  18.328  0.00  0.00    +0.000 N 
ATOM     11  H   UNL     1       2.108   8.675  17.494  0.00  0.00    +0.000 HD
BRANCH  10  12
ATOM     12  C   UNL     1       3.081   6.989  18.411  0.00  0.00    +0.000 C 
ATOM     13  C   UNL     1       4.266   7.183  17.437  0.00  0.00    +0.000 C 
ATOM     14  C   UNL     1       4.569   5.806  16.941  0.00  0.00    +0.000 C 
ATOM     15  O   UNL     1       5.524   5.475  16.261  0.00  0.00    +0.000 OA
ATOM     16  C   UNL     1       3.521   4.897  17.353  0.00  0.00    +0.000 A 
ATOM     17  C   UNL     1       3.459   3.534  17.114  0.00  0.00    +0.000 A 
ATOM     18  C   UNL     1       2.404   2.829  17.681  0.00  0.00    +0.000 A 
ATOM     19  C   UNL     1       1.435   3.506  18.446  0.00  0.00    +0.000 A 
ATOM     20  C   UNL     1       1.518   4.894  18.669  0.00  0.00    +0.000 A 
ATOM     21  C   UNL     1       2.582   5.598  18.120  0.00  0.00    +0.000 A 
ENDBRANCH  10  12
ENDBRANCH   1   9
BRANCH   3  22
ATOM     22  C   UNL     1       0.061  12.747  21.832  0.00  0.00    +0.000 C 
BRANCH  22  23
ATOM     23  C   UNL     1      -1.181  12.684  22.719  0.00  0.00    +0.000 A 
ATOM     24  N   UNL     1      -1.762  11.525  22.833  0.00  0.00    +0.000 NA
ATOM     25  N   UNL     1      -2.912  11.441  23.555  0.00  0.00    +0.000 N 
ATOM     26  C   UNL     1      -3.605  12.495  24.095  0.00  0.00    +0.000 A 
ATOM     27  O   UNL     1      -4.705  12.366  24.614  0.00  0.00    +0.000 OA
ATOM     28  C   UNL     1      -2.928  13.802  24.041  0.00  0.00    +0.000 A 
ATOM     29  C   UNL     1      -3.505  14.910  24.678  0.00  0.00    +0.000 A 
ATOM     30  C   UNL     1      -2.831  16.128  24.687  0.00  0.00    +0.000 A 
ATOM     31  C   UNL     1      -1.586  16.235  24.069  0.00  0.00    +0.000 A 
ATOM     32  C   UNL     1      -1.018  15.131  23.423  0.00  0.00    +0.000 A 
ATOM     33  C   UNL     1      -1.698  13.908  23.394  0.00  0.00    +0.000 A 
ATOM     34  H   UNL     1      -3.356  10.528  23.592  0.00  0.00    +0.000 HD
ENDBRANCH  22  23
ENDBRANCH   3  22
TORSDOF 4
ENDMDL
