MODEL 1
REMARK VINA RESULT:      -6.3      0.000      0.000
REMARK  Name = 
REMARK  10 active torsions:
REMARK  status: ('A' for Active; 'I' for Inactive)
REMARK    1  A    between atoms: C_1  and  O_2
REMARK    2  A    between atoms: O_2  and  N_3
REMARK    3  A    between atoms: N_3  and  C_4
REMARK    4  A    between atoms: N_3  and  C_5
REMARK    5  A    between atoms: N_13  and  C_14
REMARK    6  A    between atoms: C_16  and  C_17
REMARK    7  A    between atoms: C_17  and  O_18
REMARK    8  A    between atoms: C_19  and  O_20
REMARK    9  A    between atoms: C_21  and  C_22
REMARK   10  A    between atoms: C_21  and  O_23
REMARK                            x       y       z     vdW  Elec       q    Type
REMARK                         _______ _______ _______ _____ _____    ______ ____
ROOT
ATOM      1  C   UNL     1       1.559   9.121  19.390  0.00  0.00    +0.000 A 
ATOM      2  N   UNL     1       2.169   9.426  18.202  0.00  0.00    +0.000 NA
ATOM      3  C   UNL     1       2.883   8.482  17.558  0.00  0.00    +0.000 A 
ATOM      4  N   UNL     1       3.083   7.194  17.911  0.00  0.00    +0.000 NA
ATOM      5  C   UNL     1       2.423   6.911  19.049  0.00  0.00    +0.000 A 
ATOM      6  C   UNL     1       1.666   7.779  19.829  0.00  0.00    +0.000 A 
ATOM      7  N   UNL     1       1.156   7.121  20.930  0.00  0.00    +0.000 NA
ATOM      8  C   UNL     1       1.606   5.889  20.832  0.00  0.00    +0.000 A 
ATOM      9  N   UNL     1       2.397   5.722  19.725  0.00  0.00    +0.000 N 
ENDROOT
BRANCH   9  10
ATOM     10  C   UNL     1       3.099   4.497  19.409  0.00  0.00    +0.000 C 
ATOM     11  O   UNL     1       3.011   3.586  20.523  0.00  0.00    +0.000 OA
ATOM     12  C   UNL     1       3.286   2.267  20.000  0.00  0.00    +0.000 C 
ATOM     13  C   UNL     1       2.700   2.248  18.586  0.00  0.00    +0.000 C 
ATOM     14  C   UNL     1       2.663   3.727  18.140  0.00  0.00    +0.000 C 
ATOM     15  C   UNL     1       3.635   4.015  16.995  0.00  0.00    +0.000 C 
BRANCH  13  16
ATOM     16  O   UNL     1       1.386   1.679  18.634  0.00  0.00    +0.000 OA
ATOM     17  H   UNL     1       0.961   1.800  17.766  0.00  0.00    +0.000 HD
ENDBRANCH  13  16
BRANCH  14  18
ATOM     18  O   UNL     1       1.375   4.081  17.624  0.00  0.00    +0.000 OA
ATOM     19  H   UNL     1       0.939   3.275  17.284  0.00  0.00    +0.000 HD
ENDBRANCH  14  18
BRANCH  12  20
ATOM     20  C   UNL     1       4.798   2.009  20.021  0.00  0.00    +0.000 C 
BRANCH  20  21
ATOM     21  O   UNL     1       5.196   1.487  21.285  0.00  0.00    +0.000 OA
ATOM     22  H   UNL     1       4.549   1.797  21.946  0.00  0.00    +0.000 HD
ENDBRANCH  20  21
ENDBRANCH  12  20
ENDBRANCH   9  10
BRANCH   1  23
ATOM     23  N   UNL     1       0.852  10.129  20.097  0.00  0.00    +0.000 N 
ATOM     24  C   UNL     1      -0.591  10.073  19.874  0.00  0.00    +0.000 C 
BRANCH  23  26
ATOM     25  C   UNL     1      -0.106  10.482  22.133  0.00  0.00    +0.000 C 
ATOM     26  O   UNL     1       1.137  10.273  21.467  0.00  0.00    +0.000 OA
ENDBRANCH  23  26
ENDBRANCH   1  23
TORSDOF 7
ENDMDL
MODEL 2
REMARK VINA RESULT:      -6.2      3.588      6.494
REMARK  Name = 
REMARK  10 active torsions:
REMARK  status: ('A' for Active; 'I' for Inactive)
REMARK    1  A    between atoms: C_1  and  O_2
REMARK    2  A    between atoms: O_2  and  N_3
REMARK    3  A    between atoms: N_3  and  C_4
REMARK    4  A    between atoms: N_3  and  C_5
REMARK    5  A    between atoms: N_13  and  C_14
REMARK    6  A    between atoms: C_16  and  C_17
REMARK    7  A    between atoms: C_17  and  O_18
REMARK    8  A    between atoms: C_19  and  O_20
REMARK    9  A    between atoms: C_21  and  C_22
REMARK   10  A    between atoms: C_21  and  O_23
REMARK                            x       y       z     vdW  Elec       q    Type
REMARK                         _______ _______ _______ _____ _____    ______ ____
ROOT
ATOM      1  C   UNL     1       6.960   4.413  15.874  0.00  0.00    +0.000 A 
ATOM      2  N   UNL     1       7.915   4.616  16.834  0.00  0.00    +0.000 NA
ATOM      3  C   UNL     1       7.556   4.662  18.132  0.00  0.00    +0.000 A 
ATOM      4  N   UNL     1       6.327   4.506  18.669  0.00  0.00    +0.000 NA
ATOM      5  C   UNL     1       5.422   4.251  17.707  0.00  0.00    +0.000 A 
ATOM      6  C   UNL     1       5.639   4.191  16.334  0.00  0.00    +0.000 A 
ATOM      7  N   UNL     1       4.460   3.919  15.669  0.00  0.00    +0.000 NA
ATOM      8  C   UNL     1       3.547   3.834  16.612  0.00  0.00    +0.000 A 
ATOM      9  N   UNL     1       4.077   4.054  17.856  0.00  0.00    +0.000 N 
ENDROOT
BRANCH   9  10
ATOM     10  C   UNL     1       3.294   4.110  19.072  0.00  0.00    +0.000 C 
ATOM     11  O   UNL     1       2.177   5.002  18.888  0.00  0.00    +0.000 OA
ATOM     12  C   UNL     1       1.205   4.660  19.903  0.00  0.00    +0.000 C 
ATOM     13  C   UNL     1       1.313   3.145  20.091  0.00  0.00    +0.000 C 
ATOM     14  C   UNL     1       2.743   2.777  19.632  0.00  0.00    +0.000 C 
ATOM     15  C   UNL     1       3.619   2.294  20.789  0.00  0.00    +0.000 C 
BRANCH  13  16
ATOM     16  O   UNL     1       0.319   2.503  19.282  0.00  0.00    +0.000 OA
ATOM     17  H   UNL     1       0.752   2.122  18.498  0.00  0.00    +0.000 HD
ENDBRANCH  13  16
BRANCH  14  18
ATOM     18  O   UNL     1       2.725   1.687  18.705  0.00  0.00    +0.000 OA
ATOM     19  H   UNL     1       3.330   1.893  17.965  0.00  0.00    +0.000 HD
ENDBRANCH  14  18
BRANCH  12  20
ATOM     20  C   UNL     1       1.506   5.442  21.188  0.00  0.00    +0.000 C 
BRANCH  20  21
ATOM     21  O   UNL     1       1.821   6.798  20.883  0.00  0.00    +0.000 OA
ATOM     22  H   UNL     1       0.977   7.278  20.788  0.00  0.00    +0.000 HD
ENDBRANCH  20  21
ENDBRANCH  12  20
ENDBRANCH   9  10
BRANCH   1  23
ATOM     23  N   UNL     1       7.327   4.419  14.503  0.00  0.00    +0.000 N 
ATOM     24  C   UNL     1       6.262   3.935  13.628  0.00  0.00    +0.000 C 
BRANCH  23  26
ATOM     25  C   UNL     1       7.980   5.448  12.578  0.00  0.00    +0.000 C 
ATOM     26  O   UNL     1       7.889   5.603  13.993  0.00  0.00    +0.000 OA
ENDBRANCH  23  26
ENDBRANCH   1  23
TORSDOF 7
ENDMDL
MODEL 3
REMARK VINA RESULT:      -6.2      1.824      2.330
REMARK  Name = 
REMARK  10 active torsions:
REMARK  status: ('A' for Active; 'I' for Inactive)
REMARK    1  A    between atoms: C_1  and  O_2
REMARK    2  A    between atoms: O_2  and  N_3
REMARK    3  A    between atoms: N_3  and  C_4
REMARK    4  A    between atoms: N_3  and  C_5
REMARK    5  A    between atoms: N_13  and  C_14
REMARK    6  A    between atoms: C_16  and  C_17
REMARK    7  A    between atoms: C_17  and  O_18
REMARK    8  A    between atoms: C_19  and  O_20
REMARK    9  A    between atoms: C_21  and  C_22
REMARK   10  A    between atoms: C_21  and  O_23
REMARK                            x       y       z     vdW  Elec       q    Type
REMARK                         _______ _______ _______ _____ _____    ______ ____
ROOT
ATOM      1  C   UNL     1       1.168   9.435  19.977  0.00  0.00    +0.000 A 
ATOM      2  N   UNL     1       1.308  10.128  18.804  0.00  0.00    +0.000 NA
ATOM      3  C   UNL     1       1.953   9.558  17.766  0.00  0.00    +0.000 A 
ATOM      4  N   UNL     1       2.496   8.325  17.691  0.00  0.00    +0.000 NA
ATOM      5  C   UNL     1       2.291   7.649  18.837  0.00  0.00    +0.000 A 
ATOM      6  C   UNL     1       1.663   8.108  19.990  0.00  0.00    +0.000 A 
ATOM      7  N   UNL     1       1.658   7.126  20.961  0.00  0.00    +0.000 NA
ATOM      8  C   UNL     1       2.282   6.104  20.418  0.00  0.00    +0.000 A 
ATOM      9  N   UNL     1       2.706   6.383  19.145  0.00  0.00    +0.000 N 
ENDROOT
BRANCH   9  10
ATOM     10  C   UNL     1       3.496   5.479  18.337  0.00  0.00    +0.000 C 
ATOM     11  O   UNL     1       4.897   5.692  18.603  0.00  0.00    +0.000 OA
ATOM     12  C   UNL     1       5.585   4.497  18.169  0.00  0.00    +0.000 C 
ATOM     13  C   UNL     1       4.631   3.336  18.460  0.00  0.00    +0.000 C 
ATOM     14  C   UNL     1       3.218   3.963  18.477  0.00  0.00    +0.000 C 
ATOM     15  C   UNL     1       2.353   3.481  17.312  0.00  0.00    +0.000 C 
BRANCH  13  16
ATOM     16  O   UNL     1       4.968   2.763  19.730  0.00  0.00    +0.000 OA
ATOM     17  H   UNL     1       5.909   2.512  19.719  0.00  0.00    +0.000 HD
ENDBRANCH  13  16
BRANCH  14  18
ATOM     18  O   UNL     1       2.495   3.582  19.652  0.00  0.00    +0.000 OA
ATOM     19  H   UNL     1       1.622   4.022  19.643  0.00  0.00    +0.000 HD
ENDBRANCH  14  18
BRANCH  12  20
ATOM     20  C   UNL     1       5.937   4.617  16.680  0.00  0.00    +0.000 C 
BRANCH  20  21
ATOM     21  O   UNL     1       5.913   3.336  16.058  0.00  0.00    +0.000 OA
ATOM     22  H   UNL     1       6.532   2.763  16.546  0.00  0.00    +0.000 HD
ENDBRANCH  20  21
ENDBRANCH  12  20
ENDBRANCH   9  10
BRANCH   1  23
ATOM     23  N   UNL     1       0.538  10.053  21.088  0.00  0.00    +0.000 N 
ATOM     24  C   UNL     1       0.151  11.437  20.823  0.00  0.00    +0.000 C 
BRANCH  23  26
ATOM     25  C   UNL     1      -0.347   9.491  23.111  0.00  0.00    +0.000 C 
ATOM     26  O   UNL     1      -0.516   9.352  21.702  0.00  0.00    +0.000 OA
ENDBRANCH  23  26
ENDBRANCH   1  23
TORSDOF 7
ENDMDL
MODEL 4
REMARK VINA RESULT:      -6.1      3.630      5.947
REMARK  Name = 
REMARK  10 active torsions:
REMARK  status: ('A' for Active; 'I' for Inactive)
REMARK    1  A    between atoms: C_1  and  O_2
REMARK    2  A    between atoms: O_2  and  N_3
REMARK    3  A    between atoms: N_3  and  C_4
REMARK    4  A    between atoms: N_3  and  C_5
REMARK    5  A    between atoms: N_13  and  C_14
REMARK    6  A    between atoms: C_16  and  C_17
REMARK    7  A    between atoms: C_17  and  O_18
REMARK    8  A    between atoms: C_19  and  O_20
REMARK    9  A    between atoms: C_21  and  C_22
REMARK   10  A    between atoms: C_21  and  O_23
REMARK                            x       y       z     vdW  Elec       q    Type
REMARK                         _______ _______ _______ _____ _____    ______ ____
ROOT
ATOM      1  C   UNL     1       2.783   2.892  20.208  0.00  0.00    +0.000 A 
ATOM      2  N   UNL     1       3.854   2.052  20.361  0.00  0.00    +0.000 NA
ATOM      3  C   UNL     1       5.056   2.409  19.867  0.00  0.00    +0.000 A 
ATOM      4  N   UNL     1       5.396   3.548  19.226  0.00  0.00    +0.000 NA
ATOM      5  C   UNL     1       4.338   4.376  19.145  0.00  0.00    +0.000 A 
ATOM      6  C   UNL     1       3.041   4.139  19.589  0.00  0.00    +0.000 A 
ATOM      7  N   UNL     1       2.230   5.223  19.314  0.00  0.00    +0.000 NA
ATOM      8  C   UNL     1       3.010   6.087  18.703  0.00  0.00    +0.000 A 
ATOM      9  N   UNL     1       4.285   5.608  18.555  0.00  0.00    +0.000 N 
ENDROOT
BRANCH   9  10
ATOM     10  C   UNL     1       5.335   6.305  17.842  0.00  0.00    +0.000 C 
ATOM     11  O   UNL     1       6.524   6.353  18.658  0.00  0.00    +0.000 OA
ATOM     12  C   UNL     1       7.629   6.605  17.761  0.00  0.00    +0.000 C 
ATOM     13  C   UNL     1       7.283   5.879  16.458  0.00  0.00    +0.000 C 
ATOM     14  C   UNL     1       5.743   5.760  16.453  0.00  0.00    +0.000 C 
ATOM     15  C   UNL     1       5.097   6.603  15.352  0.00  0.00    +0.000 C 
BRANCH  13  16
ATOM     16  O   UNL     1       7.912   4.591  16.463  0.00  0.00    +0.000 OA
ATOM     17  H   UNL     1       7.559   4.074  17.208  0.00  0.00    +0.000 HD
ENDBRANCH  13  16
BRANCH  14  18
ATOM     18  O   UNL     1       5.327   4.418  16.178  0.00  0.00    +0.000 OA
ATOM     19  H   UNL     1       4.366   4.345  16.344  0.00  0.00    +0.000 HD
ENDBRANCH  14  18
BRANCH  12  20
ATOM     20  C   UNL     1       7.802   8.118  17.570  0.00  0.00    +0.000 C 
BRANCH  20  21
ATOM     21  O   UNL     1       8.595   8.664  18.621  0.00  0.00    +0.000 OA
ATOM     22  H   UNL     1       8.371   8.179  19.437  0.00  0.00    +0.000 HD
ENDBRANCH  20  21
ENDBRANCH  12  20
ENDBRANCH   9  10
BRANCH   1  23
ATOM     23  N   UNL     1       1.504   2.494  20.679  0.00  0.00    +0.000 N 
ATOM     24  C   UNL     1       1.281   2.845  22.080  0.00  0.00    +0.000 C 
BRANCH  23  26
ATOM     25  C   UNL     1       0.526   2.175  18.647  0.00  0.00    +0.000 C 
ATOM     26  O   UNL     1       0.392   2.850  19.896  0.00  0.00    +0.000 OA
ENDBRANCH  23  26
ENDBRANCH   1  23
TORSDOF 7
ENDMDL
MODEL 5
REMARK VINA RESULT:      -6.1      1.651      2.050
REMARK  Name = 
REMARK  10 active torsions:
REMARK  status: ('A' for Active; 'I' for Inactive)
REMARK    1  A    between atoms: C_1  and  O_2
REMARK    2  A    between atoms: O_2  and  N_3
REMARK    3  A    between atoms: N_3  and  C_4
REMARK    4  A    between atoms: N_3  and  C_5
REMARK    5  A    between atoms: N_13  and  C_14
REMARK    6  A    between atoms: C_16  and  C_17
REMARK    7  A    between atoms: C_17  and  O_18
REMARK    8  A    between atoms: C_19  and  O_20
REMARK    9  A    between atoms: C_21  and  C_22
REMARK   10  A    between atoms: C_21  and  O_23
REMARK                            x       y       z     vdW  Elec       q    Type
REMARK                         _______ _______ _______ _____ _____    ______ ____
ROOT
ATOM      1  C   UNL     1       1.003  10.173  20.037  0.00  0.00    +0.000 A 
ATOM      2  N   UNL     1       1.238  10.673  18.783  0.00  0.00    +0.000 NA
ATOM      3  C   UNL     1       1.824   9.893  17.854  0.00  0.00    +0.000 A 
ATOM      4  N   UNL     1       2.220   8.607  17.966  0.00  0.00    +0.000 NA
ATOM      5  C   UNL     1       1.923   8.128  19.188  0.00  0.00    +0.000 A 
ATOM      6  C   UNL     1       1.339   8.814  20.248  0.00  0.00    +0.000 A 
ATOM      7  N   UNL     1       1.206   7.986  21.345  0.00  0.00    +0.000 NA
ATOM      8  C   UNL     1       1.714   6.833  20.968  0.00  0.00    +0.000 A 
ATOM      9  N   UNL     1       2.183   6.879  19.681  0.00  0.00    +0.000 N 
ENDROOT
BRANCH   9  10
ATOM     10  C   UNL     1       2.872   5.786  19.030  0.00  0.00    +0.000 C 
ATOM     11  O   UNL     1       4.156   5.584  19.653  0.00  0.00    +0.000 OA
ATOM     12  C   UNL     1       4.572   4.241  19.315  0.00  0.00    +0.000 C 
ATOM     13  C   UNL     1       3.289   3.406  19.268  0.00  0.00    +0.000 C 
ATOM     14  C   UNL     1       2.156   4.416  18.979  0.00  0.00    +0.000 C 
ATOM     15  C   UNL     1       1.527   4.206  17.600  0.00  0.00    +0.000 C 
BRANCH  13  16
ATOM     16  O   UNL     1       3.109   2.759  20.534  0.00  0.00    +0.000 OA
ATOM     17  H   UNL     1       3.055   1.798  20.388  0.00  0.00    +0.000 HD
ENDBRANCH  13  16
BRANCH  14  18
ATOM     18  O   UNL     1       1.073   4.258  19.902  0.00  0.00    +0.000 OA
ATOM     19  H   UNL     1       0.278   4.693  19.534  0.00  0.00    +0.000 HD
ENDBRANCH  14  18
BRANCH  12  20
ATOM     20  C   UNL     1       5.321   4.256  17.976  0.00  0.00    +0.000 C 
BRANCH  20  21
ATOM     21  O   UNL     1       4.914   3.157  17.166  0.00  0.00    +0.000 OA
ATOM     22  H   UNL     1       5.602   3.024  16.488  0.00  0.00    +0.000 HD
ENDBRANCH  20  21
ENDBRANCH  12  20
ENDBRANCH   9  10
BRANCH   1  23
ATOM     23  N   UNL     1       0.435  11.010  21.033  0.00  0.00    +0.000 N 
ATOM     24  C   UNL     1       0.584  12.432  20.731  0.00  0.00    +0.000 C 
BRANCH  23  26
ATOM     25  C   UNL     1      -0.884  10.714  22.866  0.00  0.00    +0.000 C 
ATOM     26  O   UNL     1      -0.880  10.724  21.440  0.00  0.00    +0.000 OA
ENDBRANCH  23  26
ENDBRANCH   1  23
TORSDOF 7
ENDMDL
MODEL 6
REMARK VINA RESULT:      -6.1      1.765      3.141
REMARK  Name = 
REMARK  10 active torsions:
REMARK  status: ('A' for Active; 'I' for Inactive)
REMARK    1  A    between atoms: C_1  and  O_2
REMARK    2  A    between atoms: O_2  and  N_3
REMARK    3  A    between atoms: N_3  and  C_4
REMARK    4  A    between atoms: N_3  and  C_5
REMARK    5  A    between atoms: N_13  and  C_14
REMARK    6  A    between atoms: C_16  and  C_17
REMARK    7  A    between atoms: C_17  and  O_18
REMARK    8  A    between atoms: C_19  and  O_20
REMARK    9  A    between atoms: C_21  and  C_22
REMARK   10  A    between atoms: C_21  and  O_23
REMARK                            x       y       z     vdW  Elec       q    Type
REMARK                         _______ _______ _______ _____ _____    ______ ____
ROOT
ATOM      1  C   UNL     1       1.272   9.841  19.457  0.00  0.00    +0.000 A 
ATOM      2  N   UNL     1       0.838   9.581  20.730  0.00  0.00    +0.000 NA
ATOM      3  C   UNL     1       0.921   8.328  21.219  0.00  0.00    +0.000 A 
ATOM      4  N   UNL     1       1.417   7.224  20.620  0.00  0.00    +0.000 NA
ATOM      5  C   UNL     1       1.888   7.525  19.396  0.00  0.00    +0.000 A 
ATOM      6  C   UNL     1       1.856   8.759  18.755  0.00  0.00    +0.000 A 
ATOM      7  N   UNL     1       2.425   8.667  17.500  0.00  0.00    +0.000 NA
ATOM      8  C   UNL     1       2.776   7.406  17.375  0.00  0.00    +0.000 A 
ATOM      9  N   UNL     1       2.448   6.672  18.485  0.00  0.00    +0.000 N 
ENDROOT
BRANCH   9  10
ATOM     10  C   UNL     1       2.634   5.241  18.595  0.00  0.00    +0.000 C 
ATOM     11  O   UNL     1       2.978   4.697  17.304  0.00  0.00    +0.000 OA
ATOM     12  C   UNL     1       3.604   3.417  17.550  0.00  0.00    +0.000 C 
ATOM     13  C   UNL     1       4.383   3.578  18.857  0.00  0.00    +0.000 C 
ATOM     14  C   UNL     1       3.682   4.730  19.612  0.00  0.00    +0.000 C 
ATOM     15  C   UNL     1       2.984   4.253  20.886  0.00  0.00    +0.000 C 
BRANCH  13  16
ATOM     16  O   UNL     1       5.746   3.900  18.551  0.00  0.00    +0.000 OA
ATOM     17  H   UNL     1       6.241   3.989  19.385  0.00  0.00    +0.000 HD
ENDBRANCH  13  16
BRANCH  14  18
ATOM     18  O   UNL     1       4.627   5.709  20.057  0.00  0.00    +0.000 OA
ATOM     19  H   UNL     1       4.576   5.777  21.031  0.00  0.00    +0.000 HD
ENDBRANCH  14  18
BRANCH  12  20
ATOM     20  C   UNL     1       2.529   2.325  17.628  0.00  0.00    +0.000 C 
BRANCH  20  21
ATOM     21  O   UNL     1       2.941   1.285  18.510  0.00  0.00    +0.000 OA
ATOM     22  H   UNL     1       2.240   1.174  19.178  0.00  0.00    +0.000 HD
ENDBRANCH  20  21
ENDBRANCH  12  20
ENDBRANCH   9  10
BRANCH   1  23
ATOM     23  N   UNL     1       1.136  11.148  18.920  0.00  0.00    +0.000 N 
ATOM     24  C   UNL     1      -0.240  11.638  18.964  0.00  0.00    +0.000 C 
BRANCH  23  26
ATOM     25  C   UNL     1       2.593  12.760  18.237  0.00  0.00    +0.000 C 
ATOM     26  O   UNL     1       2.028  12.130  19.385  0.00  0.00    +0.000 OA
ENDBRANCH  23  26
ENDBRANCH   1  23
TORSDOF 7
ENDMDL
MODEL 7
REMARK VINA RESULT:      -6.1      1.961      3.203
REMARK  Name = 
REMARK  10 active torsions:
REMARK  status: ('A' for Active; 'I' for Inactive)
REMARK    1  A    between atoms: C_1  and  O_2
REMARK    2  A    between atoms: O_2  and  N_3
REMARK    3  A    between atoms: N_3  and  C_4
REMARK    4  A    between atoms: N_3  and  C_5
REMARK    5  A    between atoms: N_13  and  C_14
REMARK    6  A    between atoms: C_16  and  C_17
REMARK    7  A    between atoms: C_17  and  O_18
REMARK    8  A    between atoms: C_19  and  O_20
REMARK    9  A    between atoms: C_21  and  C_22
REMARK   10  A    between atoms: C_21  and  O_23
REMARK                            x       y       z     vdW  Elec       q    Type
REMARK                         _______ _______ _______ _____ _____    ______ ____
ROOT
ATOM      1  C   UNL     1       1.007   9.735  19.574  0.00  0.00    +0.000 A 
ATOM      2  N   UNL     1       0.737   9.346  20.859  0.00  0.00    +0.000 NA
ATOM      3  C   UNL     1       1.138   8.132  21.286  0.00  0.00    +0.000 A 
ATOM      4  N   UNL     1       1.829   7.190  20.609  0.00  0.00    +0.000 NA
ATOM      5  C   UNL     1       2.129   7.626  19.372  0.00  0.00    +0.000 A 
ATOM      6  C   UNL     1       1.770   8.837  18.790  0.00  0.00    +0.000 A 
ATOM      7  N   UNL     1       2.253   8.914  17.498  0.00  0.00    +0.000 NA
ATOM      8  C   UNL     1       2.873   7.772  17.295  0.00  0.00    +0.000 A 
ATOM      9  N   UNL     1       2.802   6.952  18.390  0.00  0.00    +0.000 N 
ENDROOT
BRANCH   9  10
ATOM     10  C   UNL     1       3.317   5.600  18.425  0.00  0.00    +0.000 C 
ATOM     11  O   UNL     1       2.520   4.755  17.571  0.00  0.00    +0.000 OA
ATOM     12  C   UNL     1       3.327   3.594  17.269  0.00  0.00    +0.000 C 
ATOM     13  C   UNL     1       4.770   4.099  17.188  0.00  0.00    +0.000 C 
ATOM     14  C   UNL     1       4.800   5.388  18.040  0.00  0.00    +0.000 C 
ATOM     15  C   UNL     1       5.650   5.231  19.302  0.00  0.00    +0.000 C 
BRANCH  13  16
ATOM     16  O   UNL     1       5.094   4.365  15.817  0.00  0.00    +0.000 OA
ATOM     17  H   UNL     1       4.541   5.103  15.504  0.00  0.00    +0.000 HD
ENDBRANCH  13  16
BRANCH  14  18
ATOM     18  O   UNL     1       5.405   6.469  17.323  0.00  0.00    +0.000 OA
ATOM     19  H   UNL     1       6.193   6.773  17.816  0.00  0.00    +0.000 HD
ENDBRANCH  14  18
BRANCH  12  20
ATOM     20  C   UNL     1       3.128   2.532  18.358  0.00  0.00    +0.000 C 
BRANCH  20  21
ATOM     21  O   UNL     1       1.984   1.733  18.071  0.00  0.00    +0.000 OA
ATOM     22  H   UNL     1       2.301   0.833  17.868  0.00  0.00    +0.000 HD
ENDBRANCH  20  21
ENDBRANCH  12  20
ENDBRANCH   9  10
BRANCH   1  23
ATOM     23  N   UNL     1       0.537  10.989  19.105  0.00  0.00    +0.000 N 
ATOM     24  C   UNL     1      -0.907  11.147  19.257  0.00  0.00    +0.000 C 
BRANCH  23  26
ATOM     25  C   UNL     1       2.067  12.565  18.498  0.00  0.00    +0.000 C 
ATOM     26  O   UNL     1       1.212  12.138  19.557  0.00  0.00    +0.000 OA
ENDBRANCH  23  26
ENDBRANCH   1  23
TORSDOF 7
ENDMDL
MODEL 8
REMARK VINA RESULT:      -6.0      1.952      2.307
REMARK  Name = 
REMARK  10 active torsions:
REMARK  status: ('A' for Active; 'I' for Inactive)
REMARK    1  A    between atoms: C_1  and  O_2
REMARK    2  A    between atoms: O_2  and  N_3
REMARK    3  A    between atoms: N_3  and  C_4
REMARK    4  A    between atoms: N_3  and  C_5
REMARK    5  A    between atoms: N_13  and  C_14
REMARK    6  A    between atoms: C_16  and  C_17
REMARK    7  A    between atoms: C_17  and  O_18
REMARK    8  A    between atoms: C_19  and  O_20
REMARK    9  A    between atoms: C_21  and  C_22
REMARK   10  A    between atoms: C_21  and  O_23
REMARK                            x       y       z     vdW  Elec       q    Type
REMARK                         _______ _______ _______ _____ _____    ______ ____
ROOT
ATOM      1  C   UNL     1       0.973   9.111  19.844  0.00  0.00    +0.000 A 
ATOM      2  N   UNL     1       1.237   9.857  18.726  0.00  0.00    +0.000 NA
ATOM      3  C   UNL     1       2.108   9.395  17.807  0.00  0.00    +0.000 A 
ATOM      4  N   UNL     1       2.785   8.227  17.805  0.00  0.00    +0.000 NA
ATOM      5  C   UNL     1       2.460   7.493  18.885  0.00  0.00    +0.000 A 
ATOM      6  C   UNL     1       1.598   7.843  19.919  0.00  0.00    +0.000 A 
ATOM      7  N   UNL     1       1.531   6.831  20.857  0.00  0.00    +0.000 NA
ATOM      8  C   UNL     1       2.345   5.899  20.412  0.00  0.00    +0.000 A 
ATOM      9  N   UNL     1       2.949   6.265  19.238  0.00  0.00    +0.000 N 
ENDROOT
BRANCH   9  10
ATOM     10  C   UNL     1       3.958   5.477  18.565  0.00  0.00    +0.000 C 
ATOM     11  O   UNL     1       5.212   5.595  19.266  0.00  0.00    +0.000 OA
ATOM     12  C   UNL     1       6.017   4.462  18.865  0.00  0.00    +0.000 C 
ATOM     13  C   UNL     1       5.036   3.304  18.664  0.00  0.00    +0.000 C 
ATOM     14  C   UNL     1       3.674   3.969  18.363  0.00  0.00    +0.000 C 
ATOM     15  C   UNL     1       3.205   3.713  16.930  0.00  0.00    +0.000 C 
BRANCH  13  16
ATOM     16  O   UNL     1       4.987   2.522  19.864  0.00  0.00    +0.000 OA
ATOM     17  H   UNL     1       5.028   3.122  20.630  0.00  0.00    +0.000 HD
ENDBRANCH  13  16
BRANCH  14  18
ATOM     18  O   UNL     1       2.639   3.428  19.190  0.00  0.00    +0.000 OA
ATOM     19  H   UNL     1       2.487   4.033  19.943  0.00  0.00    +0.000 HD
ENDBRANCH  14  18
BRANCH  12  20
ATOM     20  C   UNL     1       6.796   4.810  17.590  0.00  0.00    +0.000 C 
BRANCH  20  21
ATOM     21  O   UNL     1       8.045   4.125  17.568  0.00  0.00    +0.000 OA
ATOM     22  H   UNL     1       8.038   3.531  16.794  0.00  0.00    +0.000 HD
ENDBRANCH  20  21
ENDBRANCH  12  20
ENDBRANCH   9  10
BRANCH   1  23
ATOM     23  N   UNL     1       0.099   9.620  20.839  0.00  0.00    +0.000 N 
ATOM     24  C   UNL     1       0.788   9.949  22.086  0.00  0.00    +0.000 C 
BRANCH  23  26
ATOM     25  C   UNL     1      -0.853  11.557  21.570  0.00  0.00    +0.000 C 
ATOM     26  O   UNL     1      -0.768  10.662  20.463  0.00  0.00    +0.000 OA
ENDBRANCH  23  26
ENDBRANCH   1  23
TORSDOF 7
ENDMDL
MODEL 9
REMARK VINA RESULT:      -6.0      2.086      3.204
REMARK  Name = 
REMARK  10 active torsions:
REMARK  status: ('A' for Active; 'I' for Inactive)
REMARK    1  A    between atoms: C_1  and  O_2
REMARK    2  A    between atoms: O_2  and  N_3
REMARK    3  A    between atoms: N_3  and  C_4
REMARK    4  A    between atoms: N_3  and  C_5
REMARK    5  A    between atoms: N_13  and  C_14
REMARK    6  A    between atoms: C_16  and  C_17
REMARK    7  A    between atoms: C_17  and  O_18
REMARK    8  A    between atoms: C_19  and  O_20
REMARK    9  A    between atoms: C_21  and  C_22
REMARK   10  A    between atoms: C_21  and  O_23
REMARK                            x       y       z     vdW  Elec       q    Type
REMARK                         _______ _______ _______ _____ _____    ______ ____
ROOT
ATOM      1  C   UNL     1       0.917   9.769  19.682  0.00  0.00    +0.000 A 
ATOM      2  N   UNL     1       0.677   9.374  20.971  0.00  0.00    +0.000 NA
ATOM      3  C   UNL     1       1.088   8.158  21.383  0.00  0.00    +0.000 A 
ATOM      4  N   UNL     1       1.763   7.220  20.685  0.00  0.00    +0.000 NA
ATOM      5  C   UNL     1       2.034   7.661  19.443  0.00  0.00    +0.000 A 
ATOM      6  C   UNL     1       1.662   8.875  18.875  0.00  0.00    +0.000 A 
ATOM      7  N   UNL     1       2.115   8.959  17.573  0.00  0.00    +0.000 NA
ATOM      8  C   UNL     1       2.730   7.818  17.351  0.00  0.00    +0.000 A 
ATOM      9  N   UNL     1       2.684   6.992  18.443  0.00  0.00    +0.000 N 
ENDROOT
BRANCH   9  10
ATOM     10  C   UNL     1       3.200   5.640  18.459  0.00  0.00    +0.000 C 
ATOM     11  O   UNL     1       2.402   4.807  17.595  0.00  0.00    +0.000 OA
ATOM     12  C   UNL     1       3.210   3.651  17.277  0.00  0.00    +0.000 C 
ATOM     13  C   UNL     1       4.652   4.157  17.201  0.00  0.00    +0.000 C 
ATOM     14  C   UNL     1       4.683   5.434  18.070  0.00  0.00    +0.000 C 
ATOM     15  C   UNL     1       5.534   5.262  19.329  0.00  0.00    +0.000 C 
BRANCH  13  16
ATOM     16  O   UNL     1       4.974   4.442  15.833  0.00  0.00    +0.000 OA
ATOM     17  H   UNL     1       5.767   3.933  15.587  0.00  0.00    +0.000 HD
ENDBRANCH  13  16
BRANCH  14  18
ATOM     18  O   UNL     1       5.286   6.525  17.367  0.00  0.00    +0.000 OA
ATOM     19  H   UNL     1       5.670   6.189  16.532  0.00  0.00    +0.000 HD
ENDBRANCH  14  18
BRANCH  12  20
ATOM     20  C   UNL     1       3.013   2.574  18.352  0.00  0.00    +0.000 C 
BRANCH  20  21
ATOM     21  O   UNL     1       3.999   1.554  18.221  0.00  0.00    +0.000 OA
ATOM     22  H   UNL     1       3.552   0.759  17.875  0.00  0.00    +0.000 HD
ENDBRANCH  20  21
ENDBRANCH  12  20
ENDBRANCH   9  10
BRANCH   1  23
ATOM     23  N   UNL     1       0.437  11.026  19.230  0.00  0.00    +0.000 N 
ATOM     24  C   UNL     1       1.511  11.973  18.940  0.00  0.00    +0.000 C 
BRANCH  23  26
ATOM     25  C   UNL     1      -1.340  12.163  18.370  0.00  0.00    +0.000 C 
ATOM     26  O   UNL     1      -0.510  11.017  18.190  0.00  0.00    +0.000 OA
ENDBRANCH  23  26
ENDBRANCH   1  23
TORSDOF 7
ENDMDL
