MODEL 1
REMARK VINA RESULT:      -3.6      0.000      0.000
REMARK  Name = 
REMARK  7 active torsions:
REMARK  status: ('A' for Active; 'I' for Inactive)
REMARK    1  A    between atoms: C_2  and  O_3
REMARK    2  A    between atoms: O_3  and  C_4
REMARK    3  A    between atoms: C_4  and  C_5
REMARK    4  A    between atoms: C_5  and  N_6
REMARK    5  A    between atoms: N_6  and  C_7
REMARK    6  A    between atoms: N_6  and  C_8
REMARK    7  A    between atoms: N_6  and  C_9
REMARK                            x       y       z     vdW  Elec       q    Type
REMARK                         _______ _______ _______ _____ _____    ______ ____
ROOT
ATOM      1  C   UNL     1       2.595   4.371  18.402  0.00  0.00    +0.000 C 
ENDROOT
BRANCH   1   2
ATOM      2  N   UNL     1       3.780   3.498  18.127  0.00  0.00    +0.000 N 
ATOM      3  C   UNL     1       4.829   3.682  19.161  0.00  0.00    +0.000 C 
ATOM      4  C   UNL     1       3.402   2.067  18.055  0.00  0.00    +0.000 C 
ATOM      5  C   UNL     1       4.352   3.895  16.818  0.00  0.00    +0.000 C 
ENDBRANCH   1   2
BRANCH   1   6
ATOM      6  C   UNL     1       1.278   3.614  18.671  0.00  0.00    +0.000 C 
BRANCH   6   7
ATOM      7  O   UNL     1       0.802   3.922  19.928  0.00  0.00    +0.000 OA
BRANCH   7   9
ATOM      8  C   UNL     1       1.689   2.606  21.631  0.00  0.00    +0.000 C 
ATOM      9  C   UNL     1       1.585   3.786  21.024  0.00  0.00    +0.000 C 
ENDBRANCH   7   9
ENDBRANCH   6   7
ENDBRANCH   1   6
TORSDOF 4
ENDMDL
MODEL 2
REMARK VINA RESULT:      -3.6      1.026      1.893
REMARK  Name = 
REMARK  7 active torsions:
REMARK  status: ('A' for Active; 'I' for Inactive)
REMARK    1  A    between atoms: C_2  and  O_3
REMARK    2  A    between atoms: O_3  and  C_4
REMARK    3  A    between atoms: C_4  and  C_5
REMARK    4  A    between atoms: C_5  and  N_6
REMARK    5  A    between atoms: N_6  and  C_7
REMARK    6  A    between atoms: N_6  and  C_8
REMARK    7  A    between atoms: N_6  and  C_9
REMARK                            x       y       z     vdW  Elec       q    Type
REMARK                         _______ _______ _______ _____ _____    ______ ____
ROOT
ATOM      1  C   UNL     1       3.413   2.397  18.077  0.00  0.00    +0.000 C 
ENDROOT
BRANCH   1   2
ATOM      2  N   UNL     1       3.989   3.771  17.928  0.00  0.00    +0.000 N 
ATOM      3  C   UNL     1       4.864   3.856  16.733  0.00  0.00    +0.000 C 
ATOM      4  C   UNL     1       2.928   4.803  17.839  0.00  0.00    +0.000 C 
ATOM      5  C   UNL     1       4.816   4.058  19.125  0.00  0.00    +0.000 C 
ENDBRANCH   1   2
BRANCH   1   6
ATOM      6  C   UNL     1       1.890   2.352  18.319  0.00  0.00    +0.000 C 
BRANCH   6   7
ATOM      7  O   UNL     1       1.627   1.974  19.618  0.00  0.00    +0.000 OA
BRANCH   7   9
ATOM      8  C   UNL     1       2.009   3.105  21.617  0.00  0.00    +0.000 C 
ATOM      9  C   UNL     1       1.249   2.884  20.547  0.00  0.00    +0.000 C 
ENDBRANCH   7   9
ENDBRANCH   6   7
ENDBRANCH   1   6
TORSDOF 4
ENDMDL
MODEL 3
REMARK VINA RESULT:      -3.6      3.618      5.663
REMARK  Name = 
REMARK  7 active torsions:
REMARK  status: ('A' for Active; 'I' for Inactive)
REMARK    1  A    between atoms: C_2  and  O_3
REMARK    2  A    between atoms: O_3  and  C_4
REMARK    3  A    between atoms: C_4  and  C_5
REMARK    4  A    between atoms: C_5  and  N_6
REMARK    5  A    between atoms: N_6  and  C_7
REMARK    6  A    between atoms: N_6  and  C_8
REMARK    7  A    between atoms: N_6  and  C_9
REMARK                            x       y       z     vdW  Elec       q    Type
REMARK                         _______ _______ _______ _____ _____    ______ ____
ROOT
ATOM      1  C   UNL     1       6.356   4.902  18.125  0.00  0.00    +0.000 C 
ENDROOT
BRANCH   1   2
ATOM      2  N   UNL     1       4.873   5.095  18.058  0.00  0.00    +0.000 N 
ATOM      3  C   UNL     1       4.212   3.932  17.414  0.00  0.00    +0.000 C 
ATOM      4  C   UNL     1       4.287   5.314  19.401  0.00  0.00    +0.000 C 
ATOM      5  C   UNL     1       4.600   6.294  17.230  0.00  0.00    +0.000 C 
ENDBRANCH   1   2
BRANCH   1   6
ATOM      6  C   UNL     1       7.156   5.612  17.014  0.00  0.00    +0.000 C 
BRANCH   6   7
ATOM      7  O   UNL     1       7.501   4.712  16.028  0.00  0.00    +0.000 OA
BRANCH   7   9
ATOM      8  C   UNL     1       6.165   3.952  14.279  0.00  0.00    +0.000 C 
ATOM      9  C   UNL     1       7.026   4.842  14.767  0.00  0.00    +0.000 C 
ENDBRANCH   7   9
ENDBRANCH   6   7
ENDBRANCH   1   6
TORSDOF 4
ENDMDL
MODEL 4
REMARK VINA RESULT:      -3.6      3.653      5.277
REMARK  Name = 
REMARK  7 active torsions:
REMARK  status: ('A' for Active; 'I' for Inactive)
REMARK    1  A    between atoms: C_2  and  O_3
REMARK    2  A    between atoms: O_3  and  C_4
REMARK    3  A    between atoms: C_4  and  C_5
REMARK    4  A    between atoms: C_5  and  N_6
REMARK    5  A    between atoms: N_6  and  C_7
REMARK    6  A    between atoms: N_6  and  C_8
REMARK    7  A    between atoms: N_6  and  C_9
REMARK                            x       y       z     vdW  Elec       q    Type
REMARK                         _______ _______ _______ _____ _____    ______ ____
ROOT
ATOM      1  C   UNL     1       5.330   4.776  16.184  0.00  0.00    +0.000 C 
ENDROOT
BRANCH   1   2
ATOM      2  N   UNL     1       4.410   4.680  17.361  0.00  0.00    +0.000 N 
ATOM      3  C   UNL     1       3.844   6.007  17.706  0.00  0.00    +0.000 C 
ATOM      4  C   UNL     1       3.307   3.720  17.117  0.00  0.00    +0.000 C 
ATOM      5  C   UNL     1       5.196   4.199  18.523  0.00  0.00    +0.000 C 
ENDBRANCH   1   2
BRANCH   1   6
ATOM      6  C   UNL     1       6.831   4.839  16.534  0.00  0.00    +0.000 C 
BRANCH   6   7
ATOM      7  O   UNL     1       7.322   6.104  16.292  0.00  0.00    +0.000 OA
BRANCH   7   9
ATOM      8  C   UNL     1       7.835   6.656  18.496  0.00  0.00    +0.000 C 
ATOM      9  C   UNL     1       7.413   7.019  17.286  0.00  0.00    +0.000 C 
ENDBRANCH   7   9
ENDBRANCH   6   7
ENDBRANCH   1   6
TORSDOF 4
ENDMDL
MODEL 5
REMARK VINA RESULT:      -3.5      3.895      5.580
REMARK  Name = 
REMARK  7 active torsions:
REMARK  status: ('A' for Active; 'I' for Inactive)
REMARK    1  A    between atoms: C_2  and  O_3
REMARK    2  A    between atoms: O_3  and  C_4
REMARK    3  A    between atoms: C_4  and  C_5
REMARK    4  A    between atoms: C_5  and  N_6
REMARK    5  A    between atoms: N_6  and  C_7
REMARK    6  A    between atoms: N_6  and  C_8
REMARK    7  A    between atoms: N_6  and  C_9
REMARK                            x       y       z     vdW  Elec       q    Type
REMARK                         _______ _______ _______ _____ _____    ______ ____
ROOT
ATOM      1  C   UNL     1       5.150   6.097  17.025  0.00  0.00    +0.000 C 
ENDROOT
BRANCH   1   2
ATOM      2  N   UNL     1       4.459   4.989  17.758  0.00  0.00    +0.000 N 
ATOM      3  C   UNL     1       4.529   3.718  16.994  0.00  0.00    +0.000 C 
ATOM      4  C   UNL     1       5.032   4.785  19.109  0.00  0.00    +0.000 C 
ATOM      5  C   UNL     1       3.030   5.355  17.909  0.00  0.00    +0.000 C 
ENDBRANCH   1   2
BRANCH   1   6
ATOM      6  C   UNL     1       6.374   5.663  16.194  0.00  0.00    +0.000 C 
BRANCH   6   7
ATOM      7  O   UNL     1       7.456   6.464  16.489  0.00  0.00    +0.000 OA
BRANCH   7   9
ATOM      8  C   UNL     1       7.926   8.412  17.674  0.00  0.00    +0.000 C 
ATOM      9  C   UNL     1       7.524   7.144  17.658  0.00  0.00    +0.000 C 
ENDBRANCH   7   9
ENDBRANCH   6   7
ENDBRANCH   1   6
TORSDOF 4
ENDMDL
MODEL 6
REMARK VINA RESULT:      -3.5      1.087      1.764
REMARK  Name = 
REMARK  7 active torsions:
REMARK  status: ('A' for Active; 'I' for Inactive)
REMARK    1  A    between atoms: C_2  and  O_3
REMARK    2  A    between atoms: O_3  and  C_4
REMARK    3  A    between atoms: C_4  and  C_5
REMARK    4  A    between atoms: C_5  and  N_6
REMARK    5  A    between atoms: N_6  and  C_7
REMARK    6  A    between atoms: N_6  and  C_8
REMARK    7  A    between atoms: N_6  and  C_9
REMARK                            x       y       z     vdW  Elec       q    Type
REMARK                         _______ _______ _______ _____ _____    ______ ____
ROOT
ATOM      1  C   UNL     1       3.449   2.499  17.850  0.00  0.00    +0.000 C 
ENDROOT
BRANCH   1   2
ATOM      2  N   UNL     1       4.169   3.809  17.775  0.00  0.00    +0.000 N 
ATOM      3  C   UNL     1       4.992   4.036  18.990  0.00  0.00    +0.000 C 
ATOM      4  C   UNL     1       5.032   3.893  16.573  0.00  0.00    +0.000 C 
ATOM      5  C   UNL     1       3.157   4.890  17.697  0.00  0.00    +0.000 C 
ENDBRANCH   1   2
BRANCH   1   6
ATOM      6  C   UNL     1       2.000   2.581  18.373  0.00  0.00    +0.000 C 
BRANCH   6   7
ATOM      7  O   UNL     1       1.931   2.089  19.659  0.00  0.00    +0.000 OA
BRANCH   7   9
ATOM      8  C   UNL     1       1.034   4.072  20.488  0.00  0.00    +0.000 C 
ATOM      9  C   UNL     1       1.288   2.773  20.634  0.00  0.00    +0.000 C 
ENDBRANCH   7   9
ENDBRANCH   6   7
ENDBRANCH   1   6
TORSDOF 4
ENDMDL
MODEL 7
REMARK VINA RESULT:      -3.5      1.434      2.206
REMARK  Name = 
REMARK  7 active torsions:
REMARK  status: ('A' for Active; 'I' for Inactive)
REMARK    1  A    between atoms: C_2  and  O_3
REMARK    2  A    between atoms: O_3  and  C_4
REMARK    3  A    between atoms: C_4  and  C_5
REMARK    4  A    between atoms: C_5  and  N_6
REMARK    5  A    between atoms: N_6  and  C_7
REMARK    6  A    between atoms: N_6  and  C_8
REMARK    7  A    between atoms: N_6  and  C_9
REMARK                            x       y       z     vdW  Elec       q    Type
REMARK                         _______ _______ _______ _____ _____    ______ ____
ROOT
ATOM      1  C   UNL     1       4.292   3.567  19.001  0.00  0.00    +0.000 C 
ENDROOT
BRANCH   1   2
ATOM      2  N   UNL     1       3.663   4.152  17.774  0.00  0.00    +0.000 N 
ATOM      3  C   UNL     1       3.032   5.462  18.069  0.00  0.00    +0.000 C 
ATOM      4  C   UNL     1       4.649   4.314  16.678  0.00  0.00    +0.000 C 
ATOM      5  C   UNL     1       2.603   3.224  17.311  0.00  0.00    +0.000 C 
ENDBRANCH   1   2
BRANCH   1   6
ATOM      6  C   UNL     1       3.511   2.400  19.639  0.00  0.00    +0.000 C 
BRANCH   6   7
ATOM      7  O   UNL     1       3.292   2.650  20.977  0.00  0.00    +0.000 OA
BRANCH   7   9
ATOM      8  C   UNL     1       1.116   3.441  20.733  0.00  0.00    +0.000 C 
ATOM      9  C   UNL     1       2.038   2.814  21.460  0.00  0.00    +0.000 C 
ENDBRANCH   7   9
ENDBRANCH   6   7
ENDBRANCH   1   6
TORSDOF 4
ENDMDL
MODEL 8
REMARK VINA RESULT:      -3.5      2.811      4.539
REMARK  Name = 
REMARK  7 active torsions:
REMARK  status: ('A' for Active; 'I' for Inactive)
REMARK    1  A    between atoms: C_2  and  O_3
REMARK    2  A    between atoms: O_3  and  C_4
REMARK    3  A    between atoms: C_4  and  C_5
REMARK    4  A    between atoms: C_5  and  N_6
REMARK    5  A    between atoms: N_6  and  C_7
REMARK    6  A    between atoms: N_6  and  C_8
REMARK    7  A    between atoms: N_6  and  C_9
REMARK                            x       y       z     vdW  Elec       q    Type
REMARK                         _______ _______ _______ _____ _____    ______ ____
ROOT
ATOM      1  C   UNL     1       4.883   3.989  18.385  0.00  0.00    +0.000 C 
ENDROOT
BRANCH   1   2
ATOM      2  N   UNL     1       3.525   3.384  18.565  0.00  0.00    +0.000 N 
ATOM      3  C   UNL     1       2.507   4.111  17.766  0.00  0.00    +0.000 C 
ATOM      4  C   UNL     1       3.511   1.949  18.193  0.00  0.00    +0.000 C 
ATOM      5  C   UNL     1       3.154   3.497  19.995  0.00  0.00    +0.000 C 
ENDBRANCH   1   2
BRANCH   1   6
ATOM      6  C   UNL     1       5.185   5.195  19.299  0.00  0.00    +0.000 C 
BRANCH   6   7
ATOM      7  O   UNL     1       6.523   5.218  19.628  0.00  0.00    +0.000 OA
BRANCH   7   9
ATOM      8  C   UNL     1       7.833   6.714  18.416  0.00  0.00    +0.000 C 
ATOM      9  C   UNL     1       7.468   5.464  18.690  0.00  0.00    +0.000 C 
ENDBRANCH   7   9
ENDBRANCH   6   7
ENDBRANCH   1   6
TORSDOF 4
ENDMDL
MODEL 9
REMARK VINA RESULT:      -3.5      2.217      4.034
REMARK  Name = 
REMARK  7 active torsions:
REMARK  status: ('A' for Active; 'I' for Inactive)
REMARK    1  A    between atoms: C_2  and  O_3
REMARK    2  A    between atoms: O_3  and  C_4
REMARK    3  A    between atoms: C_4  and  C_5
REMARK    4  A    between atoms: C_5  and  N_6
REMARK    5  A    between atoms: N_6  and  C_7
REMARK    6  A    between atoms: N_6  and  C_8
REMARK    7  A    between atoms: N_6  and  C_9
REMARK                            x       y       z     vdW  Elec       q    Type
REMARK                         _______ _______ _______ _____ _____    ______ ____
ROOT
ATOM      1  C   UNL     1       3.519   2.825  20.212  0.00  0.00    +0.000 C 
ENDROOT
BRANCH   1   2
ATOM      2  N   UNL     1       2.164   3.458  20.292  0.00  0.00    +0.000 N 
ATOM      3  C   UNL     1       1.520   3.512  18.956  0.00  0.00    +0.000 C 
ATOM      4  C   UNL     1       1.278   2.740  21.239  0.00  0.00    +0.000 C 
ATOM      5  C   UNL     1       2.333   4.849  20.777  0.00  0.00    +0.000 C 
ENDBRANCH   1   2
BRANCH   1   6
ATOM      6  C   UNL     1       4.322   3.162  18.939  0.00  0.00    +0.000 C 
BRANCH   6   7
ATOM      7  O   UNL     1       5.487   3.819  19.273  0.00  0.00    +0.000 OA
BRANCH   7   9
ATOM      8  C   UNL     1       4.884   5.787  18.184  0.00  0.00    +0.000 C 
ATOM      9  C   UNL     1       5.604   5.158  19.111  0.00  0.00    +0.000 C 
ENDBRANCH   7   9
ENDBRANCH   6   7
ENDBRANCH   1   6
TORSDOF 4
ENDMDL
