MODEL 1
REMARK VINA RESULT:      -7.3      0.000      0.000
REMARK  Name = 
REMARK  1 active torsions:
REMARK  status: ('A' for Active; 'I' for Inactive)
REMARK    1  A    between atoms: C_1  and  C_2
REMARK                            x       y       z     vdW  Elec       q    Type
REMARK                         _______ _______ _______ _____ _____    ______ ____
ROOT
ATOM      1  C   UNL     1       7.921   5.945  18.979  0.00  0.00    +0.000 C 
ATOM      2  C   UNL     1       7.031   5.270  17.985  0.00  0.00    +0.000 A 
ATOM      3  N   UNL     1       7.538   4.961  16.763  0.00  0.00    +0.000 NA
ATOM      4  C   UNL     1       6.753   4.351  15.847  0.00  0.00    +0.000 A 
ATOM      5  C   UNL     1       5.427   4.000  16.049  0.00  0.00    +0.000 A 
ATOM      6  C   UNL     1       4.881   4.310  17.303  0.00  0.00    +0.000 A 
ATOM      7  C   UNL     1       5.697   4.939  18.241  0.00  0.00    +0.000 A 
ATOM      8  N   UNL     1       4.937   5.131  19.371  0.00  0.00    +0.000 N 
ATOM      9  C   UNL     1       3.664   4.651  19.197  0.00  0.00    +0.000 A 
ATOM     10  C   UNL     1       2.578   4.642  20.080  0.00  0.00    +0.000 A 
ATOM     11  C   UNL     1       1.383   4.079  19.628  0.00  0.00    +0.000 A 
ATOM     12  C   UNL     1       1.281   3.548  18.344  0.00  0.00    +0.000 A 
ATOM     13  C   UNL     1       2.377   3.565  17.473  0.00  0.00    +0.000 A 
ATOM     14  C   UNL     1       3.596   4.128  17.906  0.00  0.00    +0.000 A 
ATOM     15  H   UNL     1       5.271   5.567  20.216  0.00  0.00    +0.000 HD
ENDROOT
TORSDOF 0
ENDMDL
MODEL 2
REMARK VINA RESULT:      -7.3      1.047      1.047
REMARK  Name = 
REMARK  1 active torsions:
REMARK  status: ('A' for Active; 'I' for Inactive)
REMARK    1  A    between atoms: C_1  and  C_2
REMARK                            x       y       z     vdW  Elec       q    Type
REMARK                         _______ _______ _______ _____ _____    ______ ____
ROOT
ATOM      1  C   UNL     1       7.457   7.314  17.457  0.00  0.00    +0.000 C 
ATOM      2  C   UNL     1       6.777   6.152  16.807  0.00  0.00    +0.000 A 
ATOM      3  N   UNL     1       7.345   5.601  15.702  0.00  0.00    +0.000 NA
ATOM      4  C   UNL     1       6.748   4.550  15.096  0.00  0.00    +0.000 A 
ATOM      5  C   UNL     1       5.565   3.962  15.515  0.00  0.00    +0.000 A 
ATOM      6  C   UNL     1       4.960   4.514  16.653  0.00  0.00    +0.000 A 
ATOM      7  C   UNL     1       5.582   5.596  17.271  0.00  0.00    +0.000 A 
ATOM      8  N   UNL     1       4.801   5.946  18.348  0.00  0.00    +0.000 N 
ATOM      9  C   UNL     1       3.702   5.131  18.447  0.00  0.00    +0.000 A 
ATOM     10  C   UNL     1       2.661   5.136  19.383  0.00  0.00    +0.000 A 
ATOM     11  C   UNL     1       1.658   4.175  19.237  0.00  0.00    +0.000 A 
ATOM     12  C   UNL     1       1.698   3.249  18.198  0.00  0.00    +0.000 A 
ATOM     13  C   UNL     1       2.747   3.258  17.270  0.00  0.00    +0.000 A 
ATOM     14  C   UNL     1       3.773   4.219  17.395  0.00  0.00    +0.000 A 
ATOM     15  H   UNL     1       5.008   6.703  18.982  0.00  0.00    +0.000 HD
ENDROOT
TORSDOF 0
ENDMDL
MODEL 3
REMARK VINA RESULT:      -7.0      2.118      5.110
REMARK  Name = 
REMARK  1 active torsions:
REMARK  status: ('A' for Active; 'I' for Inactive)
REMARK    1  A    between atoms: C_1  and  C_2
REMARK                            x       y       z     vdW  Elec       q    Type
REMARK                         _______ _______ _______ _____ _____    ______ ____
ROOT
ATOM      1  C   UNL     1       7.638   6.618  18.267  0.00  0.00    +0.000 C 
ATOM      2  C   UNL     1       6.612   5.712  17.665  0.00  0.00    +0.000 A 
ATOM      3  N   UNL     1       5.599   5.263  18.452  0.00  0.00    +0.000 NA
ATOM      4  C   UNL     1       4.660   4.442  17.931  0.00  0.00    +0.000 A 
ATOM      5  C   UNL     1       4.635   4.000  16.617  0.00  0.00    +0.000 A 
ATOM      6  C   UNL     1       5.671   4.449  15.787  0.00  0.00    +0.000 A 
ATOM      7  C   UNL     1       6.635   5.295  16.331  0.00  0.00    +0.000 A 
ATOM      8  N   UNL     1       7.526   5.588  15.326  0.00  0.00    +0.000 N 
ATOM      9  C   UNL     1       7.174   4.965  14.155  0.00  0.00    +0.000 A 
ATOM     10  C   UNL     1       7.795   4.990  12.902  0.00  0.00    +0.000 A 
ATOM     11  C   UNL     1       7.207   4.249  11.875  0.00  0.00    +0.000 A 
ATOM     12  C   UNL     1       6.044   3.514  12.097  0.00  0.00    +0.000 A 
ATOM     13  C   UNL     1       5.436   3.500  13.358  0.00  0.00    +0.000 A 
ATOM     14  C   UNL     1       6.011   4.240  14.412  0.00  0.00    +0.000 A 
ATOM     15  H   UNL     1       8.334   6.183  15.434  0.00  0.00    +0.000 HD
ENDROOT
TORSDOF 0
ENDMDL
MODEL 4
REMARK VINA RESULT:      -6.9      1.554      2.060
REMARK  Name = 
REMARK  1 active torsions:
REMARK  status: ('A' for Active; 'I' for Inactive)
REMARK    1  A    between atoms: C_1  and  C_2
REMARK                            x       y       z     vdW  Elec       q    Type
REMARK                         _______ _______ _______ _____ _____    ______ ____
ROOT
ATOM      1  C   UNL     1       7.729   4.531  17.726  0.00  0.00    +0.000 C 
ATOM      2  C   UNL     1       6.385   5.186  17.717  0.00  0.00    +0.000 A 
ATOM      3  N   UNL     1       6.218   6.317  16.983  0.00  0.00    +0.000 NA
ATOM      4  C   UNL     1       5.012   6.929  16.959  0.00  0.00    +0.000 A 
ATOM      5  C   UNL     1       3.888   6.490  17.642  0.00  0.00    +0.000 A 
ATOM      6  C   UNL     1       4.037   5.325  18.408  0.00  0.00    +0.000 A 
ATOM      7  C   UNL     1       5.282   4.701  18.426  0.00  0.00    +0.000 A 
ATOM      8  N   UNL     1       5.167   3.596  19.237  0.00  0.00    +0.000 N 
ATOM      9  C   UNL     1       3.895   3.484  19.741  0.00  0.00    +0.000 A 
ATOM     10  C   UNL     1       3.350   2.521  20.597  0.00  0.00    +0.000 A 
ATOM     11  C   UNL     1       2.006   2.658  20.950  0.00  0.00    +0.000 A 
ATOM     12  C   UNL     1       1.242   3.718  20.466  0.00  0.00    +0.000 A 
ATOM     13  C   UNL     1       1.804   4.674  19.610  0.00  0.00    +0.000 A 
ATOM     14  C   UNL     1       3.160   4.556  19.238  0.00  0.00    +0.000 A 
ATOM     15  H   UNL     1       5.917   2.953  19.437  0.00  0.00    +0.000 HD
ENDROOT
TORSDOF 0
ENDMDL
MODEL 5
REMARK VINA RESULT:      -6.9      1.045      2.427
REMARK  Name = 
REMARK  1 active torsions:
REMARK  status: ('A' for Active; 'I' for Inactive)
REMARK    1  A    between atoms: C_1  and  C_2
REMARK                            x       y       z     vdW  Elec       q    Type
REMARK                         _______ _______ _______ _____ _____    ______ ____
ROOT
ATOM      1  C   UNL     1       6.356   3.929  14.778  0.00  0.00    +0.000 C 
ATOM      2  C   UNL     1       6.338   4.366  16.208  0.00  0.00    +0.000 A 
ATOM      3  N   UNL     1       7.485   4.849  16.754  0.00  0.00    +0.000 NA
ATOM      4  C   UNL     1       7.494   5.250  18.045  0.00  0.00    +0.000 A 
ATOM      5  C   UNL     1       6.398   5.212  18.894  0.00  0.00    +0.000 A 
ATOM      6  C   UNL     1       5.204   4.717  18.352  0.00  0.00    +0.000 A 
ATOM      7  C   UNL     1       5.203   4.306  17.021  0.00  0.00    +0.000 A 
ATOM      8  N   UNL     1       3.930   3.870  16.735  0.00  0.00    +0.000 N 
ATOM      9  C   UNL     1       3.111   3.984  17.831  0.00  0.00    +0.000 A 
ATOM     10  C   UNL     1       1.758   3.660  17.979  0.00  0.00    +0.000 A 
ATOM     11  C   UNL     1       1.174   3.886  19.226  0.00  0.00    +0.000 A 
ATOM     12  C   UNL     1       1.915   4.414  20.281  0.00  0.00    +0.000 A 
ATOM     13  C   UNL     1       3.269   4.733  20.115  0.00  0.00    +0.000 A 
ATOM     14  C   UNL     1       3.883   4.514  18.864  0.00  0.00    +0.000 A 
ATOM     15  H   UNL     1       3.636   3.512  15.840  0.00  0.00    +0.000 HD
ENDROOT
TORSDOF 0
ENDMDL
MODEL 6
REMARK VINA RESULT:      -6.8      1.942      2.690
REMARK  Name = 
REMARK  1 active torsions:
REMARK  status: ('A' for Active; 'I' for Inactive)
REMARK    1  A    between atoms: C_1  and  C_2
REMARK                            x       y       z     vdW  Elec       q    Type
REMARK                         _______ _______ _______ _____ _____    ______ ____
ROOT
ATOM      1  C   UNL     1       5.966   3.862  15.100  0.00  0.00    +0.000 C 
ATOM      2  C   UNL     1       5.250   4.830  15.987  0.00  0.00    +0.000 A 
ATOM      3  N   UNL     1       5.532   6.154  15.867  0.00  0.00    +0.000 NA
ATOM      4  C   UNL     1       4.898   7.048  16.659  0.00  0.00    +0.000 A 
ATOM      5  C   UNL     1       3.950   6.724  17.617  0.00  0.00    +0.000 A 
ATOM      6  C   UNL     1       3.643   5.364  17.760  0.00  0.00    +0.000 A 
ATOM      7  C   UNL     1       4.301   4.449  16.940  0.00  0.00    +0.000 A 
ATOM      8  N   UNL     1       3.828   3.201  17.271  0.00  0.00    +0.000 N 
ATOM      9  C   UNL     1       2.892   3.276  18.271  0.00  0.00    +0.000 A 
ATOM     10  C   UNL     1       2.166   2.259  18.901  0.00  0.00    +0.000 A 
ATOM     11  C   UNL     1       1.267   2.632  19.902  0.00  0.00    +0.000 A 
ATOM     12  C   UNL     1       1.103   3.969  20.256  0.00  0.00    +0.000 A 
ATOM     13  C   UNL     1       1.838   4.975  19.615  0.00  0.00    +0.000 A 
ATOM     14  C   UNL     1       2.753   4.623  18.601  0.00  0.00    +0.000 A 
ATOM     15  H   UNL     1       4.130   2.342  16.837  0.00  0.00    +0.000 HD
ENDROOT
TORSDOF 0
ENDMDL
MODEL 7
REMARK VINA RESULT:      -6.7      1.587      1.999
REMARK  Name = 
REMARK  1 active torsions:
REMARK  status: ('A' for Active; 'I' for Inactive)
REMARK    1  A    between atoms: C_1  and  C_2
REMARK                            x       y       z     vdW  Elec       q    Type
REMARK                         _______ _______ _______ _____ _____    ______ ____
ROOT
ATOM      1  C   UNL     1       7.810   4.567  17.738  0.00  0.00    +0.000 C 
ATOM      2  C   UNL     1       6.462   5.195  17.587  0.00  0.00    +0.000 A 
ATOM      3  N   UNL     1       6.389   6.483  17.159  0.00  0.00    +0.000 NA
ATOM      4  C   UNL     1       5.181   7.073  17.015  0.00  0.00    +0.000 A 
ATOM      5  C   UNL     1       3.964   6.461  17.275  0.00  0.00    +0.000 A 
ATOM      6  C   UNL     1       4.015   5.133  17.720  0.00  0.00    +0.000 A 
ATOM      7  C   UNL     1       5.263   4.532  17.865  0.00  0.00    +0.000 A 
ATOM      8  N   UNL     1       5.043   3.248  18.305  0.00  0.00    +0.000 N 
ATOM      9  C   UNL     1       3.701   2.998  18.449  0.00  0.00    +0.000 A 
ATOM     10  C   UNL     1       3.043   1.837  18.869  0.00  0.00    +0.000 A 
ATOM     11  C   UNL     1       1.648   1.869  18.921  0.00  0.00    +0.000 A 
ATOM     12  C   UNL     1       0.944   3.017  18.568  0.00  0.00    +0.000 A 
ATOM     13  C   UNL     1       1.618   4.171  18.150  0.00  0.00    +0.000 A 
ATOM     14  C   UNL     1       3.028   4.164  18.089  0.00  0.00    +0.000 A 
ATOM     15  H   UNL     1       5.771   2.577  18.499  0.00  0.00    +0.000 HD
ENDROOT
TORSDOF 0
ENDMDL
MODEL 8
REMARK VINA RESULT:      -6.5      1.890      4.696
REMARK  Name = 
REMARK  1 active torsions:
REMARK  status: ('A' for Active; 'I' for Inactive)
REMARK    1  A    between atoms: C_1  and  C_2
REMARK                            x       y       z     vdW  Elec       q    Type
REMARK                         _______ _______ _______ _____ _____    ______ ____
ROOT
ATOM      1  C   UNL     1       3.640   1.110  18.792  0.00  0.00    +0.000 C 
ATOM      2  C   UNL     1       3.242   2.505  18.429  0.00  0.00    +0.000 A 
ATOM      3  N   UNL     1       1.920   2.789  18.291  0.00  0.00    +0.000 NA
ATOM      4  C   UNL     1       1.536   4.043  17.962  0.00  0.00    +0.000 A 
ATOM      5  C   UNL     1       2.400   5.105  17.744  0.00  0.00    +0.000 A 
ATOM      6  C   UNL     1       3.769   4.836  17.879  0.00  0.00    +0.000 A 
ATOM      7  C   UNL     1       4.157   3.541  18.219  0.00  0.00    +0.000 A 
ATOM      8  N   UNL     1       5.530   3.539  18.289  0.00  0.00    +0.000 N 
ATOM      9  C   UNL     1       6.042   4.781  18.009  0.00  0.00    +0.000 A 
ATOM     10  C   UNL     1       7.370   5.217  17.969  0.00  0.00    +0.000 A 
ATOM     11  C   UNL     1       7.600   6.557  17.650  0.00  0.00    +0.000 A 
ATOM     12  C   UNL     1       6.542   7.422  17.382  0.00  0.00    +0.000 A 
ATOM     13  C   UNL     1       5.217   6.969  17.426  0.00  0.00    +0.000 A 
ATOM     14  C   UNL     1       4.959   5.619  17.747  0.00  0.00    +0.000 A 
ATOM     15  H   UNL     1       6.089   2.731  18.516  0.00  0.00    +0.000 HD
ENDROOT
TORSDOF 0
ENDMDL
MODEL 9
REMARK VINA RESULT:      -6.5      1.789      4.559
REMARK  Name = 
REMARK  1 active torsions:
REMARK  status: ('A' for Active; 'I' for Inactive)
REMARK    1  A    between atoms: C_1  and  C_2
REMARK                            x       y       z     vdW  Elec       q    Type
REMARK                         _______ _______ _______ _____ _____    ______ ____
ROOT
ATOM      1  C   UNL     1       4.437   1.923  20.354  0.00  0.00    +0.000 C 
ATOM      2  C   UNL     1       4.076   2.940  19.319  0.00  0.00    +0.000 A 
ATOM      3  N   UNL     1       2.877   2.828  18.689  0.00  0.00    +0.000 NA
ATOM      4  C   UNL     1       2.528   3.735  17.749  0.00  0.00    +0.000 A 
ATOM      5  C   UNL     1       3.312   4.808  17.353  0.00  0.00    +0.000 A 
ATOM      6  C   UNL     1       4.554   4.942  17.988  0.00  0.00    +0.000 A 
ATOM      7  C   UNL     1       4.906   4.004  18.956  0.00  0.00    +0.000 A 
ATOM      8  N   UNL     1       6.152   4.354  19.421  0.00  0.00    +0.000 N 
ATOM      9  C   UNL     1       6.617   5.481  18.790  0.00  0.00    +0.000 A 
ATOM     10  C   UNL     1       7.822   6.171  18.956  0.00  0.00    +0.000 A 
ATOM     11  C   UNL     1       8.031   7.304  18.167  0.00  0.00    +0.000 A 
ATOM     12  C   UNL     1       7.071   7.726  17.251  0.00  0.00    +0.000 A 
ATOM     13  C   UNL     1       5.869   7.023  17.097  0.00  0.00    +0.000 A 
ATOM     14  C   UNL     1       5.634   5.875  17.883  0.00  0.00    +0.000 A 
ATOM     15  H   UNL     1       6.660   3.849  20.131  0.00  0.00    +0.000 HD
ENDROOT
TORSDOF 0
ENDMDL
