MODEL 1
REMARK VINA RESULT:      -6.5      0.000      0.000
REMARK  Name = 
REMARK  18 active torsions:
REMARK  status: ('A' for Active; 'I' for Inactive)
REMARK    1  A    between atoms: C_2  and  C_3
REMARK    2  A    between atoms: C_4  and  C_5
REMARK    3  A    between atoms: C_5  and  O_6
REMARK    4  A    between atoms: C_5  and  C_7
REMARK    5  A    between atoms: C_7  and  C_8
REMARK    6  A    between atoms: C_8  and  C_9
REMARK    7  A    between atoms: C_9  and  C_10
REMARK    8  A    between atoms: C_11  and  C_12
REMARK    9  A    between atoms: C_13  and  C_14
REMARK   10  A    between atoms: C_15  and  C_16
REMARK   11  A    between atoms: C_16  and  C_17
REMARK   12  A    between atoms: C_17  and  C_18
REMARK   13  A    between atoms: C_18  and  C_19
REMARK   14  A    between atoms: C_20  and  C_21
REMARK   15  A    between atoms: C_22  and  C_23
REMARK   16  A    between atoms: C_23  and  O_24
REMARK   17  A    between atoms: C_23  and  C_25
REMARK   18  A    between atoms: C_25  and  O_26
REMARK                            x       y       z     vdW  Elec       q    Type
REMARK                         _______ _______ _______ _____ _____    ______ ____
ROOT
ATOM      1  C   UNL     1       1.442   7.384  20.221  0.00  0.00    +0.000 C 
ATOM      2  C   UNL     1       1.121   8.603  19.893  0.00  0.00    +0.000 C 
ENDROOT
BRANCH   1   4
ATOM      3  C   UNL     1       2.137   4.740  20.931  0.00  0.00    +0.000 C 
ATOM      4  C   UNL     1       1.816   5.961  20.603  0.00  0.00    +0.000 C 
BRANCH   3   6
ATOM      5  C   UNL     1       2.060   2.272  20.569  0.00  0.00    +0.000 C 
ATOM      6  C   UNL     1       2.511   3.317  21.313  0.00  0.00    +0.000 C 
BRANCH   5   7
ATOM      7  C   UNL     1       1.180   2.527  19.355  0.00  0.00    +0.000 C 
BRANCH   7   8
ATOM      8  C   UNL     1       1.999   2.341  18.088  0.00  0.00    +0.000 C 
BRANCH   8   9
ATOM      9  C   UNL     1       2.208   3.689  17.418  0.00  0.00    +0.000 C 
BRANCH   9  10
ATOM     10  C   UNL     1       3.696   3.934  17.227  0.00  0.00    +0.000 C 
BRANCH  10  11
ATOM     11  O   UNL     1       4.432   3.079  18.088  0.00  0.00    +0.000 OA
ATOM     12  H   UNL     1       5.202   2.756  17.619  0.00  0.00    +0.000 HD
ENDBRANCH  10  11
BRANCH  10  14
ATOM     13  C   UNL     1       4.882   6.083  16.773  0.00  0.00    +0.000 C 
ATOM     14  C   UNL     1       4.018   5.383  17.557  0.00  0.00    +0.000 C 
BRANCH  13  16
ATOM     15  C   UNL     1       6.079   4.846  14.535  0.00  0.00    +0.000 C 
ATOM     16  C   UNL     1       5.527   5.416  15.569  0.00  0.00    +0.000 C 
ENDBRANCH  13  16
ENDBRANCH  10  14
ENDBRANCH   9  10
ENDBRANCH   8   9
ENDBRANCH   7   8
ENDBRANCH   5   7
ENDBRANCH   3   6
ENDBRANCH   1   4
BRANCH   2  17
ATOM     17  C   UNL     1       0.747  10.026  19.511  0.00  0.00    +0.000 C 
BRANCH  17  18
ATOM     18  C   UNL     1       0.103  10.028  18.134  0.00  0.00    +0.000 C 
BRANCH  18  19
ATOM     19  C   UNL     1      -1.409  10.098  18.281  0.00  0.00    +0.000 C 
BRANCH  19  20
ATOM     20  C   UNL     1      -2.053  10.083  16.905  0.00  0.00    +0.000 C 
ATOM     21  C   UNL     1      -2.605  10.071  15.724  0.00  0.00    +0.000 C 
BRANCH  21  22
ATOM     22  C   UNL     1      -3.250  10.056  14.348  0.00  0.00    +0.000 C 
ATOM     23  C   UNL     1      -3.790  10.026  13.186  0.00  0.00    +0.000 C 
BRANCH  23  24
ATOM     24  C   UNL     1      -4.429  10.003  11.819  0.00  0.00    +0.000 C 
BRANCH  24  25
ATOM     25  O   UNL     1      -3.405   9.794  10.853  0.00  0.00    +0.000 OA
ATOM     26  H   UNL     1      -3.642  10.215   9.999  0.00  0.00    +0.000 HD
ENDBRANCH  24  25
BRANCH  24  27
ATOM     27  C   UNL     1      -5.434   8.865  11.744  0.00  0.00    +0.000 C 
BRANCH  27  28
ATOM     28  O   UNL     1      -6.514   9.134  12.572  0.00  0.00    +0.000 OA
ATOM     29  H   UNL     1      -6.743   8.326  13.032  0.00  0.00    +0.000 HD
ENDBRANCH  27  28
ENDBRANCH  24  27
ENDBRANCH  23  24
ENDBRANCH  21  22
ENDBRANCH  19  20
ENDBRANCH  18  19
ENDBRANCH  17  18
ENDBRANCH   2  17
TORSDOF 18
ENDMDL
MODEL 2
REMARK VINA RESULT:      -6.1      6.165     10.614
REMARK  Name = 
REMARK  18 active torsions:
REMARK  status: ('A' for Active; 'I' for Inactive)
REMARK    1  A    between atoms: C_2  and  C_3
REMARK    2  A    between atoms: C_4  and  C_5
REMARK    3  A    between atoms: C_5  and  O_6
REMARK    4  A    between atoms: C_5  and  C_7
REMARK    5  A    between atoms: C_7  and  C_8
REMARK    6  A    between atoms: C_8  and  C_9
REMARK    7  A    between atoms: C_9  and  C_10
REMARK    8  A    between atoms: C_11  and  C_12
REMARK    9  A    between atoms: C_13  and  C_14
REMARK   10  A    between atoms: C_15  and  C_16
REMARK   11  A    between atoms: C_16  and  C_17
REMARK   12  A    between atoms: C_17  and  C_18
REMARK   13  A    between atoms: C_18  and  C_19
REMARK   14  A    between atoms: C_20  and  C_21
REMARK   15  A    between atoms: C_22  and  C_23
REMARK   16  A    between atoms: C_23  and  O_24
REMARK   17  A    between atoms: C_23  and  C_25
REMARK   18  A    between atoms: C_25  and  O_26
REMARK                            x       y       z     vdW  Elec       q    Type
REMARK                         _______ _______ _______ _____ _____    ______ ____
ROOT
ATOM      1  C   UNL     1       8.255   8.897  18.068  0.00  0.00    +0.000 C 
ATOM      2  C   UNL     1       8.849   9.934  18.586  0.00  0.00    +0.000 C 
ENDROOT
BRANCH   1   4
ATOM      3  C   UNL     1       6.967   6.649  16.944  0.00  0.00    +0.000 C 
ATOM      4  C   UNL     1       7.562   7.687  17.463  0.00  0.00    +0.000 C 
BRANCH   3   6
ATOM      5  C   UNL     1       5.798   4.454  17.146  0.00  0.00    +0.000 C 
ATOM      6  C   UNL     1       6.274   5.439  16.339  0.00  0.00    +0.000 C 
BRANCH   5   7
ATOM      7  C   UNL     1       5.959   4.562  18.654  0.00  0.00    +0.000 C 
BRANCH   7   8
ATOM      8  C   UNL     1       4.830   5.404  19.225  0.00  0.00    +0.000 C 
BRANCH   8   9
ATOM      9  C   UNL     1       3.604   5.276  18.336  0.00  0.00    +0.000 C 
BRANCH   9  10
ATOM     10  C   UNL     1       2.356   5.587  19.147  0.00  0.00    +0.000 C 
BRANCH  10  11
ATOM     11  O   UNL     1       2.193   6.993  19.247  0.00  0.00    +0.000 OA
ATOM     12  H   UNL     1       2.545   7.401  18.455  0.00  0.00    +0.000 HD
ENDBRANCH  10  11
BRANCH  10  14
ATOM     13  C   UNL     1       1.968   3.770  20.814  0.00  0.00    +0.000 C 
ATOM     14  C   UNL     1       2.496   4.993  20.540  0.00  0.00    +0.000 C 
BRANCH  13  16
ATOM     15  C   UNL     1       0.611   2.335  18.796  0.00  0.00    +0.000 C 
ATOM     16  C   UNL     1       1.237   2.997  19.728  0.00  0.00    +0.000 C 
ENDBRANCH  13  16
ENDBRANCH  10  14
ENDBRANCH   9  10
ENDBRANCH   8   9
ENDBRANCH   7   8
ENDBRANCH   5   7
ENDBRANCH   3   6
ENDBRANCH   1   4
BRANCH   2  17
ATOM     17  C   UNL     1       9.543  11.144  19.191  0.00  0.00    +0.000 C 
BRANCH  17  18
ATOM     18  C   UNL     1       9.725  10.929  20.685  0.00  0.00    +0.000 C 
BRANCH  18  19
ATOM     19  C   UNL     1       9.392  12.214  21.426  0.00  0.00    +0.000 C 
BRANCH  19  20
ATOM     20  C   UNL     1       8.378  11.920  22.520  0.00  0.00    +0.000 C 
ATOM     21  C   UNL     1       7.509  11.667  23.458  0.00  0.00    +0.000 C 
BRANCH  21  22
ATOM     22  C   UNL     1       6.495  11.373  24.551  0.00  0.00    +0.000 C 
ATOM     23  C   UNL     1       5.652  11.116  25.481  0.00  0.00    +0.000 C 
BRANCH  23  24
ATOM     24  C   UNL     1       4.651  10.820  26.571  0.00  0.00    +0.000 C 
BRANCH  24  25
ATOM     25  O   UNL     1       3.707   9.883  26.065  0.00  0.00    +0.000 OA
ATOM     26  H   UNL     1       3.747   9.042  26.569  0.00  0.00    +0.000 HD
ENDBRANCH  24  25
BRANCH  24  27
ATOM     27  C   UNL     1       5.365  10.220  27.772  0.00  0.00    +0.000 C 
BRANCH  27  28
ATOM     28  O   UNL     1       5.717  11.224  28.662  0.00  0.00    +0.000 OA
ATOM     29  H   UNL     1       5.810  10.831  29.531  0.00  0.00    +0.000 HD
ENDBRANCH  27  28
ENDBRANCH  24  27
ENDBRANCH  23  24
ENDBRANCH  21  22
ENDBRANCH  19  20
ENDBRANCH  18  19
ENDBRANCH  17  18
ENDBRANCH   2  17
TORSDOF 18
ENDMDL
MODEL 3
REMARK VINA RESULT:      -5.9      6.155     10.494
REMARK  Name = 
REMARK  18 active torsions:
REMARK  status: ('A' for Active; 'I' for Inactive)
REMARK    1  A    between atoms: C_2  and  C_3
REMARK    2  A    between atoms: C_4  and  C_5
REMARK    3  A    between atoms: C_5  and  O_6
REMARK    4  A    between atoms: C_5  and  C_7
REMARK    5  A    between atoms: C_7  and  C_8
REMARK    6  A    between atoms: C_8  and  C_9
REMARK    7  A    between atoms: C_9  and  C_10
REMARK    8  A    between atoms: C_11  and  C_12
REMARK    9  A    between atoms: C_13  and  C_14
REMARK   10  A    between atoms: C_15  and  C_16
REMARK   11  A    between atoms: C_16  and  C_17
REMARK   12  A    between atoms: C_17  and  C_18
REMARK   13  A    between atoms: C_18  and  C_19
REMARK   14  A    between atoms: C_20  and  C_21
REMARK   15  A    between atoms: C_22  and  C_23
REMARK   16  A    between atoms: C_23  and  O_24
REMARK   17  A    between atoms: C_23  and  C_25
REMARK   18  A    between atoms: C_25  and  O_26
REMARK                            x       y       z     vdW  Elec       q    Type
REMARK                         _______ _______ _______ _____ _____    ______ ____
ROOT
ATOM      1  C   UNL     1       8.169   8.583  17.966  0.00  0.00    +0.000 C 
ATOM      2  C   UNL     1       8.570   9.793  18.237  0.00  0.00    +0.000 C 
ENDROOT
BRANCH   1   4
ATOM      3  C   UNL     1       7.299   5.961  17.379  0.00  0.00    +0.000 C 
ATOM      4  C   UNL     1       7.701   7.172  17.650  0.00  0.00    +0.000 C 
BRANCH   3   6
ATOM      5  C   UNL     1       5.538   4.326  16.708  0.00  0.00    +0.000 C 
ATOM      6  C   UNL     1       6.831   4.550  17.063  0.00  0.00    +0.000 C 
BRANCH   5   7
ATOM      7  C   UNL     1       4.560   5.488  16.625  0.00  0.00    +0.000 C 
BRANCH   7   8
ATOM      8  C   UNL     1       3.415   5.256  17.597  0.00  0.00    +0.000 C 
BRANCH   8   9
ATOM      9  C   UNL     1       3.440   3.813  18.074  0.00  0.00    +0.000 C 
BRANCH   9  10
ATOM     10  C   UNL     1       2.117   3.145  17.737  0.00  0.00    +0.000 C 
BRANCH  10  11
ATOM     11  O   UNL     1       1.102   4.132  17.628  0.00  0.00    +0.000 OA
ATOM     12  H   UNL     1       0.857   4.421  18.507  0.00  0.00    +0.000 HD
ENDBRANCH  10  11
BRANCH  10  14
ATOM     13  C   UNL     1       1.439   2.619  20.081  0.00  0.00    +0.000 C 
ATOM     14  C   UNL     1       1.750   2.162  18.838  0.00  0.00    +0.000 C 
BRANCH  13  16
ATOM     15  C   UNL     1       1.479   5.391  20.617  0.00  0.00    +0.000 C 
ATOM     16  C   UNL     1       1.460   4.111  20.370  0.00  0.00    +0.000 C 
ENDBRANCH  13  16
ENDBRANCH  10  14
ENDBRANCH   9  10
ENDBRANCH   8   9
ENDBRANCH   7   8
ENDBRANCH   5   7
ENDBRANCH   3   6
ENDBRANCH   1   4
BRANCH   2  17
ATOM     17  C   UNL     1       9.038  11.204  18.553  0.00  0.00    +0.000 C 
BRANCH  17  18
ATOM     18  C   UNL     1      10.382  11.146  19.261  0.00  0.00    +0.000 C 
BRANCH  18  19
ATOM     19  C   UNL     1      10.489  12.302  20.243  0.00  0.00    +0.000 C 
BRANCH  19  20
ATOM     20  C   UNL     1       9.474  12.114  21.359  0.00  0.00    +0.000 C 
ATOM     21  C   UNL     1       8.605  11.952  22.317  0.00  0.00    +0.000 C 
BRANCH  21  22
ATOM     22  C   UNL     1       7.591  11.764  23.433  0.00  0.00    +0.000 C 
ATOM     23  C   UNL     1       6.743  11.619  24.383  0.00  0.00    +0.000 C 
BRANCH  23  24
ATOM     24  C   UNL     1       5.739  11.439  25.495  0.00  0.00    +0.000 C 
BRANCH  24  25
ATOM     25  O   UNL     1       6.268  10.499  26.424  0.00  0.00    +0.000 OA
ATOM     26  H   UNL     1       7.195  10.271  26.198  0.00  0.00    +0.000 HD
ENDBRANCH  24  25
BRANCH  24  27
ATOM     27  C   UNL     1       5.509  12.768  26.197  0.00  0.00    +0.000 C 
BRANCH  27  28
ATOM     28  O   UNL     1       4.993  13.692  25.300  0.00  0.00    +0.000 OA
ATOM     29  H   UNL     1       5.080  13.329  24.418  0.00  0.00    +0.000 HD
ENDBRANCH  27  28
ENDBRANCH  24  27
ENDBRANCH  23  24
ENDBRANCH  21  22
ENDBRANCH  19  20
ENDBRANCH  18  19
ENDBRANCH  17  18
ENDBRANCH   2  17
TORSDOF 18
ENDMDL
MODEL 4
REMARK VINA RESULT:      -5.9      4.579     10.473
REMARK  Name = 
REMARK  18 active torsions:
REMARK  status: ('A' for Active; 'I' for Inactive)
REMARK    1  A    between atoms: C_2  and  C_3
REMARK    2  A    between atoms: C_4  and  C_5
REMARK    3  A    between atoms: C_5  and  O_6
REMARK    4  A    between atoms: C_5  and  C_7
REMARK    5  A    between atoms: C_7  and  C_8
REMARK    6  A    between atoms: C_8  and  C_9
REMARK    7  A    between atoms: C_9  and  C_10
REMARK    8  A    between atoms: C_11  and  C_12
REMARK    9  A    between atoms: C_13  and  C_14
REMARK   10  A    between atoms: C_15  and  C_16
REMARK   11  A    between atoms: C_16  and  C_17
REMARK   12  A    between atoms: C_17  and  C_18
REMARK   13  A    between atoms: C_18  and  C_19
REMARK   14  A    between atoms: C_20  and  C_21
REMARK   15  A    between atoms: C_22  and  C_23
REMARK   16  A    between atoms: C_23  and  O_24
REMARK   17  A    between atoms: C_23  and  C_25
REMARK   18  A    between atoms: C_25  and  O_26
REMARK                            x       y       z     vdW  Elec       q    Type
REMARK                         _______ _______ _______ _____ _____    ______ ____
ROOT
ATOM      1  C   UNL     1       3.344   6.050  18.382  0.00  0.00    +0.000 C 
ATOM      2  C   UNL     1       4.050   5.501  17.434  0.00  0.00    +0.000 C 
ENDROOT
BRANCH   1   4
ATOM      3  C   UNL     1       1.815   7.239  20.437  0.00  0.00    +0.000 C 
ATOM      4  C   UNL     1       2.521   6.690  19.488  0.00  0.00    +0.000 C 
BRANCH   3   6
ATOM      5  C   UNL     1       0.447   9.111  21.359  0.00  0.00    +0.000 C 
ATOM      6  C   UNL     1       0.991   7.878  21.543  0.00  0.00    +0.000 C 
BRANCH   5   7
ATOM      7  C   UNL     1       0.661   9.849  20.047  0.00  0.00    +0.000 C 
BRANCH   7   8
ATOM      8  C   UNL     1      -0.588  10.645  19.703  0.00  0.00    +0.000 C 
BRANCH   8   9
ATOM      9  C   UNL     1      -0.573  10.997  18.225  0.00  0.00    +0.000 C 
BRANCH   9  10
ATOM     10  C   UNL     1      -1.844  11.754  17.872  0.00  0.00    +0.000 C 
BRANCH  10  11
ATOM     11  O   UNL     1      -1.850  13.006  18.541  0.00  0.00    +0.000 OA
ATOM     12  H   UNL     1      -1.928  13.703  17.889  0.00  0.00    +0.000 HD
ENDBRANCH  10  11
BRANCH  10  14
ATOM     13  C   UNL     1      -3.750  10.217  17.389  0.00  0.00    +0.000 C 
ATOM     14  C   UNL     1      -3.054  10.942  18.306  0.00  0.00    +0.000 C 
BRANCH  13  16
ATOM     15  C   UNL     1      -2.946  10.221  14.682  0.00  0.00    +0.000 C 
ATOM     16  C   UNL     1      -3.318  10.219  15.931  0.00  0.00    +0.000 C 
ENDBRANCH  13  16
ENDBRANCH  10  14
ENDBRANCH   9  10
ENDBRANCH   8   9
ENDBRANCH   7   8
ENDBRANCH   5   7
ENDBRANCH   3   6
ENDBRANCH   1   4
BRANCH   2  17
ATOM     17  C   UNL     1       4.874   4.862  16.329  0.00  0.00    +0.000 C 
BRANCH  17  18
ATOM     18  C   UNL     1       6.134   5.680  16.097  0.00  0.00    +0.000 C 
BRANCH  18  19
ATOM     19  C   UNL     1       7.063   5.529  17.291  0.00  0.00    +0.000 C 
BRANCH  19  20
ATOM     20  C   UNL     1       7.623   6.890  17.673  0.00  0.00    +0.000 C 
ATOM     21  C   UNL     1       8.102   8.057  18.000  0.00  0.00    +0.000 C 
BRANCH  21  22
ATOM     22  C   UNL     1       8.662   9.417  18.382  0.00  0.00    +0.000 C 
ATOM     23  C   UNL     1       9.132  10.561  18.720  0.00  0.00    +0.000 C 
BRANCH  23  24
ATOM     24  C   UNL     1       9.687  11.909  19.107  0.00  0.00    +0.000 C 
BRANCH  24  25
ATOM     25  O   UNL     1       8.679  12.887  18.879  0.00  0.00    +0.000 OA
ATOM     26  H   UNL     1       7.813  12.582  19.225  0.00  0.00    +0.000 HD
ENDBRANCH  24  25
BRANCH  24  27
ATOM     27  C   UNL     1      10.062  11.904  20.581  0.00  0.00    +0.000 C 
BRANCH  27  28
ATOM     28  O   UNL     1       9.403  10.871  21.232  0.00  0.00    +0.000 OA
ATOM     29  H   UNL     1      10.054  10.210  21.472  0.00  0.00    +0.000 HD
ENDBRANCH  27  28
ENDBRANCH  24  27
ENDBRANCH  23  24
ENDBRANCH  21  22
ENDBRANCH  19  20
ENDBRANCH  18  19
ENDBRANCH  17  18
ENDBRANCH   2  17
TORSDOF 18
ENDMDL
MODEL 5
REMARK VINA RESULT:      -5.9      6.271      8.982
REMARK  Name = 
REMARK  18 active torsions:
REMARK  status: ('A' for Active; 'I' for Inactive)
REMARK    1  A    between atoms: C_2  and  C_3
REMARK    2  A    between atoms: C_4  and  C_5
REMARK    3  A    between atoms: C_5  and  O_6
REMARK    4  A    between atoms: C_5  and  C_7
REMARK    5  A    between atoms: C_7  and  C_8
REMARK    6  A    between atoms: C_8  and  C_9
REMARK    7  A    between atoms: C_9  and  C_10
REMARK    8  A    between atoms: C_11  and  C_12
REMARK    9  A    between atoms: C_13  and  C_14
REMARK   10  A    between atoms: C_15  and  C_16
REMARK   11  A    between atoms: C_16  and  C_17
REMARK   12  A    between atoms: C_17  and  C_18
REMARK   13  A    between atoms: C_18  and  C_19
REMARK   14  A    between atoms: C_20  and  C_21
REMARK   15  A    between atoms: C_22  and  C_23
REMARK   16  A    between atoms: C_23  and  O_24
REMARK   17  A    between atoms: C_23  and  C_25
REMARK   18  A    between atoms: C_25  and  O_26
REMARK                            x       y       z     vdW  Elec       q    Type
REMARK                         _______ _______ _______ _____ _____    ______ ____
ROOT
ATOM      1  C   UNL     1       8.620   9.447  18.306  0.00  0.00    +0.000 C 
ATOM      2  C   UNL     1       8.971  10.702  18.335  0.00  0.00    +0.000 C 
ENDROOT
BRANCH   1   4
ATOM      3  C   UNL     1       7.857   6.729  18.245  0.00  0.00    +0.000 C 
ATOM      4  C   UNL     1       8.209   7.984  18.273  0.00  0.00    +0.000 C 
BRANCH   3   6
ATOM      5  C   UNL     1       6.161   4.926  17.925  0.00  0.00    +0.000 C 
ATOM      6  C   UNL     1       7.446   5.266  18.212  0.00  0.00    +0.000 C 
BRANCH   5   7
ATOM      7  C   UNL     1       5.135   6.011  17.637  0.00  0.00    +0.000 C 
BRANCH   7   8
ATOM      8  C   UNL     1       3.735   5.438  17.795  0.00  0.00    +0.000 C 
BRANCH   8   9
ATOM      9  C   UNL     1       3.692   4.037  17.210  0.00  0.00    +0.000 C 
BRANCH   9  10
ATOM     10  C   UNL     1       3.217   3.058  18.272  0.00  0.00    +0.000 C 
BRANCH  10  11
ATOM     11  O   UNL     1       4.013   1.884  18.225  0.00  0.00    +0.000 OA
ATOM     12  H   UNL     1       4.315   1.681  19.111  0.00  0.00    +0.000 HD
ENDBRANCH  10  11
BRANCH  10  14
ATOM     13  C   UNL     1       0.898   2.564  19.053  0.00  0.00    +0.000 C 
ATOM     14  C   UNL     1       1.763   2.695  18.011  0.00  0.00    +0.000 C 
BRANCH  13  16
ATOM     15  C   UNL     1       1.804   2.962  21.698  0.00  0.00    +0.000 C 
ATOM     16  C   UNL     1       1.385   2.778  20.477  0.00  0.00    +0.000 C 
ENDBRANCH  13  16
ENDBRANCH  10  14
ENDBRANCH   9  10
ENDBRANCH   8   9
ENDBRANCH   7   8
ENDBRANCH   5   7
ENDBRANCH   3   6
ENDBRANCH   1   4
BRANCH   2  17
ATOM     17  C   UNL     1       9.382  12.165  18.368  0.00  0.00    +0.000 C 
BRANCH  17  18
ATOM     18  C   UNL     1      10.225  12.427  19.605  0.00  0.00    +0.000 C 
BRANCH  18  19
ATOM     19  C   UNL     1      10.190  13.910  19.938  0.00  0.00    +0.000 C 
BRANCH  19  20
ATOM     20  C   UNL     1       8.778  14.440  19.742  0.00  0.00    +0.000 C 
ATOM     21  C   UNL     1       7.569  14.894  19.574  0.00  0.00    +0.000 C 
BRANCH  21  22
ATOM     22  C   UNL     1       6.157  15.424  19.378  0.00  0.00    +0.000 C 
ATOM     23  C   UNL     1       4.974  15.887  19.214  0.00  0.00    +0.000 C 
BRANCH  23  24
ATOM     24  C   UNL     1       3.576  16.421  19.018  0.00  0.00    +0.000 C 
BRANCH  24  25
ATOM     25  O   UNL     1       3.501  17.704  19.628  0.00  0.00    +0.000 OA
ATOM     26  H   UNL     1       4.392  18.011  19.903  0.00  0.00    +0.000 HD
ENDBRANCH  24  25
BRANCH  24  27
ATOM     27  C   UNL     1       3.281  16.548  17.532  0.00  0.00    +0.000 C 
BRANCH  27  28
ATOM     28  O   UNL     1       3.542  15.345  16.894  0.00  0.00    +0.000 OA
ATOM     29  H   UNL     1       3.832  15.540  16.002  0.00  0.00    +0.000 HD
ENDBRANCH  27  28
ENDBRANCH  24  27
ENDBRANCH  23  24
ENDBRANCH  21  22
ENDBRANCH  19  20
ENDBRANCH  18  19
ENDBRANCH  17  18
ENDBRANCH   2  17
TORSDOF 18
ENDMDL
MODEL 6
REMARK VINA RESULT:      -5.8      4.966     11.309
REMARK  Name = 
REMARK  18 active torsions:
REMARK  status: ('A' for Active; 'I' for Inactive)
REMARK    1  A    between atoms: C_2  and  C_3
REMARK    2  A    between atoms: C_4  and  C_5
REMARK    3  A    between atoms: C_5  and  O_6
REMARK    4  A    between atoms: C_5  and  C_7
REMARK    5  A    between atoms: C_7  and  C_8
REMARK    6  A    between atoms: C_8  and  C_9
REMARK    7  A    between atoms: C_9  and  C_10
REMARK    8  A    between atoms: C_11  and  C_12
REMARK    9  A    between atoms: C_13  and  C_14
REMARK   10  A    between atoms: C_15  and  C_16
REMARK   11  A    between atoms: C_16  and  C_17
REMARK   12  A    between atoms: C_17  and  C_18
REMARK   13  A    between atoms: C_18  and  C_19
REMARK   14  A    between atoms: C_20  and  C_21
REMARK   15  A    between atoms: C_22  and  C_23
REMARK   16  A    between atoms: C_23  and  O_24
REMARK   17  A    between atoms: C_23  and  C_25
REMARK   18  A    between atoms: C_25  and  O_26
REMARK                            x       y       z     vdW  Elec       q    Type
REMARK                         _______ _______ _______ _____ _____    ______ ____
ROOT
ATOM      1  C   UNL     1       2.783   7.412  17.937  0.00  0.00    +0.000 C 
ATOM      2  C   UNL     1       3.474   6.339  17.674  0.00  0.00    +0.000 C 
ENDROOT
BRANCH   1   4
ATOM      3  C   UNL     1       1.284   9.736  18.507  0.00  0.00    +0.000 C 
ATOM      4  C   UNL     1       1.976   8.663  18.244  0.00  0.00    +0.000 C 
BRANCH   3   6
ATOM      5  C   UNL     1      -0.784  11.121  18.324  0.00  0.00    +0.000 C 
ATOM      6  C   UNL     1       0.478  10.988  18.814  0.00  0.00    +0.000 C 
BRANCH   5   7
ATOM      7  C   UNL     1      -1.388  10.018  17.469  0.00  0.00    +0.000 C 
BRANCH   7   8
ATOM      8  C   UNL     1      -2.863   9.868  17.803  0.00  0.00    +0.000 C 
BRANCH   8   9
ATOM      9  C   UNL     1      -3.672  10.856  16.978  0.00  0.00    +0.000 C 
BRANCH   9  10
ATOM     10  C   UNL     1      -4.479  11.750  17.906  0.00  0.00    +0.000 C 
BRANCH  10  11
ATOM     11  O   UNL     1      -3.744  11.980  19.099  0.00  0.00    +0.000 OA
ATOM     12  H   UNL     1      -2.851  12.236  18.867  0.00  0.00    +0.000 HD
ENDBRANCH  10  11
BRANCH  10  14
ATOM     13  C   UNL     1      -6.973  11.688  17.958  0.00  0.00    +0.000 C 
ATOM     14  C   UNL     1      -5.796  11.070  18.246  0.00  0.00    +0.000 C 
BRANCH  13  16
ATOM     15  C   UNL     1      -6.972  14.232  16.733  0.00  0.00    +0.000 C 
ATOM     16  C   UNL     1      -6.972  13.057  17.298  0.00  0.00    +0.000 C 
ENDBRANCH  13  16
ENDBRANCH  10  14
ENDBRANCH   9  10
ENDBRANCH   8   9
ENDBRANCH   7   8
ENDBRANCH   5   7
ENDBRANCH   3   6
ENDBRANCH   1   4
BRANCH   2  17
ATOM     17  C   UNL     1       4.281   5.088  17.367  0.00  0.00    +0.000 C 
BRANCH  17  18
ATOM     18  C   UNL     1       5.297   5.394  16.278  0.00  0.00    +0.000 C 
BRANCH  18  19
ATOM     19  C   UNL     1       6.701   5.196  16.826  0.00  0.00    +0.000 C 
BRANCH  19  20
ATOM     20  C   UNL     1       7.274   6.539  17.249  0.00  0.00    +0.000 C 
ATOM     21  C   UNL     1       7.765   7.690  17.612  0.00  0.00    +0.000 C 
BRANCH  21  22
ATOM     22  C   UNL     1       8.338   9.033  18.035  0.00  0.00    +0.000 C 
ATOM     23  C   UNL     1       8.816  10.172  18.377  0.00  0.00    +0.000 C 
BRANCH  23  24
ATOM     24  C   UNL     1       9.382  11.508  18.790  0.00  0.00    +0.000 C 
BRANCH  24  25
ATOM     25  O   UNL     1      10.801  11.434  18.712  0.00  0.00    +0.000 OA
ATOM     26  H   UNL     1      11.081  10.620  18.241  0.00  0.00    +0.000 HD
ENDBRANCH  24  25
BRANCH  24  27
ATOM     27  C   UNL     1       8.880  12.590  17.846  0.00  0.00    +0.000 C 
BRANCH  27  28
ATOM     28  O   UNL     1       9.338  13.831  18.264  0.00  0.00    +0.000 OA
ATOM     29  H   UNL     1       8.589  14.327  18.595  0.00  0.00    +0.000 HD
ENDBRANCH  27  28
ENDBRANCH  24  27
ENDBRANCH  23  24
ENDBRANCH  21  22
ENDBRANCH  19  20
ENDBRANCH  18  19
ENDBRANCH  17  18
ENDBRANCH   2  17
TORSDOF 18
ENDMDL
MODEL 7
REMARK VINA RESULT:      -5.8      6.649     11.109
REMARK  Name = 
REMARK  18 active torsions:
REMARK  status: ('A' for Active; 'I' for Inactive)
REMARK    1  A    between atoms: C_2  and  C_3
REMARK    2  A    between atoms: C_4  and  C_5
REMARK    3  A    between atoms: C_5  and  O_6
REMARK    4  A    between atoms: C_5  and  C_7
REMARK    5  A    between atoms: C_7  and  C_8
REMARK    6  A    between atoms: C_8  and  C_9
REMARK    7  A    between atoms: C_9  and  C_10
REMARK    8  A    between atoms: C_11  and  C_12
REMARK    9  A    between atoms: C_13  and  C_14
REMARK   10  A    between atoms: C_15  and  C_16
REMARK   11  A    between atoms: C_16  and  C_17
REMARK   12  A    between atoms: C_17  and  C_18
REMARK   13  A    between atoms: C_18  and  C_19
REMARK   14  A    between atoms: C_20  and  C_21
REMARK   15  A    between atoms: C_22  and  C_23
REMARK   16  A    between atoms: C_23  and  O_24
REMARK   17  A    between atoms: C_23  and  C_25
REMARK   18  A    between atoms: C_25  and  O_26
REMARK                            x       y       z     vdW  Elec       q    Type
REMARK                         _______ _______ _______ _____ _____    ______ ____
ROOT
ATOM      1  C   UNL     1       8.007   8.014  17.908  0.00  0.00    +0.000 C 
ATOM      2  C   UNL     1       8.618   8.957  18.567  0.00  0.00    +0.000 C 
ENDROOT
BRANCH   1   4
ATOM      3  C   UNL     1       6.681   5.970  16.480  0.00  0.00    +0.000 C 
ATOM      4  C   UNL     1       7.293   6.914  17.140  0.00  0.00    +0.000 C 
BRANCH   3   6
ATOM      5  C   UNL     1       4.930   4.203  16.284  0.00  0.00    +0.000 C 
ATOM      6  C   UNL     1       5.968   4.869  15.712  0.00  0.00    +0.000 C 
BRANCH   5   7
ATOM      7  C   UNL     1       4.483   4.558  17.694  0.00  0.00    +0.000 C 
BRANCH   7   8
ATOM      8  C   UNL     1       3.587   5.785  17.646  0.00  0.00    +0.000 C 
BRANCH   8   9
ATOM      9  C   UNL     1       2.445   5.617  18.635  0.00  0.00    +0.000 C 
BRANCH   9  10
ATOM     10  C   UNL     1       1.872   4.214  18.512  0.00  0.00    +0.000 C 
BRANCH  10  11
ATOM     11  O   UNL     1       1.016   4.150  17.381  0.00  0.00    +0.000 OA
ATOM     12  H   UNL     1       0.622   3.278  17.341  0.00  0.00    +0.000 HD
ENDBRANCH  10  11
BRANCH  10  14
ATOM     13  C   UNL     1       1.649   3.136  20.752  0.00  0.00    +0.000 C 
ATOM     14  C   UNL     1       1.079   3.879  19.765  0.00  0.00    +0.000 C 
BRANCH  13  16
ATOM     15  C   UNL     1       4.303   2.214  20.469  0.00  0.00    +0.000 C 
ATOM     16  C   UNL     1       3.078   2.640  20.600  0.00  0.00    +0.000 C 
ENDBRANCH  13  16
ENDBRANCH  10  14
ENDBRANCH   9  10
ENDBRANCH   8   9
ENDBRANCH   7   8
ENDBRANCH   5   7
ENDBRANCH   3   6
ENDBRANCH   1   4
BRANCH   2  17
ATOM     17  C   UNL     1       9.332  10.057  19.336  0.00  0.00    +0.000 C 
BRANCH  17  18
ATOM     18  C   UNL     1       9.399  11.312  18.479  0.00  0.00    +0.000 C 
BRANCH  18  19
ATOM     19  C   UNL     1      10.111  12.413  19.248  0.00  0.00    +0.000 C 
BRANCH  19  20
ATOM     20  C   UNL     1       9.528  12.512  20.649  0.00  0.00    +0.000 C 
ATOM     21  C   UNL     1       9.028  12.596  21.849  0.00  0.00    +0.000 C 
BRANCH  21  22
ATOM     22  C   UNL     1       8.444  12.695  23.249  0.00  0.00    +0.000 C 
ATOM     23  C   UNL     1       7.968  12.779  24.436  0.00  0.00    +0.000 C 
BRANCH  23  24
ATOM     24  C   UNL     1       7.397  12.879  25.829  0.00  0.00    +0.000 C 
BRANCH  24  25
ATOM     25  O   UNL     1       7.631  11.643  26.495  0.00  0.00    +0.000 OA
ATOM     26  H   UNL     1       7.129  11.601  27.337  0.00  0.00    +0.000 HD
ENDBRANCH  24  25
BRANCH  24  27
ATOM     27  C   UNL     1       8.089  14.000  26.587  0.00  0.00    +0.000 C 
BRANCH  27  28
ATOM     28  O   UNL     1       9.436  13.705  26.742  0.00  0.00    +0.000 OA
ATOM     29  H   UNL     1       9.863  13.813  25.892  0.00  0.00    +0.000 HD
ENDBRANCH  27  28
ENDBRANCH  24  27
ENDBRANCH  23  24
ENDBRANCH  21  22
ENDBRANCH  19  20
ENDBRANCH  18  19
ENDBRANCH  17  18
ENDBRANCH   2  17
TORSDOF 18
ENDMDL
MODEL 8
REMARK VINA RESULT:      -5.8      5.458      9.280
REMARK  Name = 
REMARK  18 active torsions:
REMARK  status: ('A' for Active; 'I' for Inactive)
REMARK    1  A    between atoms: C_2  and  C_3
REMARK    2  A    between atoms: C_4  and  C_5
REMARK    3  A    between atoms: C_5  and  O_6
REMARK    4  A    between atoms: C_5  and  C_7
REMARK    5  A    between atoms: C_7  and  C_8
REMARK    6  A    between atoms: C_8  and  C_9
REMARK    7  A    between atoms: C_9  and  C_10
REMARK    8  A    between atoms: C_11  and  C_12
REMARK    9  A    between atoms: C_13  and  C_14
REMARK   10  A    between atoms: C_15  and  C_16
REMARK   11  A    between atoms: C_16  and  C_17
REMARK   12  A    between atoms: C_17  and  C_18
REMARK   13  A    between atoms: C_18  and  C_19
REMARK   14  A    between atoms: C_20  and  C_21
REMARK   15  A    between atoms: C_22  and  C_23
REMARK   16  A    between atoms: C_23  and  O_24
REMARK   17  A    between atoms: C_23  and  C_25
REMARK   18  A    between atoms: C_25  and  O_26
REMARK                            x       y       z     vdW  Elec       q    Type
REMARK                         _______ _______ _______ _____ _____    ______ ____
ROOT
ATOM      1  C   UNL     1       4.302   6.718  17.017  0.00  0.00    +0.000 C 
ATOM      2  C   UNL     1       5.247   6.063  16.405  0.00  0.00    +0.000 C 
ENDROOT
BRANCH   1   4
ATOM      3  C   UNL     1       2.253   8.137  18.345  0.00  0.00    +0.000 C 
ATOM      4  C   UNL     1       3.199   7.482  17.732  0.00  0.00    +0.000 C 
BRANCH   3   6
ATOM      5  C   UNL     1       0.948   8.716  20.392  0.00  0.00    +0.000 C 
ATOM      6  C   UNL     1       1.150   8.901  19.060  0.00  0.00    +0.000 C 
BRANCH   5   7
ATOM      7  C   UNL     1       1.825   7.745  21.167  0.00  0.00    +0.000 C 
BRANCH   7   8
ATOM      8  C   UNL     1       1.419   6.318  20.833  0.00  0.00    +0.000 C 
BRANCH   8   9
ATOM      9  C   UNL     1       2.652   5.431  20.818  0.00  0.00    +0.000 C 
BRANCH   9  10
ATOM     10  C   UNL     1       2.227   3.972  20.785  0.00  0.00    +0.000 C 
BRANCH  10  11
ATOM     11  O   UNL     1       2.088   3.488  22.112  0.00  0.00    +0.000 OA
ATOM     12  H   UNL     1       2.293   2.553  22.122  0.00  0.00    +0.000 HD
ENDBRANCH  10  11
BRANCH  10  14
ATOM     13  C   UNL     1       3.251   3.065  18.697  0.00  0.00    +0.000 C 
ATOM     14  C   UNL     1       3.279   3.153  20.054  0.00  0.00    +0.000 C 
BRANCH  13  16
ATOM     15  C   UNL     1       1.236   4.399  17.237  0.00  0.00    +0.000 C 
ATOM     16  C   UNL     1       2.165   3.783  17.911  0.00  0.00    +0.000 C 
ENDBRANCH  13  16
ENDBRANCH  10  14
ENDBRANCH   9  10
ENDBRANCH   8   9
ENDBRANCH   7   8
ENDBRANCH   5   7
ENDBRANCH   3   6
ENDBRANCH   1   4
BRANCH   2  17
ATOM     17  C   UNL     1       6.349   5.299  15.690  0.00  0.00    +0.000 C 
BRANCH  17  18
ATOM     18  C   UNL     1       7.355   4.788  16.709  0.00  0.00    +0.000 C 
BRANCH  18  19
ATOM     19  C   UNL     1       7.044   5.386  18.071  0.00  0.00    +0.000 C 
BRANCH  19  20
ATOM     20  C   UNL     1       7.620   6.791  18.152  0.00  0.00    +0.000 C 
ATOM     21  C   UNL     1       8.114   7.995  18.221  0.00  0.00    +0.000 C 
BRANCH  21  22
ATOM     22  C   UNL     1       8.690   9.399  18.301  0.00  0.00    +0.000 C 
ATOM     23  C   UNL     1       9.176  10.584  18.352  0.00  0.00    +0.000 C 
BRANCH  23  24
ATOM     24  C   UNL     1       9.746  11.979  18.424  0.00  0.00    +0.000 C 
BRANCH  24  25
ATOM     25  O   UNL     1      10.951  12.006  17.667  0.00  0.00    +0.000 OA
ATOM     26  H   UNL     1      11.733  11.951  18.256  0.00  0.00    +0.000 HD
ENDBRANCH  24  25
BRANCH  24  27
ATOM     27  C   UNL     1       8.755  12.969  17.832  0.00  0.00    +0.000 C 
BRANCH  27  28
ATOM     28  O   UNL     1       9.435  13.972  17.158  0.00  0.00    +0.000 OA
ATOM     29  H   UNL     1      10.164  14.258  17.710  0.00  0.00    +0.000 HD
ENDBRANCH  27  28
ENDBRANCH  24  27
ENDBRANCH  23  24
ENDBRANCH  21  22
ENDBRANCH  19  20
ENDBRANCH  18  19
ENDBRANCH  17  18
ENDBRANCH   2  17
TORSDOF 18
ENDMDL
MODEL 9
REMARK VINA RESULT:      -5.8      6.785     10.846
REMARK  Name = 
REMARK  18 active torsions:
REMARK  status: ('A' for Active; 'I' for Inactive)
REMARK    1  A    between atoms: C_2  and  C_3
REMARK    2  A    between atoms: C_4  and  C_5
REMARK    3  A    between atoms: C_5  and  O_6
REMARK    4  A    between atoms: C_5  and  C_7
REMARK    5  A    between atoms: C_7  and  C_8
REMARK    6  A    between atoms: C_8  and  C_9
REMARK    7  A    between atoms: C_9  and  C_10
REMARK    8  A    between atoms: C_11  and  C_12
REMARK    9  A    between atoms: C_13  and  C_14
REMARK   10  A    between atoms: C_15  and  C_16
REMARK   11  A    between atoms: C_16  and  C_17
REMARK   12  A    between atoms: C_17  and  C_18
REMARK   13  A    between atoms: C_18  and  C_19
REMARK   14  A    between atoms: C_20  and  C_21
REMARK   15  A    between atoms: C_22  and  C_23
REMARK   16  A    between atoms: C_23  and  O_24
REMARK   17  A    between atoms: C_23  and  C_25
REMARK   18  A    between atoms: C_25  and  O_26
REMARK                            x       y       z     vdW  Elec       q    Type
REMARK                         _______ _______ _______ _____ _____    ______ ____
ROOT
ATOM      1  C   UNL     1       8.759   9.998  18.109  0.00  0.00    +0.000 C 
ATOM      2  C   UNL     1       9.099  11.251  18.004  0.00  0.00    +0.000 C 
ENDROOT
BRANCH   1   4
ATOM      3  C   UNL     1       8.023   7.281  18.337  0.00  0.00    +0.000 C 
ATOM      4  C   UNL     1       8.363   8.536  18.231  0.00  0.00    +0.000 C 
BRANCH   3   6
ATOM      5  C   UNL     1       6.639   5.314  17.673  0.00  0.00    +0.000 C 
ATOM      6  C   UNL     1       7.626   5.819  18.460  0.00  0.00    +0.000 C 
BRANCH   5   7
ATOM      7  C   UNL     1       5.931   6.212  16.670  0.00  0.00    +0.000 C 
BRANCH   7   8
ATOM      8  C   UNL     1       4.428   6.115  16.876  0.00  0.00    +0.000 C 
BRANCH   8   9
ATOM      9  C   UNL     1       3.933   7.364  17.586  0.00  0.00    +0.000 C 
BRANCH   9  10
ATOM     10  C   UNL     1       2.501   7.149  18.050  0.00  0.00    +0.000 C 
BRANCH  10  11
ATOM     11  O   UNL     1       1.746   8.328  17.820  0.00  0.00    +0.000 OA
ATOM     12  H   UNL     1       2.031   8.721  16.994  0.00  0.00    +0.000 HD
ENDBRANCH  10  11
BRANCH  10  14
ATOM     13  C   UNL     1       2.186   5.569  19.956  0.00  0.00    +0.000 C 
ATOM     14  C   UNL     1       2.493   6.825  19.536  0.00  0.00    +0.000 C 
BRANCH  13  16
ATOM     15  C   UNL     1       1.558   3.562  18.071  0.00  0.00    +0.000 C 
ATOM     16  C   UNL     1       1.849   4.488  18.941  0.00  0.00    +0.000 C 
ENDBRANCH  13  16
ENDBRANCH  10  14
ENDBRANCH   9  10
ENDBRANCH   8   9
ENDBRANCH   7   8
ENDBRANCH   5   7
ENDBRANCH   3   6
ENDBRANCH   1   4
BRANCH   2  17
ATOM     17  C   UNL     1       9.496  12.714  17.881  0.00  0.00    +0.000 C 
BRANCH  17  18
ATOM     18  C   UNL     1      11.003  12.845  18.032  0.00  0.00    +0.000 C 
BRANCH  18  19
ATOM     19  C   UNL     1      11.317  13.723  19.232  0.00  0.00    +0.000 C 
BRANCH  19  20
ATOM     20  C   UNL     1      10.494  13.265  20.425  0.00  0.00    +0.000 C 
ATOM     21  C   UNL     1       9.787  12.873  21.448  0.00  0.00    +0.000 C 
BRANCH  21  22
ATOM     22  C   UNL     1       8.963  12.415  22.640  0.00  0.00    +0.000 C 
ATOM     23  C   UNL     1       8.260  12.044  23.645  0.00  0.00    +0.000 C 
BRANCH  23  24
ATOM     24  C   UNL     1       7.438  11.596  24.828  0.00  0.00    +0.000 C 
BRANCH  24  25
ATOM     25  O   UNL     1       7.613  12.544  25.876  0.00  0.00    +0.000 OA
ATOM     26  H   UNL     1       6.751  12.772  26.286  0.00  0.00    +0.000 HD
ENDBRANCH  24  25
BRANCH  24  27
ATOM     27  C   UNL     1       5.969  11.540  24.438  0.00  0.00    +0.000 C 
BRANCH  27  28
ATOM     28  O   UNL     1       5.182  11.437  25.576  0.00  0.00    +0.000 OA
ATOM     29  H   UNL     1       4.581  12.183  25.588  0.00  0.00    +0.000 HD
ENDBRANCH  27  28
ENDBRANCH  24  27
ENDBRANCH  23  24
ENDBRANCH  21  22
ENDBRANCH  19  20
ENDBRANCH  18  19
ENDBRANCH  17  18
ENDBRANCH   2  17
TORSDOF 18
ENDMDL
