MODEL 1
REMARK VINA RESULT:      -7.6      0.000      0.000
REMARK  Name = 
REMARK  5 active torsions:
REMARK  status: ('A' for Active; 'I' for Inactive)
REMARK    1  A    between atoms: N_1  and  N_2
REMARK    2  A    between atoms: C_3  and  C_5
REMARK    3  A    between atoms: C_8  and  O_9
REMARK    4  A    between atoms: O_9  and  C_10
REMARK    5  A    between atoms: C_10  and  C_11
REMARK                            x       y       z     vdW  Elec       q    Type
REMARK                         _______ _______ _______ _____ _____    ______ ____
ROOT
ATOM      1  C   UNL     1       5.943   4.429  14.357  0.00  0.00    +0.000 A 
ATOM      2  C   UNL     1       5.106   5.476  14.763  0.00  0.00    +0.000 A 
ATOM      3  C   UNL     1       5.330   6.128  15.987  0.00  0.00    +0.000 A 
ATOM      4  C   UNL     1       6.373   5.736  16.827  0.00  0.00    +0.000 A 
ATOM      5  C   UNL     1       7.216   4.694  16.405  0.00  0.00    +0.000 A 
ATOM      6  C   UNL     1       6.996   4.038  15.186  0.00  0.00    +0.000 A 
ENDROOT
BRANCH   1   8
ATOM      7  N   UNL     1       6.776   2.936  12.624  0.00  0.00    +0.000 N 
ATOM      8  C   UNL     1       5.703   3.694  13.081  0.00  0.00    +0.000 C 
ATOM      9  O   UNL     1       4.613   3.773  12.517  0.00  0.00    +0.000 OA
ATOM     10  H   UNL     1       7.533   2.724  13.269  0.00  0.00    +0.000 HD
BRANCH   7  11
ATOM     11  N   UNL     1       6.618   2.118  11.486  0.00  0.00    +0.000 NA
ATOM     12  H   UNL     1       6.717   1.137  11.755  0.00  0.00    +0.000 HD
ATOM     13  H   UNL     1       7.402   2.316  10.852  0.00  0.00    +0.000 HD
ENDBRANCH   7  11
ENDBRANCH   1   8
BRANCH   4  14
ATOM     14  O   UNL     1       6.489   6.420  18.022  0.00  0.00    +0.000 OA
BRANCH  14  15
ATOM     15  C   UNL     1       6.512   5.550  19.158  0.00  0.00    +0.000 C 
BRANCH  15  16
ATOM     16  C   UNL     1       5.177   4.947  19.454  0.00  0.00    +0.000 A 
ATOM     17  N   UNL     1       4.944   3.653  19.343  0.00  0.00    +0.000 NA
ATOM     18  C   UNL     1       3.616   3.481  19.604  0.00  0.00    +0.000 A 
ATOM     19  C   UNL     1       2.859   2.301  19.570  0.00  0.00    +0.000 A 
ATOM     20  C   UNL     1       1.490   2.376  19.835  0.00  0.00    +0.000 A 
ATOM     21  C   UNL     1       0.893   3.601  20.143  0.00  0.00    +0.000 A 
ATOM     22  C   UNL     1       1.641   4.791  20.199  0.00  0.00    +0.000 A 
ATOM     23  C   UNL     1       3.009   4.691  19.916  0.00  0.00    +0.000 A 
ATOM     24  N   UNL     1       4.040   5.610  19.850  0.00  0.00    +0.000 N 
ATOM     25  H   UNL     1       3.965   6.601  20.036  0.00  0.00    +0.000 HD
ENDBRANCH  15  16
ENDBRANCH  14  15
ENDBRANCH   4  14
TORSDOF 5
ENDMDL
MODEL 2
REMARK VINA RESULT:      -7.6      0.185      1.276
REMARK  Name = 
REMARK  5 active torsions:
REMARK  status: ('A' for Active; 'I' for Inactive)
REMARK    1  A    between atoms: N_1  and  N_2
REMARK    2  A    between atoms: C_3  and  C_5
REMARK    3  A    between atoms: C_8  and  O_9
REMARK    4  A    between atoms: O_9  and  C_10
REMARK    5  A    between atoms: C_10  and  C_11
REMARK                            x       y       z     vdW  Elec       q    Type
REMARK                         _______ _______ _______ _____ _____    ______ ____
ROOT
ATOM      1  C   UNL     1       5.953   4.397  14.348  0.00  0.00    +0.000 A 
ATOM      2  C   UNL     1       5.222   5.532  14.720  0.00  0.00    +0.000 A 
ATOM      3  C   UNL     1       5.490   6.179  15.938  0.00  0.00    +0.000 A 
ATOM      4  C   UNL     1       6.473   5.696  16.804  0.00  0.00    +0.000 A 
ATOM      5  C   UNL     1       7.212   4.567  16.415  0.00  0.00    +0.000 A 
ATOM      6  C   UNL     1       6.946   3.915  15.202  0.00  0.00    +0.000 A 
ENDROOT
BRANCH   1   8
ATOM      7  N   UNL     1       6.707   2.893  12.588  0.00  0.00    +0.000 N 
ATOM      8  C   UNL     1       5.662   3.668  13.079  0.00  0.00    +0.000 C 
ATOM      9  O   UNL     1       4.556   3.766  12.549  0.00  0.00    +0.000 OA
ATOM     10  H   UNL     1       7.479   2.667  13.209  0.00  0.00    +0.000 HD
BRANCH   7  11
ATOM     11  N   UNL     1       6.499   2.080  11.455  0.00  0.00    +0.000 NA
ATOM     12  H   UNL     1       7.326   2.111  10.856  0.00  0.00    +0.000 HD
ATOM     13  H   UNL     1       5.740   2.503  10.906  0.00  0.00    +0.000 HD
ENDBRANCH   7  11
ENDBRANCH   1   8
BRANCH   4  14
ATOM     14  O   UNL     1       6.638   6.387  17.990  0.00  0.00    +0.000 OA
BRANCH  14  15
ATOM     15  C   UNL     1       6.603   5.532  19.137  0.00  0.00    +0.000 C 
BRANCH  15  16
ATOM     16  C   UNL     1       5.267   4.892  19.343  0.00  0.00    +0.000 A 
ATOM     17  N   UNL     1       4.181   5.591  19.613  0.00  0.00    +0.000 NA
ATOM     18  C   UNL     1       3.185   4.682  19.819  0.00  0.00    +0.000 A 
ATOM     19  C   UNL     1       1.849   4.908  20.183  0.00  0.00    +0.000 A 
ATOM     20  C   UNL     1       1.014   3.808  20.381  0.00  0.00    +0.000 A 
ATOM     21  C   UNL     1       1.498   2.509  20.205  0.00  0.00    +0.000 A 
ATOM     22  C   UNL     1       2.829   2.264  19.822  0.00  0.00    +0.000 A 
ATOM     23  C   UNL     1       3.650   3.384  19.643  0.00  0.00    +0.000 A 
ATOM     24  N   UNL     1       4.979   3.549  19.300  0.00  0.00    +0.000 N 
ATOM     25  H   UNL     1       5.633   2.809  19.082  0.00  0.00    +0.000 HD
ENDBRANCH  15  16
ENDBRANCH  14  15
ENDBRANCH   4  14
TORSDOF 5
ENDMDL
MODEL 3
REMARK VINA RESULT:      -7.6      0.175      1.653
REMARK  Name = 
REMARK  5 active torsions:
REMARK  status: ('A' for Active; 'I' for Inactive)
REMARK    1  A    between atoms: N_1  and  N_2
REMARK    2  A    between atoms: C_3  and  C_5
REMARK    3  A    between atoms: C_8  and  O_9
REMARK    4  A    between atoms: O_9  and  C_10
REMARK    5  A    between atoms: C_10  and  C_11
REMARK                            x       y       z     vdW  Elec       q    Type
REMARK                         _______ _______ _______ _____ _____    ______ ____
ROOT
ATOM      1  C   UNL     1       5.961   4.408  14.429  0.00  0.00    +0.000 A 
ATOM      2  C   UNL     1       7.013   4.035  15.276  0.00  0.00    +0.000 A 
ATOM      3  C   UNL     1       7.231   4.725  16.481  0.00  0.00    +0.000 A 
ATOM      4  C   UNL     1       6.419   5.800  16.847  0.00  0.00    +0.000 A 
ATOM      5  C   UNL     1       5.357   6.156  15.999  0.00  0.00    +0.000 A 
ATOM      6  C   UNL     1       5.137   5.474  14.794  0.00  0.00    +0.000 A 
ENDROOT
BRANCH   1   8
ATOM      7  N   UNL     1       6.800   2.956  12.665  0.00  0.00    +0.000 N 
ATOM      8  C   UNL     1       5.732   3.718  13.127  0.00  0.00    +0.000 C 
ATOM      9  O   UNL     1       4.653   3.833  12.547  0.00  0.00    +0.000 OA
ATOM     10  H   UNL     1       7.541   2.711  13.316  0.00  0.00    +0.000 HD
BRANCH   7  11
ATOM     11  N   UNL     1       6.647   2.177  11.499  0.00  0.00    +0.000 NA
ATOM     12  H   UNL     1       6.728   2.776  10.676  0.00  0.00    +0.000 HD
ATOM     13  H   UNL     1       5.685   1.818  11.492  0.00  0.00    +0.000 HD
ENDBRANCH   7  11
ENDBRANCH   1   8
BRANCH   4  14
ATOM     14  O   UNL     1       6.736   6.430  18.036  0.00  0.00    +0.000 OA
BRANCH  14  15
ATOM     15  C   UNL     1       6.673   5.550  19.163  0.00  0.00    +0.000 C 
BRANCH  15  16
ATOM     16  C   UNL     1       5.332   4.911  19.327  0.00  0.00    +0.000 A 
ATOM     17  N   UNL     1       4.251   5.601  19.635  0.00  0.00    +0.000 NA
ATOM     18  C   UNL     1       3.247   4.691  19.784  0.00  0.00    +0.000 A 
ATOM     19  C   UNL     1       1.912   4.906  20.157  0.00  0.00    +0.000 A 
ATOM     20  C   UNL     1       1.067   3.803  20.287  0.00  0.00    +0.000 A 
ATOM     21  C   UNL     1       1.540   2.512  20.035  0.00  0.00    +0.000 A 
ATOM     22  C   UNL     1       2.870   2.280  19.642  0.00  0.00    +0.000 A 
ATOM     23  C   UNL     1       3.701   3.401  19.532  0.00  0.00    +0.000 A 
ATOM     24  N   UNL     1       5.033   3.575  19.203  0.00  0.00    +0.000 N 
ATOM     25  H   UNL     1       5.681   2.843  18.943  0.00  0.00    +0.000 HD
ENDBRANCH  15  16
ENDBRANCH  14  15
ENDBRANCH   4  14
TORSDOF 5
ENDMDL
MODEL 4
REMARK VINA RESULT:      -7.5      0.133      1.057
REMARK  Name = 
REMARK  5 active torsions:
REMARK  status: ('A' for Active; 'I' for Inactive)
REMARK    1  A    between atoms: N_1  and  N_2
REMARK    2  A    between atoms: C_3  and  C_5
REMARK    3  A    between atoms: C_8  and  O_9
REMARK    4  A    between atoms: O_9  and  C_10
REMARK    5  A    between atoms: C_10  and  C_11
REMARK                            x       y       z     vdW  Elec       q    Type
REMARK                         _______ _______ _______ _____ _____    ______ ____
ROOT
ATOM      1  C   UNL     1       5.904   4.342  14.337  0.00  0.00    +0.000 A 
ATOM      2  C   UNL     1       7.019   4.063  15.139  0.00  0.00    +0.000 A 
ATOM      3  C   UNL     1       7.214   4.756  16.345  0.00  0.00    +0.000 A 
ATOM      4  C   UNL     1       6.317   5.741  16.759  0.00  0.00    +0.000 A 
ATOM      5  C   UNL     1       5.193   6.003  15.956  0.00  0.00    +0.000 A 
ATOM      6  C   UNL     1       4.995   5.317  14.749  0.00  0.00    +0.000 A 
ENDROOT
BRANCH   1   8
ATOM      7  N   UNL     1       6.762   2.873  12.596  0.00  0.00    +0.000 N 
ATOM      8  C   UNL     1       5.694   3.649  13.033  0.00  0.00    +0.000 C 
ATOM      9  O   UNL     1       4.629   3.774  12.430  0.00  0.00    +0.000 OA
ATOM     10  H   UNL     1       7.487   2.622  13.263  0.00  0.00    +0.000 HD
BRANCH   7  11
ATOM     11  N   UNL     1       6.624   2.091  11.430  0.00  0.00    +0.000 NA
ATOM     12  H   UNL     1       7.311   2.391  10.736  0.00  0.00    +0.000 HD
ATOM     13  H   UNL     1       5.704   2.301  11.025  0.00  0.00    +0.000 HD
ENDBRANCH   7  11
ENDBRANCH   1   8
BRANCH   4  14
ATOM     14  O   UNL     1       6.615   6.384  17.945  0.00  0.00    +0.000 OA
BRANCH  14  15
ATOM     15  C   UNL     1       6.631   5.497  19.068  0.00  0.00    +0.000 C 
BRANCH  15  16
ATOM     16  C   UNL     1       5.278   4.954  19.397  0.00  0.00    +0.000 A 
ATOM     17  N   UNL     1       5.001   3.665  19.352  0.00  0.00    +0.000 NA
ATOM     18  C   UNL     1       3.670   3.551  19.625  0.00  0.00    +0.000 A 
ATOM     19  C   UNL     1       2.872   2.397  19.652  0.00  0.00    +0.000 A 
ATOM     20  C   UNL     1       1.509   2.532  19.919  0.00  0.00    +0.000 A 
ATOM     21  C   UNL     1       0.955   3.790  20.168  0.00  0.00    +0.000 A 
ATOM     22  C   UNL     1       1.743   4.956  20.163  0.00  0.00    +0.000 A 
ATOM     23  C   UNL     1       3.105   4.796  19.880  0.00  0.00    +0.000 A 
ATOM     24  N   UNL     1       4.166   5.674  19.765  0.00  0.00    +0.000 N 
ATOM     25  H   UNL     1       4.126   6.675  19.902  0.00  0.00    +0.000 HD
ENDBRANCH  15  16
ENDBRANCH  14  15
ENDBRANCH   4  14
TORSDOF 5
ENDMDL
MODEL 5
REMARK VINA RESULT:      -7.4      3.121      4.112
REMARK  Name = 
REMARK  5 active torsions:
REMARK  status: ('A' for Active; 'I' for Inactive)
REMARK    1  A    between atoms: N_1  and  N_2
REMARK    2  A    between atoms: C_3  and  C_5
REMARK    3  A    between atoms: C_8  and  O_9
REMARK    4  A    between atoms: O_9  and  C_10
REMARK    5  A    between atoms: C_10  and  C_11
REMARK                            x       y       z     vdW  Elec       q    Type
REMARK                         _______ _______ _______ _____ _____    ______ ____
ROOT
ATOM      1  C   UNL     1       6.125   4.798  15.687  0.00  0.00    +0.000 A 
ATOM      2  C   UNL     1       5.228   3.882  16.252  0.00  0.00    +0.000 A 
ATOM      3  C   UNL     1       4.697   4.109  17.533  0.00  0.00    +0.000 A 
ATOM      4  C   UNL     1       5.062   5.236  18.270  0.00  0.00    +0.000 A 
ATOM      5  C   UNL     1       5.950   6.157  17.689  0.00  0.00    +0.000 A 
ATOM      6  C   UNL     1       6.487   5.934  16.413  0.00  0.00    +0.000 A 
ENDROOT
BRANCH   1   8
ATOM      7  N   UNL     1       6.181   3.510  13.622  0.00  0.00    +0.000 N 
ATOM      8  C   UNL     1       6.734   4.561  14.346  0.00  0.00    +0.000 C 
ATOM      9  O   UNL     1       7.649   5.280  13.947  0.00  0.00    +0.000 OA
ATOM     10  H   UNL     1       5.278   3.143  13.910  0.00  0.00    +0.000 HD
BRANCH   7  11
ATOM     11  N   UNL     1       6.611   3.273  12.300  0.00  0.00    +0.000 NA
ATOM     12  H   UNL     1       6.101   2.476  11.914  0.00  0.00    +0.000 HD
ATOM     13  H   UNL     1       7.595   2.982  12.344  0.00  0.00    +0.000 HD
ENDBRANCH   7  11
ENDBRANCH   1   8
BRANCH   4  14
ATOM     14  O   UNL     1       4.507   5.352  19.531  0.00  0.00    +0.000 OA
BRANCH  14  15
ATOM     15  C   UNL     1       3.080   5.242  19.519  0.00  0.00    +0.000 C 
BRANCH  15  16
ATOM     16  C   UNL     1       2.396   6.551  19.749  0.00  0.00    +0.000 A 
ATOM     17  N   UNL     1       2.303   7.477  18.814  0.00  0.00    +0.000 NA
ATOM     18  C   UNL     1       1.702   8.551  19.400  0.00  0.00    +0.000 A 
ATOM     19  C   UNL     1       1.416   9.809  18.847  0.00  0.00    +0.000 A 
ATOM     20  C   UNL     1       0.827  10.779  19.660  0.00  0.00    +0.000 A 
ATOM     21  C   UNL     1       0.514  10.494  20.992  0.00  0.00    +0.000 A 
ATOM     22  C   UNL     1       0.776   9.233  21.557  0.00  0.00    +0.000 A 
ATOM     23  C   UNL     1       1.380   8.282  20.725  0.00  0.00    +0.000 A 
ATOM     24  N   UNL     1       1.801   6.979  20.913  0.00  0.00    +0.000 N 
ATOM     25  H   UNL     1       1.712   6.443  21.765  0.00  0.00    +0.000 HD
ENDBRANCH  15  16
ENDBRANCH  14  15
ENDBRANCH   4  14
TORSDOF 5
ENDMDL
MODEL 6
REMARK VINA RESULT:      -7.3      3.271      7.203
REMARK  Name = 
REMARK  5 active torsions:
REMARK  status: ('A' for Active; 'I' for Inactive)
REMARK    1  A    between atoms: N_1  and  N_2
REMARK    2  A    between atoms: C_3  and  C_5
REMARK    3  A    between atoms: C_8  and  O_9
REMARK    4  A    between atoms: O_9  and  C_10
REMARK    5  A    between atoms: C_10  and  C_11
REMARK                            x       y       z     vdW  Elec       q    Type
REMARK                         _______ _______ _______ _____ _____    ______ ____
ROOT
ATOM      1  C   UNL     1       2.297   7.903  18.819  0.00  0.00    +0.000 A 
ATOM      2  C   UNL     1       2.342   6.826  19.713  0.00  0.00    +0.000 A 
ATOM      3  C   UNL     1       3.237   5.764  19.498  0.00  0.00    +0.000 A 
ATOM      4  C   UNL     1       4.081   5.754  18.387  0.00  0.00    +0.000 A 
ATOM      5  C   UNL     1       4.040   6.846  17.504  0.00  0.00    +0.000 A 
ATOM      6  C   UNL     1       3.146   7.906  17.711  0.00  0.00    +0.000 A 
ENDROOT
BRANCH   1   8
ATOM      7  N   UNL     1       0.925   9.655  17.830  0.00  0.00    +0.000 N 
ATOM      8  C   UNL     1       1.328   9.024  19.002  0.00  0.00    +0.000 C 
ATOM      9  O   UNL     1       0.933   9.322  20.128  0.00  0.00    +0.000 OA
ATOM     10  H   UNL     1       1.094   9.189  16.942  0.00  0.00    +0.000 HD
BRANCH   7  11
ATOM     11  N   UNL     1      -0.070  10.652  17.883  0.00  0.00    +0.000 NA
ATOM     12  H   UNL     1      -0.014  11.142  18.778  0.00  0.00    +0.000 HD
ATOM     13  H   UNL     1      -0.982  10.179  17.879  0.00  0.00    +0.000 HD
ENDBRANCH   7  11
ENDBRANCH   1   8
BRANCH   4  14
ATOM     14  O   UNL     1       4.902   4.650  18.251  0.00  0.00    +0.000 OA
BRANCH  14  15
ATOM     15  C   UNL     1       6.213   4.989  17.786  0.00  0.00    +0.000 C 
BRANCH  15  16
ATOM     16  C   UNL     1       6.360   4.837  16.306  0.00  0.00    +0.000 A 
ATOM     17  N   UNL     1       5.588   4.038  15.595  0.00  0.00    +0.000 NA
ATOM     18  C   UNL     1       6.062   4.088  14.317  0.00  0.00    +0.000 A 
ATOM     19  C   UNL     1       5.620   3.384  13.187  0.00  0.00    +0.000 A 
ATOM     20  C   UNL     1       6.294   3.569  11.978  0.00  0.00    +0.000 A 
ATOM     21  C   UNL     1       7.375   4.450  11.895  0.00  0.00    +0.000 A 
ATOM     22  C   UNL     1       7.819   5.177  13.014  0.00  0.00    +0.000 A 
ATOM     23  C   UNL     1       7.136   4.965  14.218  0.00  0.00    +0.000 A 
ATOM     24  N   UNL     1       7.282   5.461  15.499  0.00  0.00    +0.000 N 
ATOM     25  H   UNL     1       7.966   6.143  15.798  0.00  0.00    +0.000 HD
ENDBRANCH  15  16
ENDBRANCH  14  15
ENDBRANCH   4  14
TORSDOF 5
ENDMDL
MODEL 7
REMARK VINA RESULT:      -7.2      2.627      7.090
REMARK  Name = 
REMARK  5 active torsions:
REMARK  status: ('A' for Active; 'I' for Inactive)
REMARK    1  A    between atoms: N_1  and  N_2
REMARK    2  A    between atoms: C_3  and  C_5
REMARK    3  A    between atoms: C_8  and  O_9
REMARK    4  A    between atoms: O_9  and  C_10
REMARK    5  A    between atoms: C_10  and  C_11
REMARK                            x       y       z     vdW  Elec       q    Type
REMARK                         _______ _______ _______ _____ _____    ______ ____
ROOT
ATOM      1  C   UNL     1       2.674   4.178  19.740  0.00  0.00    +0.000 A 
ATOM      2  C   UNL     1       4.047   3.920  19.834  0.00  0.00    +0.000 A 
ATOM      3  C   UNL     1       4.970   4.737  19.159  0.00  0.00    +0.000 A 
ATOM      4  C   UNL     1       4.537   5.806  18.373  0.00  0.00    +0.000 A 
ATOM      5  C   UNL     1       3.159   6.067  18.297  0.00  0.00    +0.000 A 
ATOM      6  C   UNL     1       2.234   5.252  18.965  0.00  0.00    +0.000 A 
ENDROOT
BRANCH   1   8
ATOM      7  N   UNL     1       1.897   3.077  21.768  0.00  0.00    +0.000 N 
ATOM      8  C   UNL     1       1.671   3.302  20.414  0.00  0.00    +0.000 C 
ATOM      9  O   UNL     1       0.721   2.847  19.779  0.00  0.00    +0.000 OA
ATOM     10  H   UNL     1       2.544   3.687  22.262  0.00  0.00    +0.000 HD
BRANCH   7  11
ATOM     11  N   UNL     1       0.950   2.354  22.521  0.00  0.00    +0.000 NA
ATOM     12  H   UNL     1       1.304   2.216  23.470  0.00  0.00    +0.000 HD
ATOM     13  H   UNL     1       0.880   1.415  22.109  0.00  0.00    +0.000 HD
ENDBRANCH   7  11
ENDBRANCH   1   8
BRANCH   4  14
ATOM     14  O   UNL     1       5.522   6.530  17.727  0.00  0.00    +0.000 OA
BRANCH  14  15
ATOM     15  C   UNL     1       6.699   5.757  17.470  0.00  0.00    +0.000 C 
BRANCH  15  16
ATOM     16  C   UNL     1       6.737   5.200  16.083  0.00  0.00    +0.000 A 
ATOM     17  N   UNL     1       7.551   5.665  15.155  0.00  0.00    +0.000 NA
ATOM     18  C   UNL     1       7.250   4.987  14.011  0.00  0.00    +0.000 A 
ATOM     19  C   UNL     1       7.796   5.142  12.727  0.00  0.00    +0.000 A 
ATOM     20  C   UNL     1       7.296   4.356  11.688  0.00  0.00    +0.000 A 
ATOM     21  C   UNL     1       6.283   3.423  11.928  0.00  0.00    +0.000 A 
ATOM     22  C   UNL     1       5.737   3.242  13.211  0.00  0.00    +0.000 A 
ATOM     23  C   UNL     1       6.247   4.052  14.234  0.00  0.00    +0.000 A 
ATOM     24  N   UNL     1       5.962   4.183  15.580  0.00  0.00    +0.000 N 
ATOM     25  H   UNL     1       5.283   3.642  16.099  0.00  0.00    +0.000 HD
ENDBRANCH  15  16
ENDBRANCH  14  15
ENDBRANCH   4  14
TORSDOF 5
ENDMDL
MODEL 8
REMARK VINA RESULT:      -7.2      3.306      7.278
REMARK  Name = 
REMARK  5 active torsions:
REMARK  status: ('A' for Active; 'I' for Inactive)
REMARK    1  A    between atoms: N_1  and  N_2
REMARK    2  A    between atoms: C_3  and  C_5
REMARK    3  A    between atoms: C_8  and  O_9
REMARK    4  A    between atoms: O_9  and  C_10
REMARK    5  A    between atoms: C_10  and  C_11
REMARK                            x       y       z     vdW  Elec       q    Type
REMARK                         _______ _______ _______ _____ _____    ______ ____
ROOT
ATOM      1  C   UNL     1       2.235   7.966  18.789  0.00  0.00    +0.000 A 
ATOM      2  C   UNL     1       3.069   7.872  17.668  0.00  0.00    +0.000 A 
ATOM      3  C   UNL     1       3.929   6.771  17.514  0.00  0.00    +0.000 A 
ATOM      4  C   UNL     1       3.979   5.763  18.478  0.00  0.00    +0.000 A 
ATOM      5  C   UNL     1       3.127   5.858  19.591  0.00  0.00    +0.000 A 
ATOM      6  C   UNL     1       2.271   6.956  19.752  0.00  0.00    +0.000 A 
ENDROOT
BRANCH   1   8
ATOM      7  N   UNL     1       0.865   9.736  17.831  0.00  0.00    +0.000 N 
ATOM      8  C   UNL     1       1.342   9.144  18.995  0.00  0.00    +0.000 C 
ATOM      9  O   UNL     1       1.066   9.518  20.134  0.00  0.00    +0.000 OA
ATOM     10  H   UNL     1       0.931   9.218  16.959  0.00  0.00    +0.000 HD
BRANCH   7  11
ATOM     11  N   UNL     1      -0.072  10.787  17.917  0.00  0.00    +0.000 NA
ATOM     12  H   UNL     1      -0.684  10.633  18.721  0.00  0.00    +0.000 HD
ATOM     13  H   UNL     1      -0.677  10.729  17.089  0.00  0.00    +0.000 HD
ENDBRANCH   7  11
ENDBRANCH   1   8
BRANCH   4  14
ATOM     14  O   UNL     1       4.879   4.739  18.248  0.00  0.00    +0.000 OA
BRANCH  14  15
ATOM     15  C   UNL     1       6.141   5.209  17.764  0.00  0.00    +0.000 C 
BRANCH  15  16
ATOM     16  C   UNL     1       6.381   4.855  16.331  0.00  0.00    +0.000 A 
ATOM     17  N   UNL     1       7.260   5.492  15.581  0.00  0.00    +0.000 NA
ATOM     18  C   UNL     1       7.146   4.964  14.329  0.00  0.00    +0.000 A 
ATOM     19  C   UNL     1       7.824   5.328  13.156  0.00  0.00    +0.000 A 
ATOM     20  C   UNL     1       7.508   4.666  11.968  0.00  0.00    +0.000 A 
ATOM     21  C   UNL     1       6.547   3.651  11.955  0.00  0.00    +0.000 A 
ATOM     22  C   UNL     1       5.872   3.261  13.125  0.00  0.00    +0.000 A 
ATOM     23  C   UNL     1       6.196   3.949  14.300  0.00  0.00    +0.000 A 
ATOM     24  N   UNL     1       5.748   3.874  15.606  0.00  0.00    +0.000 N 
ATOM     25  H   UNL     1       5.056   3.227  15.960  0.00  0.00    +0.000 HD
ENDBRANCH  15  16
ENDBRANCH  14  15
ENDBRANCH   4  14
TORSDOF 5
ENDMDL
MODEL 9
REMARK VINA RESULT:      -7.2      3.970      4.908
REMARK  Name = 
REMARK  5 active torsions:
REMARK  status: ('A' for Active; 'I' for Inactive)
REMARK    1  A    between atoms: N_1  and  N_2
REMARK    2  A    between atoms: C_3  and  C_5
REMARK    3  A    between atoms: C_8  and  O_9
REMARK    4  A    between atoms: O_9  and  C_10
REMARK    5  A    between atoms: C_10  and  C_11
REMARK                            x       y       z     vdW  Elec       q    Type
REMARK                         _______ _______ _______ _____ _____    ______ ____
ROOT
ATOM      1  C   UNL     1       5.570   5.200  15.788  0.00  0.00    +0.000 A 
ATOM      2  C   UNL     1       5.564   6.553  16.151  0.00  0.00    +0.000 A 
ATOM      3  C   UNL     1       4.703   7.012  17.163  0.00  0.00    +0.000 A 
ATOM      4  C   UNL     1       3.831   6.136  17.811  0.00  0.00    +0.000 A 
ATOM      5  C   UNL     1       3.855   4.779  17.452  0.00  0.00    +0.000 A 
ATOM      6  C   UNL     1       4.708   4.316  16.440  0.00  0.00    +0.000 A 
ENDROOT
BRANCH   1   8
ATOM      7  N   UNL     1       5.905   3.662  13.931  0.00  0.00    +0.000 N 
ATOM      8  C   UNL     1       6.445   4.695  14.690  0.00  0.00    +0.000 C 
ATOM      9  O   UNL     1       7.551   5.198  14.500  0.00  0.00    +0.000 OA
ATOM     10  H   UNL     1       4.905   3.486  13.989  0.00  0.00    +0.000 HD
BRANCH   7  11
ATOM     11  N   UNL     1       6.605   3.188  12.803  0.00  0.00    +0.000 NA
ATOM     12  H   UNL     1       7.563   2.956  13.069  0.00  0.00    +0.000 HD
ATOM     13  H   UNL     1       6.680   3.967  12.137  0.00  0.00    +0.000 HD
ENDBRANCH   7  11
ENDBRANCH   1   8
BRANCH   4  14
ATOM     14  O   UNL     1       3.005   6.692  18.770  0.00  0.00    +0.000 OA
BRANCH  14  15
ATOM     15  C   UNL     1       2.292   7.837  18.291  0.00  0.00    +0.000 C 
BRANCH  15  16
ATOM     16  C   UNL     1       1.619   8.601  19.386  0.00  0.00    +0.000 A 
ATOM     17  N   UNL     1       1.459   8.109  20.599  0.00  0.00    +0.000 NA
ATOM     18  C   UNL     1       0.739   9.035  21.294  0.00  0.00    +0.000 A 
ATOM     19  C   UNL     1       0.264   8.971  22.613  0.00  0.00    +0.000 A 
ATOM     20  C   UNL     1      -0.497  10.034  23.102  0.00  0.00    +0.000 A 
ATOM     21  C   UNL     1      -0.764  11.145  22.298  0.00  0.00    +0.000 A 
ATOM     22  C   UNL     1      -0.280  11.234  20.980  0.00  0.00    +0.000 A 
ATOM     23  C   UNL     1       0.469  10.149  20.508  0.00  0.00    +0.000 A 
ATOM     24  N   UNL     1       1.077   9.862  19.301  0.00  0.00    +0.000 N 
ATOM     25  H   UNL     1       1.098  10.463  18.488  0.00  0.00    +0.000 HD
ENDBRANCH  15  16
ENDBRANCH  14  15
ENDBRANCH   4  14
TORSDOF 5
ENDMDL
