MODEL 1
REMARK VINA RESULT:      -6.7      0.000      0.000
REMARK  Name = 
REMARK  15 active torsions:
REMARK  status: ('A' for Active; 'I' for Inactive)
REMARK    1  A    between atoms: C_1  and  C_2
REMARK    2  A    between atoms: C_2  and  C_3
REMARK    3  A    between atoms: C_2  and  C_10
REMARK    4  A    between atoms: C_3  and  C_4
REMARK    5  A    between atoms: C_4  and  C_5
REMARK    6  A    between atoms: C_5  and  C_6
REMARK    7  A    between atoms: C_6  and  C_7
REMARK    8  A    between atoms: C_6  and  C_8
REMARK    9  A    between atoms: C_6  and  O_9
REMARK   10  A    between atoms: C_15  and  C_16
REMARK   11  A    between atoms: C_19  and  O_20
REMARK   12  A    between atoms: C_21  and  C_22
REMARK   13  A    between atoms: C_21  and  O_23
REMARK   14  A    between atoms: C_24  and  O_25
REMARK   15  A    between atoms: C_30  and  C_31
REMARK                            x       y       z     vdW  Elec       q    Type
REMARK                         _______ _______ _______ _____ _____    ______ ____
ROOT
ATOM      1  C   UNL     1       0.370  10.438  20.132  0.00  0.00    +0.000 C 
ATOM      2  C   UNL     1      -0.862  10.216  19.228  0.00  0.00    +0.000 C 
ATOM      3  C   UNL     1      -1.744  11.430  19.455  0.00  0.00    +0.000 C 
ATOM      4  C   UNL     1      -0.755  12.542  19.821  0.00  0.00    +0.000 C 
ATOM      5  C   UNL     1      -1.148  13.891  20.354  0.00  0.00    +0.000 C 
ATOM      6  C   UNL     1      -2.372  14.317  20.711  0.00  0.00    +0.000 C 
ATOM      7  C   UNL     1       0.082  14.778  20.563  0.00  0.00    +0.000 C 
ATOM      8  C   UNL     1       1.216  14.098  21.354  0.00  0.00    +0.000 C 
ATOM      9  C   UNL     1       1.484  12.645  20.925  0.00  0.00    +0.000 C 
ATOM     10  C   UNL     1       0.176  11.823  20.833  0.00  0.00    +0.000 C 
ATOM     11  C   UNL     1      -0.451  11.756  22.247  0.00  0.00    +0.000 C 
ENDROOT
BRANCH   6  12
ATOM     12  C   UNL     1      -3.601  13.566  20.600  0.00  0.00    +0.000 C 
ATOM     13  C   UNL     1      -4.303  12.999  21.598  0.00  0.00    +0.000 C 
ATOM     14  C   UNL     1      -3.985  13.110  23.064  0.00  0.00    +0.000 C 
ATOM     15  C   UNL     1      -5.145  13.849  23.745  0.00  0.00    +0.000 C 
ATOM     16  C   UNL     1      -6.485  13.081  23.540  0.00  0.00    +0.000 C 
ATOM     17  C   UNL     1      -7.638  13.807  24.233  0.00  0.00    +0.000 C 
ATOM     18  C   UNL     1      -6.781  12.879  22.030  0.00  0.00    +0.000 C 
ATOM     19  C   UNL     1      -5.586  12.245  21.303  0.00  0.00    +0.000 C 
BRANCH  15  20
ATOM     20  O   UNL     1      -5.227  15.196  23.267  0.00  0.00    +0.000 OA
ATOM     21  H   UNL     1      -4.330  15.582  23.254  0.00  0.00    +0.000 HD
ENDBRANCH  15  20
BRANCH  16  22
ATOM     22  O   UNL     1      -6.395  11.765  24.131  0.00  0.00    +0.000 OA
ATOM     23  H   UNL     1      -5.825  11.834  24.917  0.00  0.00    +0.000 HD
ENDBRANCH  16  22
BRANCH  18  24
ATOM     24  O   UNL     1      -7.916  12.020  21.861  0.00  0.00    +0.000 OA
ATOM     25  H   UNL     1      -8.174  12.120  20.923  0.00  0.00    +0.000 HD
ENDBRANCH  18  24
ENDBRANCH   6  12
BRANCH   1  27
ATOM     26  C   UNL     1      -0.441   8.293  21.368  0.00  0.00    +0.000 C 
ATOM     27  C   UNL     1       0.740   9.195  20.980  0.00  0.00    +0.000 C 
BRANCH  27  28
ATOM     28  C   UNL     1       1.801   8.316  20.264  0.00  0.00    +0.000 C 
BRANCH  28  29
ATOM     29  C   UNL     1       1.637   6.810  20.480  0.00  0.00    +0.000 C 
BRANCH  29  30
ATOM     30  C   UNL     1       2.184   5.998  19.303  0.00  0.00    +0.000 C 
BRANCH  30  31
ATOM     31  C   UNL     1       2.129   4.478  19.502  0.00  0.00    +0.000 C 
ATOM     32  C   UNL     1       1.035   4.082  20.490  0.00  0.00    +0.000 C 
ATOM     33  C   UNL     1       1.963   3.752  18.165  0.00  0.00    +0.000 C 
BRANCH  31  34
ATOM     34  O   UNL     1       3.390   4.065  20.042  0.00  0.00    +0.000 OA
ATOM     35  H   UNL     1       4.067   4.691  19.731  0.00  0.00    +0.000 HD
ENDBRANCH  31  34
ENDBRANCH  30  31
ENDBRANCH  29  30
ENDBRANCH  28  29
ENDBRANCH  27  28
ENDBRANCH   1  27
TORSDOF 10
ENDMDL
MODEL 2
REMARK VINA RESULT:      -6.6      4.403      9.513
REMARK  Name = 
REMARK  15 active torsions:
REMARK  status: ('A' for Active; 'I' for Inactive)
REMARK    1  A    between atoms: C_1  and  C_2
REMARK    2  A    between atoms: C_2  and  C_3
REMARK    3  A    between atoms: C_2  and  C_10
REMARK    4  A    between atoms: C_3  and  C_4
REMARK    5  A    between atoms: C_4  and  C_5
REMARK    6  A    between atoms: C_5  and  C_6
REMARK    7  A    between atoms: C_6  and  C_7
REMARK    8  A    between atoms: C_6  and  C_8
REMARK    9  A    between atoms: C_6  and  O_9
REMARK   10  A    between atoms: C_15  and  C_16
REMARK   11  A    between atoms: C_19  and  O_20
REMARK   12  A    between atoms: C_21  and  C_22
REMARK   13  A    between atoms: C_21  and  O_23
REMARK   14  A    between atoms: C_24  and  O_25
REMARK   15  A    between atoms: C_30  and  C_31
REMARK                            x       y       z     vdW  Elec       q    Type
REMARK                         _______ _______ _______ _____ _____    ______ ____
ROOT
ATOM      1  C   UNL     1      -0.650  11.900  19.239  0.00  0.00    +0.000 C 
ATOM      2  C   UNL     1      -0.582  10.828  18.130  0.00  0.00    +0.000 C 
ATOM      3  C   UNL     1      -0.027   9.590  18.809  0.00  0.00    +0.000 C 
ATOM      4  C   UNL     1      -0.485   9.729  20.265  0.00  0.00    +0.000 C 
ATOM      5  C   UNL     1      -0.004   8.866  21.396  0.00  0.00    +0.000 C 
ATOM      6  C   UNL     1       0.963   7.932  21.375  0.00  0.00    +0.000 C 
ATOM      7  C   UNL     1      -0.702   9.239  22.707  0.00  0.00    +0.000 C 
ATOM      8  C   UNL     1      -0.682  10.749  23.018  0.00  0.00    +0.000 C 
ATOM      9  C   UNL     1      -0.992  11.635  21.799  0.00  0.00    +0.000 C 
ATOM     10  C   UNL     1      -0.163  11.218  20.560  0.00  0.00    +0.000 C 
ATOM     11  C   UNL     1       1.335  11.430  20.889  0.00  0.00    +0.000 C 
ENDROOT
BRANCH   6  12
ATOM     12  C   UNL     1       1.720   7.518  20.216  0.00  0.00    +0.000 C 
ATOM     13  C   UNL     1       2.410   6.373  20.059  0.00  0.00    +0.000 C 
ATOM     14  C   UNL     1       2.460   5.240  21.046  0.00  0.00    +0.000 C 
ATOM     15  C   UNL     1       1.825   4.009  20.386  0.00  0.00    +0.000 C 
ATOM     16  C   UNL     1       2.589   3.625  19.084  0.00  0.00    +0.000 C 
ATOM     17  C   UNL     1       1.968   2.387  18.435  0.00  0.00    +0.000 C 
ATOM     18  C   UNL     1       2.624   4.817  18.091  0.00  0.00    +0.000 C 
ATOM     19  C   UNL     1       3.148   6.093  18.764  0.00  0.00    +0.000 C 
BRANCH  15  20
ATOM     20  O   UNL     1       0.434   4.239  20.137  0.00  0.00    +0.000 OA
ATOM     21  H   UNL     1       0.338   4.712  19.289  0.00  0.00    +0.000 HD
ENDBRANCH  15  20
BRANCH  16  22
ATOM     22  O   UNL     1       3.962   3.297  19.397  0.00  0.00    +0.000 OA
ATOM     23  H   UNL     1       4.247   2.604  18.775  0.00  0.00    +0.000 HD
ENDBRANCH  16  22
BRANCH  18  24
ATOM     24  O   UNL     1       3.478   4.509  16.983  0.00  0.00    +0.000 OA
ATOM     25  H   UNL     1       3.416   3.539  16.873  0.00  0.00    +0.000 HD
ENDBRANCH  18  24
ENDBRANCH   6  12
BRANCH   1  27
ATOM     26  C   UNL     1      -0.135  14.376  19.866  0.00  0.00    +0.000 C 
ATOM     27  C   UNL     1      -0.048  13.262  18.812  0.00  0.00    +0.000 C 
BRANCH  27  28
ATOM     28  C   UNL     1       1.439  13.116  18.389  0.00  0.00    +0.000 C 
BRANCH  28  29
ATOM     29  C   UNL     1       2.370  14.201  18.936  0.00  0.00    +0.000 C 
BRANCH  29  30
ATOM     30  C   UNL     1       2.959  15.068  17.820  0.00  0.00    +0.000 C 
BRANCH  30  31
ATOM     31  C   UNL     1       3.303  16.501  18.246  0.00  0.00    +0.000 C 
ATOM     32  C   UNL     1       2.418  16.969  19.398  0.00  0.00    +0.000 C 
ATOM     33  C   UNL     1       4.787  16.633  18.593  0.00  0.00    +0.000 C 
BRANCH  31  34
ATOM     34  O   UNL     1       3.062  17.357  17.122  0.00  0.00    +0.000 OA
ATOM     35  H   UNL     1       2.795  16.797  16.372  0.00  0.00    +0.000 HD
ENDBRANCH  31  34
ENDBRANCH  30  31
ENDBRANCH  29  30
ENDBRANCH  28  29
ENDBRANCH  27  28
ENDBRANCH   1  27
TORSDOF 10
ENDMDL
MODEL 3
REMARK VINA RESULT:      -6.6      1.750      2.451
REMARK  Name = 
REMARK  15 active torsions:
REMARK  status: ('A' for Active; 'I' for Inactive)
REMARK    1  A    between atoms: C_1  and  C_2
REMARK    2  A    between atoms: C_2  and  C_3
REMARK    3  A    between atoms: C_2  and  C_10
REMARK    4  A    between atoms: C_3  and  C_4
REMARK    5  A    between atoms: C_4  and  C_5
REMARK    6  A    between atoms: C_5  and  C_6
REMARK    7  A    between atoms: C_6  and  C_7
REMARK    8  A    between atoms: C_6  and  C_8
REMARK    9  A    between atoms: C_6  and  O_9
REMARK   10  A    between atoms: C_15  and  C_16
REMARK   11  A    between atoms: C_19  and  O_20
REMARK   12  A    between atoms: C_21  and  C_22
REMARK   13  A    between atoms: C_21  and  O_23
REMARK   14  A    between atoms: C_24  and  O_25
REMARK   15  A    between atoms: C_30  and  C_31
REMARK                            x       y       z     vdW  Elec       q    Type
REMARK                         _______ _______ _______ _____ _____    ______ ____
ROOT
ATOM      1  C   UNL     1       0.254  11.002  19.077  0.00  0.00    +0.000 C 
ATOM      2  C   UNL     1      -1.105  10.679  19.736  0.00  0.00    +0.000 C 
ATOM      3  C   UNL     1      -1.463  11.919  20.534  0.00  0.00    +0.000 C 
ATOM      4  C   UNL     1      -0.783  13.060  19.770  0.00  0.00    +0.000 C 
ATOM      5  C   UNL     1      -0.652  14.468  20.279  0.00  0.00    +0.000 C 
ATOM      6  C   UNL     1      -0.981  14.946  21.492  0.00  0.00    +0.000 C 
ATOM      7  C   UNL     1       0.032  15.364  19.243  0.00  0.00    +0.000 C 
ATOM      8  C   UNL     1       1.340  14.779  18.676  0.00  0.00    +0.000 C 
ATOM      9  C   UNL     1       1.250  13.282  18.335  0.00  0.00    +0.000 C 
ATOM     10  C   UNL     1       0.623  12.465  19.490  0.00  0.00    +0.000 C 
ATOM     11  C   UNL     1       1.554  12.580  20.722  0.00  0.00    +0.000 C 
ENDROOT
BRANCH   6  12
ATOM     12  C   UNL     1      -1.593  14.196  22.564  0.00  0.00    +0.000 C 
ATOM     13  C   UNL     1      -2.825  14.366  23.078  0.00  0.00    +0.000 C 
ATOM     14  C   UNL     1      -3.859  15.334  22.571  0.00  0.00    +0.000 C 
ATOM     15  C   UNL     1      -5.057  14.523  22.060  0.00  0.00    +0.000 C 
ATOM     16  C   UNL     1      -5.653  13.643  23.199  0.00  0.00    +0.000 C 
ATOM     17  C   UNL     1      -6.859  12.848  22.696  0.00  0.00    +0.000 C 
ATOM     18  C   UNL     1      -4.573  12.702  23.795  0.00  0.00    +0.000 C 
ATOM     19  C   UNL     1      -3.315  13.480  24.207  0.00  0.00    +0.000 C 
BRANCH  15  20
ATOM     20  O   UNL     1      -4.678  13.736  20.925  0.00  0.00    +0.000 OA
ATOM     21  H   UNL     1      -5.118  12.867  20.981  0.00  0.00    +0.000 HD
ENDBRANCH  15  20
BRANCH  16  22
ATOM     22  O   UNL     1      -6.120  14.484  24.278  0.00  0.00    +0.000 OA
ATOM     23  H   UNL     1      -5.801  14.096  25.112  0.00  0.00    +0.000 HD
ENDBRANCH  16  22
BRANCH  18  24
ATOM     24  O   UNL     1      -5.088  12.033  24.953  0.00  0.00    +0.000 OA
ATOM     25  H   UNL     1      -5.907  12.515  25.183  0.00  0.00    +0.000 HD
ENDBRANCH  18  24
ENDBRANCH   6  12
BRANCH   1  27
ATOM     26  C   UNL     1       1.035   8.901  20.405  0.00  0.00    +0.000 C 
ATOM     27  C   UNL     1       1.300   9.871  19.245  0.00  0.00    +0.000 C 
BRANCH  27  28
ATOM     28  C   UNL     1       1.446   9.037  17.943  0.00  0.00    +0.000 C 
BRANCH  28  29
ATOM     29  C   UNL     1       2.735   8.218  17.848  0.00  0.00    +0.000 C 
BRANCH  29  30
ATOM     30  C   UNL     1       2.478   6.720  18.025  0.00  0.00    +0.000 C 
BRANCH  30  31
ATOM     31  C   UNL     1       3.748   5.860  18.077  0.00  0.00    +0.000 C 
ATOM     32  C   UNL     1       3.512   4.478  17.475  0.00  0.00    +0.000 C 
ATOM     33  C   UNL     1       4.923   6.571  17.400  0.00  0.00    +0.000 C 
BRANCH  31  34
ATOM     34  O   UNL     1       4.103   5.693  19.454  0.00  0.00    +0.000 OA
ATOM     35  H   UNL     1       5.057   5.866  19.541  0.00  0.00    +0.000 HD
ENDBRANCH  31  34
ENDBRANCH  30  31
ENDBRANCH  29  30
ENDBRANCH  28  29
ENDBRANCH  27  28
ENDBRANCH   1  27
TORSDOF 10
ENDMDL
MODEL 4
REMARK VINA RESULT:      -6.6      4.614      8.402
REMARK  Name = 
REMARK  15 active torsions:
REMARK  status: ('A' for Active; 'I' for Inactive)
REMARK    1  A    between atoms: C_1  and  C_2
REMARK    2  A    between atoms: C_2  and  C_3
REMARK    3  A    between atoms: C_2  and  C_10
REMARK    4  A    between atoms: C_3  and  C_4
REMARK    5  A    between atoms: C_4  and  C_5
REMARK    6  A    between atoms: C_5  and  C_6
REMARK    7  A    between atoms: C_6  and  C_7
REMARK    8  A    between atoms: C_6  and  C_8
REMARK    9  A    between atoms: C_6  and  O_9
REMARK   10  A    between atoms: C_15  and  C_16
REMARK   11  A    between atoms: C_19  and  O_20
REMARK   12  A    between atoms: C_21  and  C_22
REMARK   13  A    between atoms: C_21  and  O_23
REMARK   14  A    between atoms: C_24  and  O_25
REMARK   15  A    between atoms: C_30  and  C_31
REMARK                            x       y       z     vdW  Elec       q    Type
REMARK                         _______ _______ _______ _____ _____    ______ ____
ROOT
ATOM      1  C   UNL     1       4.708   4.365  18.075  0.00  0.00    +0.000 C 
ATOM      2  C   UNL     1       5.409   5.739  18.032  0.00  0.00    +0.000 C 
ATOM      3  C   UNL     1       4.393   6.721  18.586  0.00  0.00    +0.000 C 
ATOM      4  C   UNL     1       3.548   5.876  19.545  0.00  0.00    +0.000 C 
ATOM      5  C   UNL     1       2.266   6.334  20.181  0.00  0.00    +0.000 C 
ATOM      6  C   UNL     1       1.584   7.469  19.948  0.00  0.00    +0.000 C 
ATOM      7  C   UNL     1       1.709   5.265  21.125  0.00  0.00    +0.000 C 
ATOM      8  C   UNL     1       1.630   3.859  20.500  0.00  0.00    +0.000 C 
ATOM      9  C   UNL     1       2.878   3.473  19.687  0.00  0.00    +0.000 C 
ATOM     10  C   UNL     1       3.295   4.595  18.706  0.00  0.00    +0.000 C 
ATOM     11  C   UNL     1       2.149   4.792  17.685  0.00  0.00    +0.000 C 
ENDROOT
BRANCH   6  12
ATOM     12  C   UNL     1       1.982   8.533  19.057  0.00  0.00    +0.000 C 
ATOM     13  C   UNL     1       1.290   9.648  18.757  0.00  0.00    +0.000 C 
ATOM     14  C   UNL     1      -0.023  10.054  19.368  0.00  0.00    +0.000 C 
ATOM     15  C   UNL     1       0.198  11.362  20.139  0.00  0.00    +0.000 C 
ATOM     16  C   UNL     1       0.719  12.481  19.188  0.00  0.00    +0.000 C 
ATOM     17  C   UNL     1       0.922  13.791  19.950  0.00  0.00    +0.000 C 
ATOM     18  C   UNL     1       2.027  12.040  18.479  0.00  0.00    +0.000 C 
ATOM     19  C   UNL     1       1.863  10.673  17.798  0.00  0.00    +0.000 C 
BRANCH  15  20
ATOM     20  O   UNL     1       1.085  11.148  21.241  0.00  0.00    +0.000 OA
ATOM     21  H   UNL     1       0.912  11.824  21.923  0.00  0.00    +0.000 HD
ENDBRANCH  15  20
BRANCH  16  22
ATOM     22  O   UNL     1      -0.254  12.740  18.151  0.00  0.00    +0.000 OA
ATOM     23  H   UNL     1      -0.598  13.640  18.289  0.00  0.00    +0.000 HD
ENDBRANCH  16  22
BRANCH  18  24
ATOM     24  O   UNL     1       2.393  12.999  17.480  0.00  0.00    +0.000 OA
ATOM     25  H   UNL     1       3.369  12.955  17.428  0.00  0.00    +0.000 HD
ENDBRANCH  18  24
ENDBRANCH   6  12
BRANCH   1  27
ATOM     26  C   UNL     1       3.879   2.378  16.608  0.00  0.00    +0.000 C 
ATOM     27  C   UNL     1       4.835   3.570  16.750  0.00  0.00    +0.000 C 
BRANCH  27  28
ATOM     28  C   UNL     1       4.641   4.492  15.516  0.00  0.00    +0.000 C 
BRANCH  28  29
ATOM     29  C   UNL     1       5.886   4.661  14.641  0.00  0.00    +0.000 C 
BRANCH  29  30
ATOM     30  C   UNL     1       6.277   3.358  13.941  0.00  0.00    +0.000 C 
BRANCH  30  31
ATOM     31  C   UNL     1       6.234   3.424  12.409  0.00  0.00    +0.000 C 
ATOM     32  C   UNL     1       4.803   3.559  11.895  0.00  0.00    +0.000 C 
ATOM     33  C   UNL     1       7.126   4.549  11.880  0.00  0.00    +0.000 C 
BRANCH  31  34
ATOM     34  O   UNL     1       6.775   2.196  11.907  0.00  0.00    +0.000 OA
ATOM     35  H   UNL     1       6.219   1.907  11.162  0.00  0.00    +0.000 HD
ENDBRANCH  31  34
ENDBRANCH  30  31
ENDBRANCH  29  30
ENDBRANCH  28  29
ENDBRANCH  27  28
ENDBRANCH   1  27
TORSDOF 10
ENDMDL
MODEL 5
REMARK VINA RESULT:      -6.4      1.638      2.032
REMARK  Name = 
REMARK  15 active torsions:
REMARK  status: ('A' for Active; 'I' for Inactive)
REMARK    1  A    between atoms: C_1  and  C_2
REMARK    2  A    between atoms: C_2  and  C_3
REMARK    3  A    between atoms: C_2  and  C_10
REMARK    4  A    between atoms: C_3  and  C_4
REMARK    5  A    between atoms: C_4  and  C_5
REMARK    6  A    between atoms: C_5  and  C_6
REMARK    7  A    between atoms: C_6  and  C_7
REMARK    8  A    between atoms: C_6  and  C_8
REMARK    9  A    between atoms: C_6  and  O_9
REMARK   10  A    between atoms: C_15  and  C_16
REMARK   11  A    between atoms: C_19  and  O_20
REMARK   12  A    between atoms: C_21  and  C_22
REMARK   13  A    between atoms: C_21  and  O_23
REMARK   14  A    between atoms: C_24  and  O_25
REMARK   15  A    between atoms: C_30  and  C_31
REMARK                            x       y       z     vdW  Elec       q    Type
REMARK                         _______ _______ _______ _____ _____    ______ ____
ROOT
ATOM      1  C   UNL     1       0.766  10.489  18.471  0.00  0.00    +0.000 C 
ATOM      2  C   UNL     1      -0.725  10.092  18.478  0.00  0.00    +0.000 C 
ATOM      3  C   UNL     1      -1.445  11.265  19.116  0.00  0.00    +0.000 C 
ATOM      4  C   UNL     1      -0.565  12.471  18.772  0.00  0.00    +0.000 C 
ATOM      5  C   UNL     1      -0.728  13.842  19.364  0.00  0.00    +0.000 C 
ATOM      6  C   UNL     1      -1.558  14.227  20.349  0.00  0.00    +0.000 C 
ATOM      7  C   UNL     1       0.282  14.823  18.764  0.00  0.00    +0.000 C 
ATOM      8  C   UNL     1       1.734  14.307  18.770  0.00  0.00    +0.000 C 
ATOM      9  C   UNL     1       1.870  12.836  18.343  0.00  0.00    +0.000 C 
ATOM     10  C   UNL     1       0.856  11.927  19.080  0.00  0.00    +0.000 C 
ATOM     11  C   UNL     1       1.178  11.977  20.593  0.00  0.00    +0.000 C 
ENDROOT
BRANCH   6  12
ATOM     12  C   UNL     1      -2.526  13.392  21.021  0.00  0.00    +0.000 C 
ATOM     13  C   UNL     1      -3.702  13.773  21.556  0.00  0.00    +0.000 C 
ATOM     14  C   UNL     1      -4.288  15.156  21.484  0.00  0.00    +0.000 C 
ATOM     15  C   UNL     1      -5.594  15.075  20.682  0.00  0.00    +0.000 C 
ATOM     16  C   UNL     1      -6.598  14.098  21.362  0.00  0.00    +0.000 C 
ATOM     17  C   UNL     1      -7.907  14.030  20.575  0.00  0.00    +0.000 C 
ATOM     18  C   UNL     1      -5.973  12.687  21.527  0.00  0.00    +0.000 C 
ATOM     19  C   UNL     1      -4.607  12.756  22.224  0.00  0.00    +0.000 C 
BRANCH  15  20
ATOM     20  O   UNL     1      -5.324  14.701  19.327  0.00  0.00    +0.000 OA
ATOM     21  H   UNL     1      -6.169  14.637  18.842  0.00  0.00    +0.000 HD
ENDBRANCH  15  20
BRANCH  16  22
ATOM     22  O   UNL     1      -6.925  14.570  22.689  0.00  0.00    +0.000 OA
ATOM     23  H   UNL     1      -7.093  13.789  23.246  0.00  0.00    +0.000 HD
ENDBRANCH  16  22
BRANCH  18  24
ATOM     24  O   UNL     1      -6.836  11.854  22.310  0.00  0.00    +0.000 OA
ATOM     25  H   UNL     1      -6.275  11.107  22.600  0.00  0.00    +0.000 HD
ENDBRANCH  18  24
ENDBRANCH   6  12
BRANCH   1  27
ATOM     26  C   UNL     1       1.190   8.630  20.247  0.00  0.00    +0.000 C 
ATOM     27  C   UNL     1       1.700   9.372  19.004  0.00  0.00    +0.000 C 
BRANCH  27  28
ATOM     28  C   UNL     1       2.005   8.318  17.905  0.00  0.00    +0.000 C 
BRANCH  28  29
ATOM     29  C   UNL     1       2.873   7.145  18.367  0.00  0.00    +0.000 C 
BRANCH  29  30
ATOM     30  C   UNL     1       2.242   5.794  18.023  0.00  0.00    +0.000 C 
BRANCH  30  31
ATOM     31  C   UNL     1       2.452   4.707  19.087  0.00  0.00    +0.000 C 
ATOM     32  C   UNL     1       1.633   4.989  20.343  0.00  0.00    +0.000 C 
ATOM     33  C   UNL     1       2.149   3.317  18.523  0.00  0.00    +0.000 C 
BRANCH  31  34
ATOM     34  O   UNL     1       3.839   4.715  19.446  0.00  0.00    +0.000 OA
ATOM     35  H   UNL     1       4.067   3.829  19.778  0.00  0.00    +0.000 HD
ENDBRANCH  31  34
ENDBRANCH  30  31
ENDBRANCH  29  30
ENDBRANCH  28  29
ENDBRANCH  27  28
ENDBRANCH   1  27
TORSDOF 10
ENDMDL
MODEL 6
REMARK VINA RESULT:      -6.4      1.662      2.053
REMARK  Name = 
REMARK  15 active torsions:
REMARK  status: ('A' for Active; 'I' for Inactive)
REMARK    1  A    between atoms: C_1  and  C_2
REMARK    2  A    between atoms: C_2  and  C_3
REMARK    3  A    between atoms: C_2  and  C_10
REMARK    4  A    between atoms: C_3  and  C_4
REMARK    5  A    between atoms: C_4  and  C_5
REMARK    6  A    between atoms: C_5  and  C_6
REMARK    7  A    between atoms: C_6  and  C_7
REMARK    8  A    between atoms: C_6  and  C_8
REMARK    9  A    between atoms: C_6  and  O_9
REMARK   10  A    between atoms: C_15  and  C_16
REMARK   11  A    between atoms: C_19  and  O_20
REMARK   12  A    between atoms: C_21  and  C_22
REMARK   13  A    between atoms: C_21  and  O_23
REMARK   14  A    between atoms: C_24  and  O_25
REMARK   15  A    between atoms: C_30  and  C_31
REMARK                            x       y       z     vdW  Elec       q    Type
REMARK                         _______ _______ _______ _____ _____    ______ ____
ROOT
ATOM      1  C   UNL     1       1.028  10.291  18.500  0.00  0.00    +0.000 C 
ATOM      2  C   UNL     1      -0.471   9.990  18.282  0.00  0.00    +0.000 C 
ATOM      3  C   UNL     1      -1.201  11.216  18.796  0.00  0.00    +0.000 C 
ATOM      4  C   UNL     1      -0.202  12.358  18.582  0.00  0.00    +0.000 C 
ATOM      5  C   UNL     1      -0.363  13.746  19.133  0.00  0.00    +0.000 C 
ATOM      6  C   UNL     1      -1.306  14.199  19.978  0.00  0.00    +0.000 C 
ATOM      7  C   UNL     1       0.788  14.652  18.687  0.00  0.00    +0.000 C 
ATOM      8  C   UNL     1       2.186  14.045  18.918  0.00  0.00    +0.000 C 
ATOM      9  C   UNL     1       2.288  12.561  18.525  0.00  0.00    +0.000 C 
ATOM     10  C   UNL     1       1.118  11.731  19.105  0.00  0.00    +0.000 C 
ATOM     11  C   UNL     1       1.209  11.784  20.650  0.00  0.00    +0.000 C 
ENDROOT
BRANCH   6  12
ATOM     12  C   UNL     1      -2.417  13.438  20.500  0.00  0.00    +0.000 C 
ATOM     13  C   UNL     1      -2.947  13.510  21.736  0.00  0.00    +0.000 C 
ATOM     14  C   UNL     1      -2.532  14.477  22.810  0.00  0.00    +0.000 C 
ATOM     15  C   UNL     1      -3.728  15.389  23.114  0.00  0.00    +0.000 C 
ATOM     16  C   UNL     1      -4.954  14.552  23.585  0.00  0.00    +0.000 C 
ATOM     17  C   UNL     1      -6.141  15.461  23.906  0.00  0.00    +0.000 C 
ATOM     18  C   UNL     1      -5.338  13.486  22.524  0.00  0.00    +0.000 C 
ATOM     19  C   UNL     1      -4.125  12.636  22.118  0.00  0.00    +0.000 C 
BRANCH  15  20
ATOM     20  O   UNL     1      -4.043  16.195  21.973  0.00  0.00    +0.000 OA
ATOM     21  H   UNL     1      -4.520  15.648  21.321  0.00  0.00    +0.000 HD
ENDBRANCH  15  20
BRANCH  16  22
ATOM     22  O   UNL     1      -4.626  13.837  24.799  0.00  0.00    +0.000 OA
ATOM     23  H   UNL     1      -5.440  13.406  25.114  0.00  0.00    +0.000 HD
ENDBRANCH  16  22
BRANCH  18  24
ATOM     24  O   UNL     1      -6.346  12.612  23.046  0.00  0.00    +0.000 OA
ATOM     25  H   UNL     1      -6.267  12.683  24.019  0.00  0.00    +0.000 HD
ENDBRANCH  18  24
ENDBRANCH   6  12
BRANCH   1  27
ATOM     26  C   UNL     1       1.088   8.487  20.379  0.00  0.00    +0.000 C 
ATOM     27  C   UNL     1       1.795   9.126  19.175  0.00  0.00    +0.000 C 
BRANCH  27  28
ATOM     28  C   UNL     1       2.125   8.000  18.157  0.00  0.00    +0.000 C 
BRANCH  28  29
ATOM     29  C   UNL     1       2.919   6.827  18.735  0.00  0.00    +0.000 C 
BRANCH  29  30
ATOM     30  C   UNL     1       3.057   5.678  17.733  0.00  0.00    +0.000 C 
BRANCH  30  31
ATOM     31  C   UNL     1       2.292   4.405  18.119  0.00  0.00    +0.000 C 
ATOM     32  C   UNL     1       3.133   3.154  17.883  0.00  0.00    +0.000 C 
ATOM     33  C   UNL     1       1.793   4.478  19.564  0.00  0.00    +0.000 C 
BRANCH  31  34
ATOM     34  O   UNL     1       1.131   4.327  17.284  0.00  0.00    +0.000 OA
ATOM     35  H   UNL     1       0.629   3.535  17.543  0.00  0.00    +0.000 HD
ENDBRANCH  31  34
ENDBRANCH  30  31
ENDBRANCH  29  30
ENDBRANCH  28  29
ENDBRANCH  27  28
ENDBRANCH   1  27
TORSDOF 10
ENDMDL
MODEL 7
REMARK VINA RESULT:      -6.4      2.648      9.726
REMARK  Name = 
REMARK  15 active torsions:
REMARK  status: ('A' for Active; 'I' for Inactive)
REMARK    1  A    between atoms: C_1  and  C_2
REMARK    2  A    between atoms: C_2  and  C_3
REMARK    3  A    between atoms: C_2  and  C_10
REMARK    4  A    between atoms: C_3  and  C_4
REMARK    5  A    between atoms: C_4  and  C_5
REMARK    6  A    between atoms: C_5  and  C_6
REMARK    7  A    between atoms: C_6  and  C_7
REMARK    8  A    between atoms: C_6  and  C_8
REMARK    9  A    between atoms: C_6  and  O_9
REMARK   10  A    between atoms: C_15  and  C_16
REMARK   11  A    between atoms: C_19  and  O_20
REMARK   12  A    between atoms: C_21  and  C_22
REMARK   13  A    between atoms: C_21  and  O_23
REMARK   14  A    between atoms: C_24  and  O_25
REMARK   15  A    between atoms: C_30  and  C_31
REMARK                            x       y       z     vdW  Elec       q    Type
REMARK                         _______ _______ _______ _____ _____    ______ ____
ROOT
ATOM      1  C   UNL     1      -0.103  11.954  19.493  0.00  0.00    +0.000 C 
ATOM      2  C   UNL     1       0.042  11.061  18.243  0.00  0.00    +0.000 C 
ATOM      3  C   UNL     1       0.478   9.707  18.771  0.00  0.00    +0.000 C 
ATOM      4  C   UNL     1      -0.124   9.648  20.179  0.00  0.00    +0.000 C 
ATOM      5  C   UNL     1       0.205   8.600  21.204  0.00  0.00    +0.000 C 
ATOM      6  C   UNL     1       1.135   7.632  21.132  0.00  0.00    +0.000 C 
ATOM      7  C   UNL     1      -0.613   8.806  22.482  0.00  0.00    +0.000 C 
ATOM      8  C   UNL     1      -0.571  10.248  23.025  0.00  0.00    +0.000 C 
ATOM      9  C   UNL     1      -0.719  11.323  21.935  0.00  0.00    +0.000 C 
ATOM     10  C   UNL     1       0.219  11.057  20.733  0.00  0.00    +0.000 C 
ATOM     11  C   UNL     1       1.680  11.139  21.236  0.00  0.00    +0.000 C 
ENDROOT
BRANCH   6  12
ATOM     12  C   UNL     1       1.993   7.359  20.002  0.00  0.00    +0.000 C 
ATOM     13  C   UNL     1       2.744   6.261  19.794  0.00  0.00    +0.000 C 
ATOM     14  C   UNL     1       2.772   5.042  20.673  0.00  0.00    +0.000 C 
ATOM     15  C   UNL     1       2.243   3.856  19.854  0.00  0.00    +0.000 C 
ATOM     16  C   UNL     1       3.118   3.628  18.586  0.00  0.00    +0.000 C 
ATOM     17  C   UNL     1       2.603   2.435  17.779  0.00  0.00    +0.000 C 
ATOM     18  C   UNL     1       3.173   4.910  17.713  0.00  0.00    +0.000 C 
ATOM     19  C   UNL     1       3.588   6.135  18.541  0.00  0.00    +0.000 C 
BRANCH  15  20
ATOM     20  O   UNL     1       0.866   4.057  19.520  0.00  0.00    +0.000 OA
ATOM     21  H   UNL     1       0.630   4.988  19.693  0.00  0.00    +0.000 HD
ENDBRANCH  15  20
BRANCH  16  22
ATOM     22  O   UNL     1       4.477   3.324  18.973  0.00  0.00    +0.000 OA
ATOM     23  H   UNL     1       4.718   2.476  18.560  0.00  0.00    +0.000 HD
ENDBRANCH  16  22
BRANCH  18  24
ATOM     24  O   UNL     1       4.120   4.743  16.651  0.00  0.00    +0.000 OA
ATOM     25  H   UNL     1       4.055   3.800  16.397  0.00  0.00    +0.000 HD
ENDBRANCH  18  24
ENDBRANCH   6  12
BRANCH   1  27
ATOM     26  C   UNL     1       1.697  13.398  18.283  0.00  0.00    +0.000 C 
ATOM     27  C   UNL     1       0.589  13.333  19.344  0.00  0.00    +0.000 C 
BRANCH  27  28
ATOM     28  C   UNL     1      -0.440  14.454  19.035  0.00  0.00    +0.000 C 
BRANCH  28  29
ATOM     29  C   UNL     1      -1.502  14.665  20.117  0.00  0.00    +0.000 C 
BRANCH  29  30
ATOM     30  C   UNL     1      -0.883  15.078  21.455  0.00  0.00    +0.000 C 
BRANCH  30  31
ATOM     31  C   UNL     1      -1.858  15.053  22.639  0.00  0.00    +0.000 C 
ATOM     32  C   UNL     1      -3.188  14.410  22.254  0.00  0.00    +0.000 C 
ATOM     33  C   UNL     1      -1.235  14.360  23.853  0.00  0.00    +0.000 C 
BRANCH  31  34
ATOM     34  O   UNL     1      -2.111  16.410  23.021  0.00  0.00    +0.000 OA
ATOM     35  H   UNL     1      -2.614  16.397  23.854  0.00  0.00    +0.000 HD
ENDBRANCH  31  34
ENDBRANCH  30  31
ENDBRANCH  29  30
ENDBRANCH  28  29
ENDBRANCH  27  28
ENDBRANCH   1  27
TORSDOF 10
ENDMDL
MODEL 8
REMARK VINA RESULT:      -6.4      4.000      9.864
REMARK  Name = 
REMARK  15 active torsions:
REMARK  status: ('A' for Active; 'I' for Inactive)
REMARK    1  A    between atoms: C_1  and  C_2
REMARK    2  A    between atoms: C_2  and  C_3
REMARK    3  A    between atoms: C_2  and  C_10
REMARK    4  A    between atoms: C_3  and  C_4
REMARK    5  A    between atoms: C_4  and  C_5
REMARK    6  A    between atoms: C_5  and  C_6
REMARK    7  A    between atoms: C_6  and  C_7
REMARK    8  A    between atoms: C_6  and  C_8
REMARK    9  A    between atoms: C_6  and  O_9
REMARK   10  A    between atoms: C_15  and  C_16
REMARK   11  A    between atoms: C_19  and  O_20
REMARK   12  A    between atoms: C_21  and  C_22
REMARK   13  A    between atoms: C_21  and  O_23
REMARK   14  A    between atoms: C_24  and  O_25
REMARK   15  A    between atoms: C_30  and  C_31
REMARK                            x       y       z     vdW  Elec       q    Type
REMARK                         _______ _______ _______ _____ _____    ______ ____
ROOT
ATOM      1  C   UNL     1       1.749  13.310  19.608  0.00  0.00    +0.000 C 
ATOM      2  C   UNL     1       2.694  13.054  18.415  0.00  0.00    +0.000 C 
ATOM      3  C   UNL     1       2.364  11.651  17.941  0.00  0.00    +0.000 C 
ATOM      4  C   UNL     1       0.889  11.473  18.315  0.00  0.00    +0.000 C 
ATOM      5  C   UNL     1       0.146  10.168  18.256  0.00  0.00    +0.000 C 
ATOM      6  C   UNL     1       0.638   8.944  17.993  0.00  0.00    +0.000 C 
ATOM      7  C   UNL     1      -1.322  10.353  18.645  0.00  0.00    +0.000 C 
ATOM      8  C   UNL     1      -1.527  11.131  19.961  0.00  0.00    +0.000 C 
ATOM      9  C   UNL     1      -0.620  12.366  20.096  0.00  0.00    +0.000 C 
ATOM     10  C   UNL     1       0.855  12.036  19.761  0.00  0.00    +0.000 C 
ATOM     11  C   UNL     1       1.363  11.002  20.795  0.00  0.00    +0.000 C 
ENDROOT
BRANCH   6  12
ATOM     12  C   UNL     1       2.007   8.633  17.651  0.00  0.00    +0.000 C 
ATOM     13  C   UNL     1       2.806   7.720  18.234  0.00  0.00    +0.000 C 
ATOM     14  C   UNL     1       2.396   6.766  19.322  0.00  0.00    +0.000 C 
ATOM     15  C   UNL     1       2.513   5.339  18.770  0.00  0.00    +0.000 C 
ATOM     16  C   UNL     1       3.973   5.043  18.314  0.00  0.00    +0.000 C 
ATOM     17  C   UNL     1       4.096   3.615  17.781  0.00  0.00    +0.000 C 
ATOM     18  C   UNL     1       4.443   6.076  17.255  0.00  0.00    +0.000 C 
ATOM     19  C   UNL     1       4.225   7.516  17.741  0.00  0.00    +0.000 C 
BRANCH  15  20
ATOM     20  O   UNL     1       1.574   5.137  17.708  0.00  0.00    +0.000 OA
ATOM     21  H   UNL     1       0.674   5.300  18.046  0.00  0.00    +0.000 HD
ENDBRANCH  15  20
BRANCH  16  22
ATOM     22  O   UNL     1       4.873   5.155  19.439  0.00  0.00    +0.000 OA
ATOM     23  H   UNL     1       4.389   4.867  20.233  0.00  0.00    +0.000 HD
ENDBRANCH  16  22
BRANCH  18  24
ATOM     24  O   UNL     1       5.838   5.900  16.981  0.00  0.00    +0.000 OA
ATOM     25  H   UNL     1       6.252   5.743  17.853  0.00  0.00    +0.000 HD
ENDBRANCH  18  24
ENDBRANCH   6  12
BRANCH   1  27
ATOM     26  C   UNL     1       3.799  14.609  20.557  0.00  0.00    +0.000 C 
ATOM     27  C   UNL     1       2.474  13.891  20.850  0.00  0.00    +0.000 C 
BRANCH  27  28
ATOM     28  C   UNL     1       1.558  14.870  21.633  0.00  0.00    +0.000 C 
BRANCH  28  29
ATOM     29  C   UNL     1       1.473  16.279  21.042  0.00  0.00    +0.000 C 
BRANCH  29  30
ATOM     30  C   UNL     1       0.070  16.598  20.520  0.00  0.00    +0.000 C 
BRANCH  30  31
ATOM     31  C   UNL     1      -0.042  16.640  18.990  0.00  0.00    +0.000 C 
ATOM     32  C   UNL     1      -0.977  17.755  18.529  0.00  0.00    +0.000 C 
ATOM     33  C   UNL     1       1.337  16.763  18.339  0.00  0.00    +0.000 C 
BRANCH  31  34
ATOM     34  O   UNL     1      -0.593  15.390  18.561  0.00  0.00    +0.000 OA
ATOM     35  H   UNL     1      -0.048  15.059  17.826  0.00  0.00    +0.000 HD
ENDBRANCH  31  34
ENDBRANCH  30  31
ENDBRANCH  29  30
ENDBRANCH  28  29
ENDBRANCH  27  28
ENDBRANCH   1  27
TORSDOF 10
ENDMDL
MODEL 9
REMARK VINA RESULT:      -6.4      4.628      6.770
REMARK  Name = 
REMARK  15 active torsions:
REMARK  status: ('A' for Active; 'I' for Inactive)
REMARK    1  A    between atoms: C_1  and  C_2
REMARK    2  A    between atoms: C_2  and  C_3
REMARK    3  A    between atoms: C_2  and  C_10
REMARK    4  A    between atoms: C_3  and  C_4
REMARK    5  A    between atoms: C_4  and  C_5
REMARK    6  A    between atoms: C_5  and  C_6
REMARK    7  A    between atoms: C_6  and  C_7
REMARK    8  A    between atoms: C_6  and  C_8
REMARK    9  A    between atoms: C_6  and  O_9
REMARK   10  A    between atoms: C_15  and  C_16
REMARK   11  A    between atoms: C_19  and  O_20
REMARK   12  A    between atoms: C_21  and  C_22
REMARK   13  A    between atoms: C_21  and  O_23
REMARK   14  A    between atoms: C_24  and  O_25
REMARK   15  A    between atoms: C_30  and  C_31
REMARK                            x       y       z     vdW  Elec       q    Type
REMARK                         _______ _______ _______ _____ _____    ______ ____
ROOT
ATOM      1  C   UNL     1      -0.603  10.613  21.568  0.00  0.00    +0.000 C 
ATOM      2  C   UNL     1      -0.716  11.947  22.336  0.00  0.00    +0.000 C 
ATOM      3  C   UNL     1      -0.528  13.026  21.286  0.00  0.00    +0.000 C 
ATOM      4  C   UNL     1      -1.043  12.381  19.996  0.00  0.00    +0.000 C 
ATOM      5  C   UNL     1      -0.869  12.964  18.622  0.00  0.00    +0.000 C 
ATOM      6  C   UNL     1      -0.158  14.048  18.265  0.00  0.00    +0.000 C 
ATOM      7  C   UNL     1      -1.550  12.091  17.565  0.00  0.00    +0.000 C 
ATOM      8  C   UNL     1      -1.188  10.596  17.661  0.00  0.00    +0.000 C 
ATOM      9  C   UNL     1      -1.184  10.052  19.100  0.00  0.00    +0.000 C 
ATOM     10  C   UNL     1      -0.393  10.973  20.060  0.00  0.00    +0.000 C 
ATOM     11  C   UNL     1       1.084  10.998  19.595  0.00  0.00    +0.000 C 
ENDROOT
BRANCH   6  12
ATOM     12  C   UNL     1       0.558  14.928  19.158  0.00  0.00    +0.000 C 
ATOM     13  C   UNL     1       1.844  14.828  19.545  0.00  0.00    +0.000 C 
ATOM     14  C   UNL     1       2.830  13.808  19.047  0.00  0.00    +0.000 C 
ATOM     15  C   UNL     1       3.948  14.554  18.305  0.00  0.00    +0.000 C 
ATOM     16  C   UNL     1       4.654  15.572  19.250  0.00  0.00    +0.000 C 
ATOM     17  C   UNL     1       5.780  16.303  18.517  0.00  0.00    +0.000 C 
ATOM     18  C   UNL     1       3.631  16.577  19.845  0.00  0.00    +0.000 C 
ATOM     19  C   UNL     1       2.442  15.851  20.491  0.00  0.00    +0.000 C 
BRANCH  15  20
ATOM     20  O   UNL     1       3.429  15.191  17.132  0.00  0.00    +0.000 OA
ATOM     21  H   UNL     1       2.455  15.219  17.192  0.00  0.00    +0.000 HD
ENDBRANCH  15  20
BRANCH  16  22
ATOM     22  O   UNL     1       5.255  14.874  20.364  0.00  0.00    +0.000 OA
ATOM     23  H   UNL     1       4.840  13.995  20.420  0.00  0.00    +0.000 HD
ENDBRANCH  16  22
BRANCH  18  24
ATOM     24  O   UNL     1       4.261  17.387  20.844  0.00  0.00    +0.000 OA
ATOM     25  H   UNL     1       4.169  18.306  20.523  0.00  0.00    +0.000 HD
ENDBRANCH  18  24
ENDBRANCH   6  12
BRANCH   1  27
ATOM     26  C   UNL     1       0.082   9.358  23.746  0.00  0.00    +0.000 C 
ATOM     27  C   UNL     1       0.341   9.590  22.250  0.00  0.00    +0.000 C 
BRANCH  27  28
ATOM     28  C   UNL     1       0.297   8.213  21.535  0.00  0.00    +0.000 C 
BRANCH  28  29
ATOM     29  C   UNL     1       1.639   7.740  20.973  0.00  0.00    +0.000 C 
BRANCH  29  30
ATOM     30  C   UNL     1       1.587   6.281  20.514  0.00  0.00    +0.000 C 
BRANCH  30  31
ATOM     31  C   UNL     1       2.523   5.950  19.344  0.00  0.00    +0.000 C 
ATOM     32  C   UNL     1       2.037   4.729  18.568  0.00  0.00    +0.000 C 
ATOM     33  C   UNL     1       2.705   7.160  18.425  0.00  0.00    +0.000 C 
BRANCH  31  34
ATOM     34  O   UNL     1       3.812   5.648  19.891  0.00  0.00    +0.000 OA
ATOM     35  H   UNL     1       4.439   6.318  19.567  0.00  0.00    +0.000 HD
ENDBRANCH  31  34
ENDBRANCH  30  31
ENDBRANCH  29  30
ENDBRANCH  28  29
ENDBRANCH  27  28
ENDBRANCH   1  27
TORSDOF 10
ENDMDL
