MODEL 1
REMARK VINA RESULT:      -6.6      0.000      0.000
REMARK  Name = 
REMARK  11 active torsions:
REMARK  status: ('A' for Active; 'I' for Inactive)
REMARK    1  A    between atoms: C_1  and  C_2
REMARK    2  A    between atoms: C_2  and  O_3
REMARK    3  A    between atoms: O_3  and  P_4
REMARK    4  A    between atoms: P_4  and  O_6
REMARK    5  A    between atoms: P_4  and  C_7
REMARK    6  A    between atoms: C_7  and  O_8
REMARK    7  A    between atoms: O_8  and  C_9
REMARK    8  A    between atoms: C_9  and  C_10
REMARK    9  A    between atoms: C_9  and  C_12
REMARK   10  A    between atoms: C_10  and  O_11
REMARK   11  A    between atoms: C_12  and  N_13
REMARK                            x       y       z     vdW  Elec       q    Type
REMARK                         _______ _______ _______ _____ _____    ______ ____
ROOT
ATOM      1  C   UNL     1       3.563   5.007  17.465  0.00  0.00    +0.000 C 
ENDROOT
BRANCH   1   2
ATOM      2  O   UNL     1       4.368   5.361  16.278  0.00  0.00    +0.000 OA
BRANCH   2   3
ATOM      3  C   UNL     1       5.439   4.421  16.022  0.00  0.00    +0.000 C 
BRANCH   3   4
ATOM      4  P   UNL     1       7.114   5.116  16.036  0.00  0.00    +0.000 P 
ATOM      5  O   UNL     1       7.717   5.086  14.658  0.00  0.00    +0.000 OA
BRANCH   4   6
ATOM      6  O   UNL     1       8.043   4.211  16.986  0.00  0.00    +0.000 OA
ATOM      7  H   UNL     1       7.786   4.362  17.919  0.00  0.00    +0.000 HD
ENDBRANCH   4   6
BRANCH   4   8
ATOM      8  O   UNL     1       7.229   6.608  16.639  0.00  0.00    +0.000 OA
BRANCH   8  10
ATOM      9  C   UNL     1       8.133   8.467  17.927  0.00  0.00    +0.000 C 
ATOM     10  C   UNL     1       7.685   6.999  17.921  0.00  0.00    +0.000 C 
ENDBRANCH   8  10
ENDBRANCH   4   8
ENDBRANCH   3   4
ENDBRANCH   2   3
ENDBRANCH   1   2
BRANCH   1  11
ATOM     11  C   UNL     1       4.023   5.944  18.599  0.00  0.00    +0.000 C 
BRANCH  11  12
ATOM     12  O   UNL     1       5.097   5.343  19.324  0.00  0.00    +0.000 OA
ATOM     13  H   UNL     1       4.892   4.390  19.347  0.00  0.00    +0.000 HD
ENDBRANCH  11  12
ENDBRANCH   1  11
BRANCH   1  14
ATOM     14  C   UNL     1       3.766   3.530  17.906  0.00  0.00    +0.000 C 
BRANCH  14  15
ATOM     15  N   UNL     1       2.952   3.012  19.027  0.00  0.00    +0.000 N 
ATOM     16  C   UNL     1       1.585   3.194  19.032  0.00  0.00    +0.000 A 
ATOM     17  C   UNL     1       0.858   2.981  20.130  0.00  0.00    +0.000 A 
ATOM     18  C   UNL     1       1.612   2.614  21.345  0.00  0.00    +0.000 A 
ATOM     19  N   UNL     1       0.970   2.534  22.553  0.00  0.00    +0.000 N 
ATOM     20  N   UNL     1       2.886   2.382  21.333  0.00  0.00    +0.000 NA
ATOM     21  C   UNL     1       3.601   2.546  20.168  0.00  0.00    +0.000 A 
ATOM     22  O   UNL     1       4.813   2.351  20.153  0.00  0.00    +0.000 OA
ATOM     23  H   UNL     1      -0.001   2.249  22.575  0.00  0.00    +0.000 HD
ATOM     24  H   UNL     1       1.543   2.138  23.293  0.00  0.00    +0.000 HD
ENDBRANCH  14  15
ENDBRANCH   1  14
TORSDOF 10
ENDMDL
MODEL 2
REMARK VINA RESULT:      -6.4      1.283      1.436
REMARK  Name = 
REMARK  11 active torsions:
REMARK  status: ('A' for Active; 'I' for Inactive)
REMARK    1  A    between atoms: C_1  and  C_2
REMARK    2  A    between atoms: C_2  and  O_3
REMARK    3  A    between atoms: O_3  and  P_4
REMARK    4  A    between atoms: P_4  and  O_6
REMARK    5  A    between atoms: P_4  and  C_7
REMARK    6  A    between atoms: C_7  and  O_8
REMARK    7  A    between atoms: O_8  and  C_9
REMARK    8  A    between atoms: C_9  and  C_10
REMARK    9  A    between atoms: C_9  and  C_12
REMARK   10  A    between atoms: C_10  and  O_11
REMARK   11  A    between atoms: C_12  and  N_13
REMARK                            x       y       z     vdW  Elec       q    Type
REMARK                         _______ _______ _______ _____ _____    ______ ____
ROOT
ATOM      1  C   UNL     1       3.665   5.651  17.517  0.00  0.00    +0.000 C 
ENDROOT
BRANCH   1   2
ATOM      2  O   UNL     1       4.895   6.270  16.979  0.00  0.00    +0.000 OA
BRANCH   2   3
ATOM      3  C   UNL     1       5.219   5.812  15.644  0.00  0.00    +0.000 C 
BRANCH   3   4
ATOM      4  P   UNL     1       6.764   4.877  15.488  0.00  0.00    +0.000 P 
ATOM      5  O   UNL     1       7.483   5.239  14.217  0.00  0.00    +0.000 OA
BRANCH   4   6
ATOM      6  O   UNL     1       6.416   3.309  15.411  0.00  0.00    +0.000 OA
ATOM      7  H   UNL     1       5.468   3.204  15.192  0.00  0.00    +0.000 HD
ENDBRANCH   4   6
BRANCH   4   8
ATOM      8  O   UNL     1       7.777   5.018  16.735  0.00  0.00    +0.000 OA
BRANCH   8  10
ATOM      9  C   UNL     1       7.730   5.824  19.033  0.00  0.00    +0.000 C 
ATOM     10  C   UNL     1       7.565   4.632  18.080  0.00  0.00    +0.000 C 
ENDBRANCH   8  10
ENDBRANCH   4   8
ENDBRANCH   3   4
ENDBRANCH   2   3
ENDBRANCH   1   2
BRANCH   1  11
ATOM     11  C   UNL     1       3.439   6.270  18.910  0.00  0.00    +0.000 C 
BRANCH  11  12
ATOM     12  O   UNL     1       2.587   7.411  18.807  0.00  0.00    +0.000 OA
ATOM     13  H   UNL     1       2.504   7.754  19.717  0.00  0.00    +0.000 HD
ENDBRANCH  11  12
ENDBRANCH   1  11
BRANCH   1  14
ATOM     14  C   UNL     1       3.784   4.108  17.654  0.00  0.00    +0.000 C 
BRANCH  14  15
ATOM     15  N   UNL     1       3.017   3.435  18.725  0.00  0.00    +0.000 N 
ATOM     16  C   UNL     1       1.640   3.492  18.731  0.00  0.00    +0.000 A 
ATOM     17  C   UNL     1       0.932   3.132  19.803  0.00  0.00    +0.000 A 
ATOM     18  C   UNL     1       1.714   2.744  20.995  0.00  0.00    +0.000 A 
ATOM     19  N   UNL     1       1.078   2.516  22.187  0.00  0.00    +0.000 N 
ATOM     20  N   UNL     1       3.004   2.630  20.977  0.00  0.00    +0.000 NA
ATOM     21  C   UNL     1       3.703   2.945  19.835  0.00  0.00    +0.000 A 
ATOM     22  O   UNL     1       4.928   2.861  19.817  0.00  0.00    +0.000 OA
ATOM     23  H   UNL     1       0.138   2.143  22.179  0.00  0.00    +0.000 HD
ATOM     24  H   UNL     1       1.683   2.118  22.901  0.00  0.00    +0.000 HD
ENDBRANCH  14  15
ENDBRANCH   1  14
TORSDOF 10
ENDMDL
MODEL 3
REMARK VINA RESULT:      -6.3      0.988      1.013
REMARK  Name = 
REMARK  11 active torsions:
REMARK  status: ('A' for Active; 'I' for Inactive)
REMARK    1  A    between atoms: C_1  and  C_2
REMARK    2  A    between atoms: C_2  and  O_3
REMARK    3  A    between atoms: O_3  and  P_4
REMARK    4  A    between atoms: P_4  and  O_6
REMARK    5  A    between atoms: P_4  and  C_7
REMARK    6  A    between atoms: C_7  and  O_8
REMARK    7  A    between atoms: O_8  and  C_9
REMARK    8  A    between atoms: C_9  and  C_10
REMARK    9  A    between atoms: C_9  and  C_12
REMARK   10  A    between atoms: C_10  and  O_11
REMARK   11  A    between atoms: C_12  and  N_13
REMARK                            x       y       z     vdW  Elec       q    Type
REMARK                         _______ _______ _______ _____ _____    ______ ____
ROOT
ATOM      1  C   UNL     1       3.524   6.035  17.805  0.00  0.00    +0.000 C 
ENDROOT
BRANCH   1   2
ATOM      2  O   UNL     1       4.578   6.669  16.987  0.00  0.00    +0.000 OA
BRANCH   2   3
ATOM      3  C   UNL     1       5.111   5.786  15.971  0.00  0.00    +0.000 C 
BRANCH   3   4
ATOM      4  P   UNL     1       6.895   5.471  16.061  0.00  0.00    +0.000 P 
ATOM      5  O   UNL     1       7.437   5.076  14.715  0.00  0.00    +0.000 OA
BRANCH   4   6
ATOM      6  O   UNL     1       7.153   4.240  17.062  0.00  0.00    +0.000 OA
ATOM      7  H   UNL     1       6.622   4.372  17.874  0.00  0.00    +0.000 HD
ENDBRANCH   4   6
BRANCH   4   8
ATOM      8  O   UNL     1       7.774   6.685  16.658  0.00  0.00    +0.000 OA
BRANCH   8  10
ATOM      9  C   UNL     1       8.048   8.779  17.871  0.00  0.00    +0.000 C 
ATOM     10  C   UNL     1       7.672   7.292  17.932  0.00  0.00    +0.000 C 
ENDBRANCH   8  10
ENDBRANCH   4   8
ENDBRANCH   3   4
ENDBRANCH   2   3
ENDBRANCH   1   2
BRANCH   1  11
ATOM     11  C   UNL     1       3.822   6.413  19.269  0.00  0.00    +0.000 C 
BRANCH  11  12
ATOM     12  O   UNL     1       2.637   6.902  19.899  0.00  0.00    +0.000 OA
ATOM     13  H   UNL     1       2.915   7.181  20.792  0.00  0.00    +0.000 HD
ENDBRANCH  11  12
ENDBRANCH   1  11
BRANCH   1  14
ATOM     14  C   UNL     1       3.513   4.486  17.668  0.00  0.00    +0.000 C 
BRANCH  14  15
ATOM     15  N   UNL     1       2.869   3.690  18.735  0.00  0.00    +0.000 N 
ATOM     16  C   UNL     1       1.502   3.739  18.907  0.00  0.00    +0.000 A 
ATOM     17  C   UNL     1       0.919   3.254  20.004  0.00  0.00    +0.000 A 
ATOM     18  C   UNL     1       1.829   2.734  21.044  0.00  0.00    +0.000 A 
ATOM     19  N   UNL     1       1.334   2.365  22.267  0.00  0.00    +0.000 N 
ATOM     20  N   UNL     1       3.108   2.628  20.865  0.00  0.00    +0.000 NA
ATOM     21  C   UNL     1       3.673   3.077  19.693  0.00  0.00    +0.000 A 
ATOM     22  O   UNL     1       4.888   3.002  19.524  0.00  0.00    +0.000 OA
ATOM     23  H   UNL     1       0.395   1.991  22.325  0.00  0.00    +0.000 HD
ATOM     24  H   UNL     1       2.013   1.890  22.855  0.00  0.00    +0.000 HD
ENDBRANCH  14  15
ENDBRANCH   1  14
TORSDOF 10
ENDMDL
MODEL 4
REMARK VINA RESULT:      -6.3      1.652      2.837
REMARK  Name = 
REMARK  11 active torsions:
REMARK  status: ('A' for Active; 'I' for Inactive)
REMARK    1  A    between atoms: C_1  and  C_2
REMARK    2  A    between atoms: C_2  and  O_3
REMARK    3  A    between atoms: O_3  and  P_4
REMARK    4  A    between atoms: P_4  and  O_6
REMARK    5  A    between atoms: P_4  and  C_7
REMARK    6  A    between atoms: C_7  and  O_8
REMARK    7  A    between atoms: O_8  and  C_9
REMARK    8  A    between atoms: C_9  and  C_10
REMARK    9  A    between atoms: C_9  and  C_12
REMARK   10  A    between atoms: C_10  and  O_11
REMARK   11  A    between atoms: C_12  and  N_13
REMARK                            x       y       z     vdW  Elec       q    Type
REMARK                         _______ _______ _______ _____ _____    ______ ____
ROOT
ATOM      1  C   UNL     1       3.955   5.333  17.380  0.00  0.00    +0.000 C 
ENDROOT
BRANCH   1   2
ATOM      2  O   UNL     1       5.296   5.855  17.045  0.00  0.00    +0.000 OA
BRANCH   2   3
ATOM      3  C   UNL     1       5.533   5.926  15.619  0.00  0.00    +0.000 C 
BRANCH   3   4
ATOM      4  P   UNL     1       6.791   4.790  14.974  0.00  0.00    +0.000 P 
ATOM      5  O   UNL     1       7.626   4.226  16.091  0.00  0.00    +0.000 OA
BRANCH   4   6
ATOM      6  O   UNL     1       7.778   5.607  14.003  0.00  0.00    +0.000 OA
ATOM      7  H   UNL     1       8.016   6.454  14.430  0.00  0.00    +0.000 HD
ENDBRANCH   4   6
BRANCH   4   8
ATOM      8  O   UNL     1       6.221   3.582  14.069  0.00  0.00    +0.000 OA
BRANCH   8  10
ATOM      9  C   UNL     1       4.938   3.443  12.003  0.00  0.00    +0.000 C 
ATOM     10  C   UNL     1       6.322   3.419  12.667  0.00  0.00    +0.000 C 
ENDBRANCH   8  10
ENDBRANCH   4   8
ENDBRANCH   3   4
ENDBRANCH   2   3
ENDBRANCH   1   2
BRANCH   1  11
ATOM     11  C   UNL     1       3.541   6.009  18.702  0.00  0.00    +0.000 C 
BRANCH  11  12
ATOM     12  O   UNL     1       2.703   7.134  18.436  0.00  0.00    +0.000 OA
ATOM     13  H   UNL     1       3.190   7.906  18.782  0.00  0.00    +0.000 HD
ENDBRANCH  11  12
ENDBRANCH   1  11
BRANCH   1  14
ATOM     14  C   UNL     1       3.944   3.790  17.567  0.00  0.00    +0.000 C 
BRANCH  14  15
ATOM     15  N   UNL     1       3.127   3.220  18.660  0.00  0.00    +0.000 N 
ATOM     16  C   UNL     1       1.751   3.298  18.609  0.00  0.00    +0.000 A 
ATOM     17  C   UNL     1       0.998   3.038  19.680  0.00  0.00    +0.000 A 
ATOM     18  C   UNL     1       1.729   2.737  20.927  0.00  0.00    +0.000 A 
ATOM     19  N   UNL     1       1.046   2.617  22.109  0.00  0.00    +0.000 N 
ATOM     20  N   UNL     1       3.016   2.602  20.968  0.00  0.00    +0.000 NA
ATOM     21  C   UNL     1       3.762   2.811  19.831  0.00  0.00    +0.000 A 
ATOM     22  O   UNL     1       4.986   2.708  19.866  0.00  0.00    +0.000 OA
ATOM     23  H   UNL     1       0.100   2.259  22.096  0.00  0.00    +0.000 HD
ATOM     24  H   UNL     1       1.617   2.270  22.875  0.00  0.00    +0.000 HD
ENDBRANCH  14  15
ENDBRANCH   1  14
TORSDOF 10
ENDMDL
MODEL 5
REMARK VINA RESULT:      -6.3      1.991      3.130
REMARK  Name = 
REMARK  11 active torsions:
REMARK  status: ('A' for Active; 'I' for Inactive)
REMARK    1  A    between atoms: C_1  and  C_2
REMARK    2  A    between atoms: C_2  and  O_3
REMARK    3  A    between atoms: O_3  and  P_4
REMARK    4  A    between atoms: P_4  and  O_6
REMARK    5  A    between atoms: P_4  and  C_7
REMARK    6  A    between atoms: C_7  and  O_8
REMARK    7  A    between atoms: O_8  and  C_9
REMARK    8  A    between atoms: C_9  and  C_10
REMARK    9  A    between atoms: C_9  and  C_12
REMARK   10  A    between atoms: C_10  and  O_11
REMARK   11  A    between atoms: C_12  and  N_13
REMARK                            x       y       z     vdW  Elec       q    Type
REMARK                         _______ _______ _______ _____ _____    ______ ____
ROOT
ATOM      1  C   UNL     1       5.144   5.815  18.120  0.00  0.00    +0.000 C 
ENDROOT
BRANCH   1   2
ATOM      2  O   UNL     1       5.594   6.440  16.859  0.00  0.00    +0.000 OA
BRANCH   2   3
ATOM      3  C   UNL     1       5.286   5.639  15.692  0.00  0.00    +0.000 C 
BRANCH   3   4
ATOM      4  P   UNL     1       6.690   4.769  14.944  0.00  0.00    +0.000 P 
ATOM      5  O   UNL     1       7.643   4.282  16.001  0.00  0.00    +0.000 OA
BRANCH   4   6
ATOM      6  O   UNL     1       7.497   5.796  14.007  0.00  0.00    +0.000 OA
ATOM      7  H   UNL     1       6.880   6.482  13.681  0.00  0.00    +0.000 HD
ENDBRANCH   4   6
BRANCH   4   8
ATOM      8  O   UNL     1       6.294   3.543  13.973  0.00  0.00    +0.000 OA
BRANCH   8  10
ATOM      9  C   UNL     1       4.780   3.719  12.074  0.00  0.00    +0.000 C 
ATOM     10  C   UNL     1       6.225   3.536  12.559  0.00  0.00    +0.000 C 
ENDBRANCH   8  10
ENDBRANCH   4   8
ENDBRANCH   3   4
ENDBRANCH   2   3
ENDBRANCH   1   2
BRANCH   1  11
ATOM     11  C   UNL     1       6.418   5.392  18.876  0.00  0.00    +0.000 C 
BRANCH  11  12
ATOM     12  O   UNL     1       6.693   4.011  18.637  0.00  0.00    +0.000 OA
ATOM     13  H   UNL     1       5.924   3.677  18.138  0.00  0.00    +0.000 HD
ENDBRANCH  11  12
ENDBRANCH   1  11
BRANCH   1  14
ATOM     14  C   UNL     1       4.250   4.566  17.882  0.00  0.00    +0.000 C 
BRANCH  14  15
ATOM     15  N   UNL     1       3.201   4.253  18.876  0.00  0.00    +0.000 N 
ATOM     16  C   UNL     1       3.039   5.051  19.988  0.00  0.00    +0.000 A 
ATOM     17  C   UNL     1       2.295   4.661  21.025  0.00  0.00    +0.000 A 
ATOM     18  C   UNL     1       1.724   3.302  20.936  0.00  0.00    +0.000 A 
ATOM     19  N   UNL     1       1.083   2.755  22.017  0.00  0.00    +0.000 N 
ATOM     20  N   UNL     1       1.820   2.572  19.870  0.00  0.00    +0.000 NA
ATOM     21  C   UNL     1       2.539   3.029  18.790  0.00  0.00    +0.000 A 
ATOM     22  O   UNL     1       2.655   2.333  17.784  0.00  0.00    +0.000 OA
ATOM     23  H   UNL     1       0.585   3.365  22.653  0.00  0.00    +0.000 HD
ATOM     24  H   UNL     1       0.605   1.883  21.809  0.00  0.00    +0.000 HD
ENDBRANCH  14  15
ENDBRANCH   1  14
TORSDOF 10
ENDMDL
MODEL 6
REMARK VINA RESULT:      -6.3      1.555      1.887
REMARK  Name = 
REMARK  11 active torsions:
REMARK  status: ('A' for Active; 'I' for Inactive)
REMARK    1  A    between atoms: C_1  and  C_2
REMARK    2  A    between atoms: C_2  and  O_3
REMARK    3  A    between atoms: O_3  and  P_4
REMARK    4  A    between atoms: P_4  and  O_6
REMARK    5  A    between atoms: P_4  and  C_7
REMARK    6  A    between atoms: C_7  and  O_8
REMARK    7  A    between atoms: O_8  and  C_9
REMARK    8  A    between atoms: C_9  and  C_10
REMARK    9  A    between atoms: C_9  and  C_12
REMARK   10  A    between atoms: C_10  and  O_11
REMARK   11  A    between atoms: C_12  and  N_13
REMARK                            x       y       z     vdW  Elec       q    Type
REMARK                         _______ _______ _______ _____ _____    ______ ____
ROOT
ATOM      1  C   UNL     1       4.237   4.739  17.460  0.00  0.00    +0.000 C 
ENDROOT
BRANCH   1   2
ATOM      2  O   UNL     1       4.428   4.394  16.036  0.00  0.00    +0.000 OA
BRANCH   2   3
ATOM      3  C   UNL     1       5.210   5.378  15.317  0.00  0.00    +0.000 C 
BRANCH   3   4
ATOM      4  P   UNL     1       7.006   5.278  15.552  0.00  0.00    +0.000 P 
ATOM      5  O   UNL     1       7.715   5.202  14.227  0.00  0.00    +0.000 OA
BRANCH   4   6
ATOM      6  O   UNL     1       7.349   3.931  16.358  0.00  0.00    +0.000 OA
ATOM      7  H   UNL     1       8.231   3.610  16.081  0.00  0.00    +0.000 HD
ENDBRANCH   4   6
BRANCH   4   8
ATOM      8  O   UNL     1       7.646   6.467  16.435  0.00  0.00    +0.000 OA
BRANCH   8  10
ATOM      9  C   UNL     1       7.960   6.396  18.849  0.00  0.00    +0.000 C 
ATOM     10  C   UNL     1       7.181   6.987  17.666  0.00  0.00    +0.000 C 
ENDBRANCH   8  10
ENDBRANCH   4   8
ENDBRANCH   3   4
ENDBRANCH   2   3
ENDBRANCH   1   2
BRANCH   1  11
ATOM     11  C   UNL     1       4.625   3.486  18.268  0.00  0.00    +0.000 C 
BRANCH  11  12
ATOM     12  O   UNL     1       5.861   3.707  18.950  0.00  0.00    +0.000 OA
ATOM     13  H   UNL     1       6.495   3.968  18.256  0.00  0.00    +0.000 HD
ENDBRANCH  11  12
ENDBRANCH   1  11
BRANCH   1  14
ATOM     14  C   UNL     1       2.768   5.127  17.789  0.00  0.00    +0.000 C 
BRANCH  14  15
ATOM     15  N   UNL     1       2.159   4.590  19.025  0.00  0.00    +0.000 N 
ATOM     16  C   UNL     1       2.537   5.085  20.255  0.00  0.00    +0.000 A 
ATOM     17  C   UNL     1       2.214   4.458  21.388  0.00  0.00    +0.000 A 
ATOM     18  C   UNL     1       1.499   3.175  21.236  0.00  0.00    +0.000 A 
ATOM     19  N   UNL     1       1.270   2.384  22.331  0.00  0.00    +0.000 N 
ATOM     20  N   UNL     1       1.087   2.736  20.089  0.00  0.00    +0.000 NA
ATOM     21  C   UNL     1       1.378   3.440  18.943  0.00  0.00    +0.000 A 
ATOM     22  O   UNL     1       1.011   3.018  17.849  0.00  0.00    +0.000 OA
ATOM     23  H   UNL     1       1.133   2.822  23.233  0.00  0.00    +0.000 HD
ATOM     24  H   UNL     1       0.650   1.601  22.145  0.00  0.00    +0.000 HD
ENDBRANCH  14  15
ENDBRANCH   1  14
TORSDOF 10
ENDMDL
MODEL 7
REMARK VINA RESULT:      -6.3      1.989      3.561
REMARK  Name = 
REMARK  11 active torsions:
REMARK  status: ('A' for Active; 'I' for Inactive)
REMARK    1  A    between atoms: C_1  and  C_2
REMARK    2  A    between atoms: C_2  and  O_3
REMARK    3  A    between atoms: O_3  and  P_4
REMARK    4  A    between atoms: P_4  and  O_6
REMARK    5  A    between atoms: P_4  and  C_7
REMARK    6  A    between atoms: C_7  and  O_8
REMARK    7  A    between atoms: O_8  and  C_9
REMARK    8  A    between atoms: C_9  and  C_10
REMARK    9  A    between atoms: C_9  and  C_12
REMARK   10  A    between atoms: C_10  and  O_11
REMARK   11  A    between atoms: C_12  and  N_13
REMARK                            x       y       z     vdW  Elec       q    Type
REMARK                         _______ _______ _______ _____ _____    ______ ____
ROOT
ATOM      1  C   UNL     1       6.547   5.525  18.509  0.00  0.00    +0.000 C 
ENDROOT
BRANCH   1   2
ATOM      2  O   UNL     1       6.891   4.356  17.674  0.00  0.00    +0.000 OA
BRANCH   2   3
ATOM      3  C   UNL     1       7.366   4.725  16.356  0.00  0.00    +0.000 C 
BRANCH   3   4
ATOM      4  P   UNL     1       6.097   4.828  15.064  0.00  0.00    +0.000 P 
ATOM      5  O   UNL     1       5.466   6.193  15.043  0.00  0.00    +0.000 OA
BRANCH   4   6
ATOM      6  O   UNL     1       4.935   3.767  15.394  0.00  0.00    +0.000 OA
ATOM      7  H   UNL     1       4.311   3.734  14.641  0.00  0.00    +0.000 HD
ENDBRANCH   4   6
BRANCH   4   8
ATOM      8  O   UNL     1       6.601   4.446  13.580  0.00  0.00    +0.000 OA
BRANCH   8  10
ATOM      9  C   UNL     1       4.930   3.645  12.000  0.00  0.00    +0.000 C 
ATOM     10  C   UNL     1       6.215   3.342  12.784  0.00  0.00    +0.000 C 
ENDBRANCH   8  10
ENDBRANCH   4   8
ENDBRANCH   3   4
ENDBRANCH   2   3
ENDBRANCH   1   2
BRANCH   1  11
ATOM     11  C   UNL     1       7.768   5.793  19.410  0.00  0.00    +0.000 C 
BRANCH  11  12
ATOM     12  O   UNL     1       8.444   6.975  18.978  0.00  0.00    +0.000 OA
ATOM     13  H   UNL     1       9.393   6.798  19.125  0.00  0.00    +0.000 HD
ENDBRANCH  11  12
ENDBRANCH   1  11
BRANCH   1  14
ATOM     14  C   UNL     1       5.297   5.275  19.400  0.00  0.00    +0.000 C 
BRANCH  14  15
ATOM     15  N   UNL     1       4.256   4.348  18.907  0.00  0.00    +0.000 N 
ATOM     16  C   UNL     1       3.221   4.820  18.128  0.00  0.00    +0.000 A 
ATOM     17  C   UNL     1       2.136   4.081  17.888  0.00  0.00    +0.000 A 
ATOM     18  C   UNL     1       2.084   2.769  18.563  0.00  0.00    +0.000 A 
ATOM     19  N   UNL     1       0.943   2.013  18.505  0.00  0.00    +0.000 N 
ATOM     20  N   UNL     1       3.078   2.294  19.244  0.00  0.00    +0.000 NA
ATOM     21  C   UNL     1       4.212   3.053  19.420  0.00  0.00    +0.000 A 
ATOM     22  O   UNL     1       5.150   2.620  20.084  0.00  0.00    +0.000 OA
ATOM     23  H   UNL     1       0.356   2.070  17.683  0.00  0.00    +0.000 HD
ATOM     24  H   UNL     1       1.058   1.074  18.876  0.00  0.00    +0.000 HD
ENDBRANCH  14  15
ENDBRANCH   1  14
TORSDOF 10
ENDMDL
MODEL 8
REMARK VINA RESULT:      -6.2      2.208      3.723
REMARK  Name = 
REMARK  11 active torsions:
REMARK  status: ('A' for Active; 'I' for Inactive)
REMARK    1  A    between atoms: C_1  and  C_2
REMARK    2  A    between atoms: C_2  and  O_3
REMARK    3  A    between atoms: O_3  and  P_4
REMARK    4  A    between atoms: P_4  and  O_6
REMARK    5  A    between atoms: P_4  and  C_7
REMARK    6  A    between atoms: C_7  and  O_8
REMARK    7  A    between atoms: O_8  and  C_9
REMARK    8  A    between atoms: C_9  and  C_10
REMARK    9  A    between atoms: C_9  and  C_12
REMARK   10  A    between atoms: C_10  and  O_11
REMARK   11  A    between atoms: C_12  and  N_13
REMARK                            x       y       z     vdW  Elec       q    Type
REMARK                         _______ _______ _______ _____ _____    ______ ____
ROOT
ATOM      1  C   UNL     1       6.010   5.584  18.331  0.00  0.00    +0.000 C 
ENDROOT
BRANCH   1   2
ATOM      2  O   UNL     1       5.947   4.412  17.434  0.00  0.00    +0.000 OA
BRANCH   2   3
ATOM      3  C   UNL     1       7.034   4.374  16.479  0.00  0.00    +0.000 C 
BRANCH   3   4
ATOM      4  P   UNL     1       6.616   4.891  14.791  0.00  0.00    +0.000 P 
ATOM      5  O   UNL     1       7.820   5.462  14.093  0.00  0.00    +0.000 OA
BRANCH   4   6
ATOM      6  O   UNL     1       5.508   6.053  14.865  0.00  0.00    +0.000 OA
ATOM      7  H   UNL     1       5.638   6.565  15.689  0.00  0.00    +0.000 HD
ENDBRANCH   4   6
BRANCH   4   8
ATOM      8  O   UNL     1       5.956   3.743  13.869  0.00  0.00    +0.000 OA
BRANCH   8  10
ATOM      9  C   UNL     1       4.908   3.204  11.738  0.00  0.00    +0.000 C 
ATOM     10  C   UNL     1       6.212   3.464  12.505  0.00  0.00    +0.000 C 
ENDBRANCH   8  10
ENDBRANCH   4   8
ENDBRANCH   3   4
ENDBRANCH   2   3
ENDBRANCH   1   2
BRANCH   1  11
ATOM     11  C   UNL     1       7.484   5.728  18.758  0.00  0.00    +0.000 C 
BRANCH  11  12
ATOM     12  O   UNL     1       7.616   5.471  20.157  0.00  0.00    +0.000 OA
ATOM     13  H   UNL     1       6.959   4.777  20.355  0.00  0.00    +0.000 HD
ENDBRANCH  11  12
ENDBRANCH   1  11
BRANCH   1  14
ATOM     14  C   UNL     1       5.124   5.416  19.598  0.00  0.00    +0.000 C 
BRANCH  14  15
ATOM     15  N   UNL     1       4.011   4.443  19.553  0.00  0.00    +0.000 N 
ATOM     16  C   UNL     1       4.262   3.096  19.700  0.00  0.00    +0.000 A 
ATOM     17  C   UNL     1       3.339   2.178  19.407  0.00  0.00    +0.000 A 
ATOM     18  C   UNL     1       2.071   2.691  18.850  0.00  0.00    +0.000 A 
ATOM     19  N   UNL     1       1.130   1.818  18.370  0.00  0.00    +0.000 N 
ATOM     20  N   UNL     1       1.806   3.956  18.767  0.00  0.00    +0.000 NA
ATOM     21  C   UNL     1       2.754   4.881  19.140  0.00  0.00    +0.000 A 
ATOM     22  O   UNL     1       2.519   6.082  19.043  0.00  0.00    +0.000 OA
ATOM     23  H   UNL     1       1.047   0.903  18.794  0.00  0.00    +0.000 HD
ATOM     24  H   UNL     1       0.243   2.260  18.145  0.00  0.00    +0.000 HD
ENDBRANCH  14  15
ENDBRANCH   1  14
TORSDOF 10
ENDMDL
MODEL 9
REMARK VINA RESULT:      -6.2      1.880      3.319
REMARK  Name = 
REMARK  11 active torsions:
REMARK  status: ('A' for Active; 'I' for Inactive)
REMARK    1  A    between atoms: C_1  and  C_2
REMARK    2  A    between atoms: C_2  and  O_3
REMARK    3  A    between atoms: O_3  and  P_4
REMARK    4  A    between atoms: P_4  and  O_6
REMARK    5  A    between atoms: P_4  and  C_7
REMARK    6  A    between atoms: C_7  and  O_8
REMARK    7  A    between atoms: O_8  and  C_9
REMARK    8  A    between atoms: C_9  and  C_10
REMARK    9  A    between atoms: C_9  and  C_12
REMARK   10  A    between atoms: C_10  and  O_11
REMARK   11  A    between atoms: C_12  and  N_13
REMARK                            x       y       z     vdW  Elec       q    Type
REMARK                         _______ _______ _______ _____ _____    ______ ____
ROOT
ATOM      1  C   UNL     1       6.127   5.392  18.531  0.00  0.00    +0.000 C 
ENDROOT
BRANCH   1   2
ATOM      2  O   UNL     1       6.562   4.184  17.801  0.00  0.00    +0.000 OA
BRANCH   2   3
ATOM      3  C   UNL     1       5.951   4.064  16.494  0.00  0.00    +0.000 C 
BRANCH   3   4
ATOM      4  P   UNL     1       6.450   5.312  15.276  0.00  0.00    +0.000 P 
ATOM      5  O   UNL     1       7.713   6.006  15.709  0.00  0.00    +0.000 OA
BRANCH   4   6
ATOM      6  O   UNL     1       5.299   6.429  15.177  0.00  0.00    +0.000 OA
ATOM      7  H   UNL     1       4.755   6.257  14.381  0.00  0.00    +0.000 HD
ENDBRANCH   4   6
BRANCH   4   8
ATOM      8  O   UNL     1       6.629   4.763  13.770  0.00  0.00    +0.000 OA
BRANCH   8  10
ATOM      9  C   UNL     1       6.693   3.264  11.851  0.00  0.00    +0.000 C 
ATOM     10  C   UNL     1       6.001   3.647  13.167  0.00  0.00    +0.000 C 
ENDBRANCH   8  10
ENDBRANCH   4   8
ENDBRANCH   3   4
ENDBRANCH   2   3
ENDBRANCH   1   2
BRANCH   1  11
ATOM     11  C   UNL     1       7.327   5.841  19.387  0.00  0.00    +0.000 C 
BRANCH  11  12
ATOM     12  O   UNL     1       8.114   6.791  18.666  0.00  0.00    +0.000 OA
ATOM     13  H   UNL     1       8.961   6.341  18.486  0.00  0.00    +0.000 HD
ENDBRANCH  11  12
ENDBRANCH   1  11
BRANCH   1  14
ATOM     14  C   UNL     1       4.909   5.123  19.459  0.00  0.00    +0.000 C 
BRANCH  14  15
ATOM     15  N   UNL     1       3.848   4.211  18.980  0.00  0.00    +0.000 N 
ATOM     16  C   UNL     1       2.771   4.708  18.278  0.00  0.00    +0.000 A 
ATOM     17  C   UNL     1       1.679   3.972  18.062  0.00  0.00    +0.000 A 
ATOM     18  C   UNL     1       1.670   2.631  18.681  0.00  0.00    +0.000 A 
ATOM     19  N   UNL     1       0.531   1.870  18.649  0.00  0.00    +0.000 N 
ATOM     20  N   UNL     1       2.701   2.135  19.288  0.00  0.00    +0.000 NA
ATOM     21  C   UNL     1       3.838   2.894  19.438  0.00  0.00    +0.000 A 
ATOM     22  O   UNL     1       4.812   2.440  20.033  0.00  0.00    +0.000 OA
ATOM     23  H   UNL     1      -0.098   1.958  17.862  0.00  0.00    +0.000 HD
ATOM     24  H   UNL     1       0.671   0.916  18.972  0.00  0.00    +0.000 HD
ENDBRANCH  14  15
ENDBRANCH   1  14
TORSDOF 10
ENDMDL
