MODEL 1
REMARK VINA RESULT:      -7.3      0.000      0.000
REMARK  Name = 
REMARK  2 active torsions:
REMARK  status: ('A' for Active; 'I' for Inactive)
REMARK    1  A    between atoms: C_1  and  N_2
REMARK    2  A    between atoms: C_10  and  N_11
REMARK                            x       y       z     vdW  Elec       q    Type
REMARK                         _______ _______ _______ _____ _____    ______ ____
ROOT
ATOM      1  C   UNL     1      -1.041  11.799  19.617  0.00  0.00    +0.000 C 
ATOM      2  N   UNL     1       0.100  10.898  19.849  0.00  0.00    +0.000 NA
ATOM      3  C   UNL     1       0.772  10.546  18.580  0.00  0.00    +0.000 C 
ATOM      4  C   UNL     1       2.023   9.701  18.879  0.00  0.00    +0.000 C 
ATOM      5  N   UNL     1       1.647   8.536  19.662  0.00  0.00    +0.000 N 
ATOM      6  C   UNL     1       2.067   7.199  19.321  0.00  0.00    +0.000 A 
ATOM      7  N   UNL     1       1.617   6.155  20.050  0.00  0.00    +0.000 NA
ATOM      8  C   UNL     1       2.040   4.883  19.853  0.00  0.00    +0.000 A 
ATOM      9  C   UNL     1       2.993   4.605  18.848  0.00  0.00    +0.000 A 
ATOM     10  C   UNL     1       3.453   5.710  18.037  0.00  0.00    +0.000 A 
ATOM     11  N   UNL     1       2.975   6.962  18.332  0.00  0.00    +0.000 NA
ATOM     12  C   UNL     1       3.503   3.171  18.744  0.00  0.00    +0.000 C 
ATOM     13  C   UNL     1       4.235   2.675  19.995  0.00  0.00    +0.000 C 
ATOM     14  N   UNL     1       3.323   2.187  21.026  0.00  0.00    +0.000 NA
ATOM     15  C   UNL     1       2.528   3.216  21.693  0.00  0.00    +0.000 C 
ATOM     16  C   UNL     1       1.472   3.835  20.773  0.00  0.00    +0.000 C 
ATOM     17  C   UNL     1       0.891   8.813  20.880  0.00  0.00    +0.000 C 
ATOM     18  C   UNL     1      -0.335   9.674  20.551  0.00  0.00    +0.000 C 
ATOM     19  H   UNL     1       3.910   1.719  21.757  0.00  0.00    +0.000 HD
ENDROOT
BRANCH  10  20
ATOM     20  N   UNL     1       4.423   5.596  16.958  0.00  0.00    +0.000 N 
ATOM     21  C   UNL     1       5.401   6.657  16.738  0.00  0.00    +0.000 C 
ATOM     22  C   UNL     1       6.823   6.093  16.854  0.00  0.00    +0.000 C 
ATOM     23  S   UNL     1       7.158   4.835  15.572  0.00  0.00    +0.000 S 
ATOM     24  C   UNL     1       5.784   3.751  16.063  0.00  0.00    +0.000 C 
ATOM     25  C   UNL     1       4.447   4.510  15.979  0.00  0.00    +0.000 C 
ENDBRANCH  10  20
TORSDOF 1
ENDMDL
MODEL 2
REMARK VINA RESULT:      -7.0      0.924      1.362
REMARK  Name = 
REMARK  2 active torsions:
REMARK  status: ('A' for Active; 'I' for Inactive)
REMARK    1  A    between atoms: C_1  and  N_2
REMARK    2  A    between atoms: C_10  and  N_11
REMARK                            x       y       z     vdW  Elec       q    Type
REMARK                         _______ _______ _______ _____ _____    ______ ____
ROOT
ATOM      1  C   UNL     1      -0.254  11.482  18.443  0.00  0.00    +0.000 C 
ATOM      2  N   UNL     1       0.758  10.549  18.963  0.00  0.00    +0.000 NA
ATOM      3  C   UNL     1       1.573   9.977  17.869  0.00  0.00    +0.000 C 
ATOM      4  C   UNL     1       2.689   9.100  18.465  0.00  0.00    +0.000 C 
ATOM      5  N   UNL     1       2.104   8.085  19.324  0.00  0.00    +0.000 N 
ATOM      6  C   UNL     1       2.449   6.689  19.228  0.00  0.00    +0.000 A 
ATOM      7  N   UNL     1       1.810   5.790  20.008  0.00  0.00    +0.000 NA
ATOM      8  C   UNL     1       2.143   4.477  20.045  0.00  0.00    +0.000 A 
ATOM      9  C   UNL     1       3.203   3.997  19.243  0.00  0.00    +0.000 A 
ATOM     10  C   UNL     1       3.871   4.943  18.377  0.00  0.00    +0.000 A 
ATOM     11  N   UNL     1       3.466   6.254  18.431  0.00  0.00    +0.000 NA
ATOM     12  C   UNL     1       3.595   2.532  19.406  0.00  0.00    +0.000 C 
ATOM     13  C   UNL     1       4.093   2.168  20.808  0.00  0.00    +0.000 C 
ATOM     14  N   UNL     1       3.003   1.893  21.740  0.00  0.00    +0.000 NA
ATOM     15  C   UNL     1       2.213   3.057  22.137  0.00  0.00    +0.000 C 
ATOM     16  C   UNL     1       1.359   3.610  20.993  0.00  0.00    +0.000 C 
ATOM     17  C   UNL     1       1.207   8.581  20.364  0.00  0.00    +0.000 C 
ATOM     18  C   UNL     1       0.121   9.468  19.741  0.00  0.00    +0.000 C 
ATOM     19  H   UNL     1       3.435   1.495  22.608  0.00  0.00    +0.000 HD
ENDROOT
BRANCH  10  20
ATOM     20  N   UNL     1       4.971   4.613  17.485  0.00  0.00    +0.000 N 
ATOM     21  C   UNL     1       4.708   3.932  16.220  0.00  0.00    +0.000 C 
ATOM     22  C   UNL     1       5.213   4.786  15.049  0.00  0.00    +0.000 C 
ATOM     23  S   UNL     1       7.023   5.024  15.118  0.00  0.00    +0.000 S 
ATOM     24  C   UNL     1       7.012   5.788  16.768  0.00  0.00    +0.000 C 
ATOM     25  C   UNL     1       6.383   4.830  17.796  0.00  0.00    +0.000 C 
ENDBRANCH  10  20
TORSDOF 1
ENDMDL
MODEL 3
REMARK VINA RESULT:      -6.5      0.603      1.130
REMARK  Name = 
REMARK  2 active torsions:
REMARK  status: ('A' for Active; 'I' for Inactive)
REMARK    1  A    between atoms: C_1  and  N_2
REMARK    2  A    between atoms: C_10  and  N_11
REMARK                            x       y       z     vdW  Elec       q    Type
REMARK                         _______ _______ _______ _____ _____    ______ ____
ROOT
ATOM      1  C   UNL     1      -0.925  11.751  19.063  0.00  0.00    +0.000 C 
ATOM      2  N   UNL     1       0.164  10.861  19.497  0.00  0.00    +0.000 NA
ATOM      3  C   UNL     1       1.033  10.482  18.361  0.00  0.00    +0.000 C 
ATOM      4  C   UNL     1       2.220   9.650  18.879  0.00  0.00    +0.000 C 
ATOM      5  N   UNL     1       1.724   8.502  19.619  0.00  0.00    +0.000 N 
ATOM      6  C   UNL     1       2.193   7.160  19.382  0.00  0.00    +0.000 A 
ATOM      7  N   UNL     1       1.633   6.131  20.055  0.00  0.00    +0.000 NA
ATOM      8  C   UNL     1       2.083   4.857  19.959  0.00  0.00    +0.000 A 
ATOM      9  C   UNL     1       3.185   4.559  19.127  0.00  0.00    +0.000 A 
ATOM     10  C   UNL     1       3.770   5.647  18.375  0.00  0.00    +0.000 A 
ATOM     11  N   UNL     1       3.249   6.904  18.559  0.00  0.00    +0.000 NA
ATOM     12  C   UNL     1       3.706   3.126  19.142  0.00  0.00    +0.000 C 
ATOM     13  C   UNL     1       4.228   2.662  20.505  0.00  0.00    +0.000 C 
ATOM     14  N   UNL     1       3.163   2.195  21.388  0.00  0.00    +0.000 NA
ATOM     15  C   UNL     1       2.270   3.236  21.893  0.00  0.00    +0.000 C 
ATOM     16  C   UNL     1       1.376   3.829  20.801  0.00  0.00    +0.000 C 
ATOM     17  C   UNL     1       0.781   8.805  20.692  0.00  0.00    +0.000 C 
ATOM     18  C   UNL     1      -0.377   9.652  20.149  0.00  0.00    +0.000 C 
ATOM     19  H   UNL     1       3.624   1.747  22.215  0.00  0.00    +0.000 HD
ENDROOT
BRANCH  10  20
ATOM     20  N   UNL     1       4.900   5.511  17.468  0.00  0.00    +0.000 N 
ATOM     21  C   UNL     1       5.661   4.266  17.431  0.00  0.00    +0.000 C 
ATOM     22  C   UNL     1       5.623   3.669  16.018  0.00  0.00    +0.000 C 
ATOM     23  S   UNL     1       6.415   4.772  14.797  0.00  0.00    +0.000 S 
ATOM     24  C   UNL     1       5.323   6.184  15.139  0.00  0.00    +0.000 C 
ATOM     25  C   UNL     1       5.417   6.585  16.623  0.00  0.00    +0.000 C 
ENDBRANCH  10  20
TORSDOF 1
ENDMDL
MODEL 4
REMARK VINA RESULT:      -6.2      2.205      4.383
REMARK  Name = 
REMARK  2 active torsions:
REMARK  status: ('A' for Active; 'I' for Inactive)
REMARK    1  A    between atoms: C_1  and  N_2
REMARK    2  A    between atoms: C_10  and  N_11
REMARK                            x       y       z     vdW  Elec       q    Type
REMARK                         _______ _______ _______ _____ _____    ______ ____
ROOT
ATOM      1  C   UNL     1       0.854  13.248  20.157  0.00  0.00    +0.000 C 
ATOM      2  N   UNL     1       0.827  11.977  19.415  0.00  0.00    +0.000 NA
ATOM      3  C   UNL     1       0.616  10.830  20.324  0.00  0.00    +0.000 C 
ATOM      4  C   UNL     1       0.479   9.539  19.496  0.00  0.00    +0.000 C 
ATOM      5  N   UNL     1       1.647   9.379  18.647  0.00  0.00    +0.000 N 
ATOM      6  C   UNL     1       2.392   8.148  18.569  0.00  0.00    +0.000 A 
ATOM      7  N   UNL     1       3.512   8.094  17.816  0.00  0.00    +0.000 NA
ATOM      8  C   UNL     1       4.212   6.951  17.616  0.00  0.00    +0.000 A 
ATOM      9  C   UNL     1       3.775   5.745  18.209  0.00  0.00    +0.000 A 
ATOM     10  C   UNL     1       2.598   5.798  19.047  0.00  0.00    +0.000 A 
ATOM     11  N   UNL     1       1.954   7.004  19.168  0.00  0.00    +0.000 NA
ATOM     12  C   UNL     1       4.547   4.476  17.863  0.00  0.00    +0.000 C 
ATOM     13  C   UNL     1       4.514   4.107  16.377  0.00  0.00    +0.000 C 
ATOM     14  N   UNL     1       5.513   4.828  15.594  0.00  0.00    +0.000 NA
ATOM     15  C   UNL     1       5.258   6.256  15.420  0.00  0.00    +0.000 C 
ATOM     16  C   UNL     1       5.418   7.048  16.720  0.00  0.00    +0.000 C 
ATOM     17  C   UNL     1       1.968  10.523  17.797  0.00  0.00    +0.000 C 
ATOM     18  C   UNL     1       2.075  11.794  18.647  0.00  0.00    +0.000 C 
ATOM     19  H   UNL     1       5.529   4.392  14.641  0.00  0.00    +0.000 HD
ENDROOT
BRANCH  10  20
ATOM     20  N   UNL     1       2.022   4.653  19.736  0.00  0.00    +0.000 N 
ATOM     21  C   UNL     1       1.125   3.748  19.025  0.00  0.00    +0.000 C 
ATOM     22  C   UNL     1       1.693   2.322  19.045  0.00  0.00    +0.000 C 
ATOM     23  S   UNL     1       1.815   1.667  20.745  0.00  0.00    +0.000 S 
ATOM     24  C   UNL     1       2.890   3.005  21.345  0.00  0.00    +0.000 C 
ATOM     25  C   UNL     1       2.199   4.369  21.159  0.00  0.00    +0.000 C 
ENDBRANCH  10  20
TORSDOF 1
ENDMDL
MODEL 5
REMARK VINA RESULT:      -6.0      8.264     10.557
REMARK  Name = 
REMARK  2 active torsions:
REMARK  status: ('A' for Active; 'I' for Inactive)
REMARK    1  A    between atoms: C_1  and  N_2
REMARK    2  A    between atoms: C_10  and  N_11
REMARK                            x       y       z     vdW  Elec       q    Type
REMARK                         _______ _______ _______ _____ _____    ______ ____
ROOT
ATOM      1  C   UNL     1       4.126  14.289  21.292  0.00  0.00    +0.000 C 
ATOM      2  N   UNL     1       2.851  14.483  20.583  0.00  0.00    +0.000 NA
ATOM      3  C   UNL     1       1.715  14.534  21.529  0.00  0.00    +0.000 C 
ATOM      4  C   UNL     1       0.421  14.852  20.759  0.00  0.00    +0.000 C 
ATOM      5  N   UNL     1       0.231  13.874  19.700  0.00  0.00    +0.000 N 
ATOM      6  C   UNL     1      -1.015  13.180  19.494  0.00  0.00    +0.000 A 
ATOM      7  N   UNL     1      -1.097  12.229  18.538  0.00  0.00    +0.000 NA
ATOM      8  C   UNL     1      -2.254  11.602  18.220  0.00  0.00    +0.000 A 
ATOM      9  C   UNL     1      -3.447  11.936  18.900  0.00  0.00    +0.000 A 
ATOM     10  C   UNL     1      -3.364  12.928  19.949  0.00  0.00    +0.000 A 
ATOM     11  N   UNL     1      -2.145  13.515  20.179  0.00  0.00    +0.000 NA
ATOM     12  C   UNL     1      -4.734  11.269  18.425  0.00  0.00    +0.000 C 
ATOM     13  C   UNL     1      -5.113  11.597  16.978  0.00  0.00    +0.000 C 
ATOM     14  N   UNL     1      -4.418  10.755  16.008  0.00  0.00    +0.000 NA
ATOM     15  C   UNL     1      -2.987  11.014  15.870  0.00  0.00    +0.000 C 
ATOM     16  C   UNL     1      -2.188  10.591  17.107  0.00  0.00    +0.000 C 
ATOM     17  C   UNL     1       1.362  13.704  18.791  0.00  0.00    +0.000 C 
ATOM     18  C   UNL     1       2.638  13.411  19.591  0.00  0.00    +0.000 C 
ATOM     19  H   UNL     1      -4.862  10.933  15.075  0.00  0.00    +0.000 HD
ENDROOT
BRANCH  10  20
ATOM     20  N   UNL     1      -4.492  13.379  20.750  0.00  0.00    +0.000 N 
ATOM     21  C   UNL     1      -5.062  14.705  20.529  0.00  0.00    +0.000 C 
ATOM     22  C   UNL     1      -6.545  14.584  20.154  0.00  0.00    +0.000 C 
ATOM     23  S   UNL     1      -7.525  13.841  21.505  0.00  0.00    +0.000 S 
ATOM     24  C   UNL     1      -6.550  12.308  21.573  0.00  0.00    +0.000 C 
ATOM     25  C   UNL     1      -5.072  12.628  21.862  0.00  0.00    +0.000 C 
ENDBRANCH  10  20
TORSDOF 1
ENDMDL
MODEL 6
REMARK VINA RESULT:      -5.9      2.259      4.482
REMARK  Name = 
REMARK  2 active torsions:
REMARK  status: ('A' for Active; 'I' for Inactive)
REMARK    1  A    between atoms: C_1  and  N_2
REMARK    2  A    between atoms: C_10  and  N_11
REMARK                            x       y       z     vdW  Elec       q    Type
REMARK                         _______ _______ _______ _____ _____    ______ ____
ROOT
ATOM      1  C   UNL     1       0.646  12.588  20.330  0.00  0.00    +0.000 C 
ATOM      2  N   UNL     1       0.701  11.340  19.552  0.00  0.00    +0.000 NA
ATOM      3  C   UNL     1       0.710  10.155  20.438  0.00  0.00    +0.000 C 
ATOM      4  C   UNL     1       0.650   8.876  19.584  0.00  0.00    +0.000 C 
ATOM      5  N   UNL     1       1.746   8.876  18.630  0.00  0.00    +0.000 N 
ATOM      6  C   UNL     1       2.621   7.745  18.447  0.00  0.00    +0.000 A 
ATOM      7  N   UNL     1       3.666   7.843  17.596  0.00  0.00    +0.000 NA
ATOM      8  C   UNL     1       4.473   6.797  17.298  0.00  0.00    +0.000 A 
ATOM      9  C   UNL     1       4.238   5.535  17.887  0.00  0.00    +0.000 A 
ATOM     10  C   UNL     1       3.144   5.428  18.827  0.00  0.00    +0.000 A 
ATOM     11  N   UNL     1       2.376   6.544  19.044  0.00  0.00    +0.000 NA
ATOM     12  C   UNL     1       5.119   4.375  17.434  0.00  0.00    +0.000 C 
ATOM     13  C   UNL     1       4.993   4.037  15.945  0.00  0.00    +0.000 C 
ATOM     14  N   UNL     1       5.825   4.890  15.101  0.00  0.00    +0.000 NA
ATOM     15  C   UNL     1       5.388   6.281  14.996  0.00  0.00    +0.000 C 
ATOM     16  C   UNL     1       5.572   7.057  16.303  0.00  0.00    +0.000 C 
ATOM     17  C   UNL     1       1.851  10.068  17.793  0.00  0.00    +0.000 C 
ATOM     18  C   UNL     1       1.886  11.325  18.671  0.00  0.00    +0.000 C 
ATOM     19  H   UNL     1       5.804   4.480  14.136  0.00  0.00    +0.000 HD
ENDROOT
BRANCH  10  20
ATOM     20  N   UNL     1       2.773   4.207  19.527  0.00  0.00    +0.000 N 
ATOM     21  C   UNL     1       3.435   3.852  20.779  0.00  0.00    +0.000 C 
ATOM     22  C   UNL     1       2.400   3.732  21.906  0.00  0.00    +0.000 C 
ATOM     23  S   UNL     1       1.200   2.394  21.581  0.00  0.00    +0.000 S 
ATOM     24  C   UNL     1       0.636   3.079  19.994  0.00  0.00    +0.000 C 
ATOM     25  C   UNL     1       1.821   3.220  19.022  0.00  0.00    +0.000 C 
ENDBRANCH  10  20
TORSDOF 1
ENDMDL
MODEL 7
REMARK VINA RESULT:      -5.9      3.389      7.719
REMARK  Name = 
REMARK  2 active torsions:
REMARK  status: ('A' for Active; 'I' for Inactive)
REMARK    1  A    between atoms: C_1  and  N_2
REMARK    2  A    between atoms: C_10  and  N_11
REMARK                            x       y       z     vdW  Elec       q    Type
REMARK                         _______ _______ _______ _____ _____    ______ ____
ROOT
ATOM      1  C   UNL     1       5.083   4.843  17.804  0.00  0.00    +0.000 C 
ATOM      2  N   UNL     1       3.865   5.655  17.950  0.00  0.00    +0.000 NA
ATOM      3  C   UNL     1       4.083   7.039  17.474  0.00  0.00    +0.000 C 
ATOM      4  C   UNL     1       2.757   7.818  17.537  0.00  0.00    +0.000 C 
ATOM      5  N   UNL     1       2.223   7.762  18.887  0.00  0.00    +0.000 N 
ATOM      6  C   UNL     1       1.775   8.934  19.597  0.00  0.00    +0.000 A 
ATOM      7  N   UNL     1       1.361   8.818  20.878  0.00  0.00    +0.000 NA
ATOM      8  C   UNL     1       0.837   9.852  21.579  0.00  0.00    +0.000 A 
ATOM      9  C   UNL     1       0.704  11.120  20.971  0.00  0.00    +0.000 A 
ATOM     10  C   UNL     1       1.178  11.264  19.612  0.00  0.00    +0.000 A 
ATOM     11  N   UNL     1       1.675  10.148  18.987  0.00  0.00    +0.000 NA
ATOM     12  C   UNL     1       0.014  12.214  21.779  0.00  0.00    +0.000 C 
ATOM     13  C   UNL     1      -1.442  11.903  22.140  0.00  0.00    +0.000 C 
ATOM     14  N   UNL     1      -1.560  11.066  23.331  0.00  0.00    +0.000 NA
ATOM     15  C   UNL     1      -1.127   9.680  23.165  0.00  0.00    +0.000 C 
ATOM     16  C   UNL     1       0.388   9.553  22.984  0.00  0.00    +0.000 C 
ATOM     17  C   UNL     1       2.079   6.423  19.452  0.00  0.00    +0.000 C 
ATOM     18  C   UNL     1       3.410   5.667  19.354  0.00  0.00    +0.000 C 
ATOM     19  H   UNL     1      -2.575  11.050  23.594  0.00  0.00    +0.000 HD
ENDROOT
BRANCH  10  20
ATOM     20  N   UNL     1       1.123  12.500  18.845  0.00  0.00    +0.000 N 
ATOM     21  C   UNL     1      -0.165  13.048  18.432  0.00  0.00    +0.000 C 
ATOM     22  C   UNL     1      -0.343  14.461  19.003  0.00  0.00    +0.000 C 
ATOM     23  S   UNL     1       0.917  15.614  18.356  0.00  0.00    +0.000 S 
ATOM     24  C   UNL     1       2.332  14.641  18.954  0.00  0.00    +0.000 C 
ATOM     25  C   UNL     1       2.295  13.223  18.356  0.00  0.00    +0.000 C 
ENDBRANCH  10  20
TORSDOF 1
ENDMDL
MODEL 8
REMARK VINA RESULT:      -5.8      9.035     11.595
REMARK  Name = 
REMARK  2 active torsions:
REMARK  status: ('A' for Active; 'I' for Inactive)
REMARK    1  A    between atoms: C_1  and  N_2
REMARK    2  A    between atoms: C_10  and  N_11
REMARK                            x       y       z     vdW  Elec       q    Type
REMARK                         _______ _______ _______ _____ _____    ______ ____
ROOT
ATOM      1  C   UNL     1       3.294  14.120  20.794  0.00  0.00    +0.000 C 
ATOM      2  N   UNL     1       1.909  14.454  20.426  0.00  0.00    +0.000 NA
ATOM      3  C   UNL     1       1.035  14.508  21.618  0.00  0.00    +0.000 C 
ATOM      4  C   UNL     1      -0.372  14.972  21.202  0.00  0.00    +0.000 C 
ATOM      5  N   UNL     1      -0.887  14.094  20.164  0.00  0.00    +0.000 N 
ATOM      6  C   UNL     1      -2.201  13.505  20.222  0.00  0.00    +0.000 A 
ATOM      7  N   UNL     1      -2.585  12.638  19.260  0.00  0.00    +0.000 NA
ATOM      8  C   UNL     1      -3.833  12.118  19.192  0.00  0.00    +0.000 A 
ATOM      9  C   UNL     1      -4.800  12.478  20.157  0.00  0.00    +0.000 A 
ATOM     10  C   UNL     1      -4.390  13.377  21.214  0.00  0.00    +0.000 A 
ATOM     11  N   UNL     1      -3.105  13.860  21.178  0.00  0.00    +0.000 NA
ATOM     12  C   UNL     1      -6.214  11.938  19.968  0.00  0.00    +0.000 C 
ATOM     13  C   UNL     1      -6.894  12.403  18.676  0.00  0.00    +0.000 C 
ATOM     14  N   UNL     1      -6.520  11.594  17.519  0.00  0.00    +0.000 NA
ATOM     15  C   UNL     1      -5.144  11.766  17.057  0.00  0.00    +0.000 C 
ATOM     16  C   UNL     1      -4.116  11.195  18.038  0.00  0.00    +0.000 C 
ATOM     17  C   UNL     1      -0.020  13.920  19.001  0.00  0.00    +0.000 C 
ATOM     18  C   UNL     1       1.378  13.480  19.451  0.00  0.00    +0.000 C 
ATOM     19  H   UNL     1      -7.154  11.874  16.733  0.00  0.00    +0.000 HD
ENDROOT
BRANCH  10  20
ATOM     20  N   UNL     1      -5.256  13.840  22.288  0.00  0.00    +0.000 N 
ATOM     21  C   UNL     1      -6.066  15.040  22.107  0.00  0.00    +0.000 C 
ATOM     22  C   UNL     1      -7.553  14.702  22.282  0.00  0.00    +0.000 C 
ATOM     23  S   UNL     1      -7.916  14.107  23.970  0.00  0.00    +0.000 S 
ATOM     24  C   UNL     1      -6.744  12.719  23.896  0.00  0.00    +0.000 C 
ATOM     25  C   UNL     1      -5.321  13.236  23.617  0.00  0.00    +0.000 C 
ENDBRANCH  10  20
TORSDOF 1
ENDMDL
MODEL 9
REMARK VINA RESULT:      -5.8      0.892      1.305
REMARK  Name = 
REMARK  2 active torsions:
REMARK  status: ('A' for Active; 'I' for Inactive)
REMARK    1  A    between atoms: C_1  and  N_2
REMARK    2  A    between atoms: C_10  and  N_11
REMARK                            x       y       z     vdW  Elec       q    Type
REMARK                         _______ _______ _______ _____ _____    ______ ____
ROOT
ATOM      1  C   UNL     1      -1.005  11.518  19.758  0.00  0.00    +0.000 C 
ATOM      2  N   UNL     1       0.066  10.598  20.173  0.00  0.00    +0.000 NA
ATOM      3  C   UNL     1       0.957  10.267  19.040  0.00  0.00    +0.000 C 
ATOM      4  C   UNL     1       2.125   9.399  19.543  0.00  0.00    +0.000 C 
ATOM      5  N   UNL     1       1.602   8.221  20.214  0.00  0.00    +0.000 N 
ATOM      6  C   UNL     1       2.065   6.887  19.922  0.00  0.00    +0.000 A 
ATOM      7  N   UNL     1       1.481   5.832  20.530  0.00  0.00    +0.000 NA
ATOM      8  C   UNL     1       1.922   4.560  20.382  0.00  0.00    +0.000 A 
ATOM      9  C   UNL     1       3.041   4.293  19.562  0.00  0.00    +0.000 A 
ATOM     10  C   UNL     1       3.652   5.411  18.878  0.00  0.00    +0.000 A 
ATOM     11  N   UNL     1       3.138   6.662  19.111  0.00  0.00    +0.000 NA
ATOM     12  C   UNL     1       3.549   2.856  19.517  0.00  0.00    +0.000 C 
ATOM     13  C   UNL     1       4.034   2.321  20.868  0.00  0.00    +0.000 C 
ATOM     14  N   UNL     1       2.945   1.821  21.701  0.00  0.00    +0.000 NA
ATOM     15  C   UNL     1       2.049   2.844  22.237  0.00  0.00    +0.000 C 
ATOM     16  C   UNL     1       1.186   3.498  21.155  0.00  0.00    +0.000 C 
ATOM     17  C   UNL     1       0.636   8.480  21.279  0.00  0.00    +0.000 C 
ATOM     18  C   UNL     1      -0.501   9.364  20.751  0.00  0.00    +0.000 C 
ATOM     19  H   UNL     1       3.383   1.328  22.516  0.00  0.00    +0.000 HD
ENDROOT
BRANCH  10  20
ATOM     20  N   UNL     1       4.802   5.309  17.992  0.00  0.00    +0.000 N 
ATOM     21  C   UNL     1       4.606   5.129  16.557  0.00  0.00    +0.000 C 
ATOM     22  C   UNL     1       5.263   6.284  15.788  0.00  0.00    +0.000 C 
ATOM     23  S   UNL     1       7.072   6.321  16.041  0.00  0.00    +0.000 S 
ATOM     24  C   UNL     1       6.967   6.471  17.850  0.00  0.00    +0.000 C 
ATOM     25  C   UNL     1       6.193   5.279  18.441  0.00  0.00    +0.000 C 
ENDBRANCH  10  20
TORSDOF 1
ENDMDL
