MODEL 1
REMARK VINA RESULT:      -8.8      0.000      0.000
REMARK  Name = 
REMARK  13 active torsions:
REMARK  status: ('A' for Active; 'I' for Inactive)
REMARK    1  A    between atoms: C_1  and  C_2
REMARK    2  A    between atoms: C_2  and  C_3
REMARK    3  A    between atoms: C_3  and  N_4
REMARK    4  A    between atoms: C_5  and  C_7
REMARK    5  A    between atoms: C_7  and  N_8
REMARK    6  A    between atoms: C_12  and  C_13
REMARK    7  A    between atoms: C_16  and  C_17
REMARK    8  A    between atoms: C_20  and  N_21
REMARK    9  A    between atoms: C_29  and  C_30
REMARK   10  A    between atoms: C_30  and  C_32
REMARK   11  A    between atoms: C_32  and  C_33
REMARK   12  A    between atoms: C_32  and  C_34
REMARK   13  A    between atoms: C_32  and  C_35
REMARK                            x       y       z     vdW  Elec       q    Type
REMARK                         _______ _______ _______ _____ _____    ______ ____
ROOT
ATOM      1  N   UNL     1       4.906   5.359  17.583  0.00  0.00    +0.000 N 
ATOM      2  C   UNL     1       4.832   6.659  17.028  0.00  0.00    +0.000 A 
ATOM      3  O   UNL     1       5.681   7.180  16.318  0.00  0.00    +0.000 OA
ATOM      4  C   UNL     1       3.559   7.337  17.500  0.00  0.00    +0.000 A 
ATOM      5  C   UNL     1       3.131   8.607  17.413  0.00  0.00    +0.000 C 
ATOM      6  S   UNL     1       2.551   6.132  18.196  0.00  0.00    +0.000 S 
ATOM      7  C   UNL     1       3.858   5.042  18.441  0.00  0.00    +0.000 A 
ATOM      8  C   UNL     1       3.747   4.039  19.326  0.00  0.00    +0.000 C 
ENDROOT
BRANCH   5   9
ATOM      9  C   UNL     1       1.975   9.075  18.160  0.00  0.00    +0.000 A 
ATOM     10  C   UNL     1       1.762   9.057  19.532  0.00  0.00    +0.000 A 
ATOM     11  C   UNL     1       0.446   9.494  19.803  0.00  0.00    +0.000 A 
ATOM     12  C   UNL     1      -0.127   9.814  18.601  0.00  0.00    +0.000 A 
ATOM     13  O   UNL     1       0.792   9.576  17.602  0.00  0.00    +0.000 OA
BRANCH  12  14
ATOM     14  C   UNL     1      -1.439  10.351  18.256  0.00  0.00    +0.000 A 
ATOM     15  C   UNL     1      -2.016  11.366  19.026  0.00  0.00    +0.000 A 
ATOM     16  C   UNL     1      -3.324  11.806  18.792  0.00  0.00    +0.000 A 
ATOM     17  C   UNL     1      -4.068  11.235  17.757  0.00  0.00    +0.000 A 
ATOM     18  C   UNL     1      -3.516  10.216  16.965  0.00  0.00    +0.000 A 
ATOM     19  C   UNL     1      -2.206   9.779  17.219  0.00  0.00    +0.000 A 
BRANCH  17  20
ATOM     20  N   UNL     1      -5.435  11.711  17.511  0.00  0.00    +0.000 N 
ATOM     21  O   UNL     1      -6.368  11.103  18.038  0.00  0.00    +0.000 OA
ATOM     22  O   UNL     1      -5.570  12.710  16.780  0.00  0.00    +0.000 OA
ENDBRANCH  17  20
ENDBRANCH  12  14
ENDBRANCH   5   9
BRANCH   8  23
ATOM     23  C   UNL     1       2.636   4.028  20.362  0.00  0.00    +0.000 C 
ATOM     24  O   UNL     1       2.568   4.889  21.241  0.00  0.00    +0.000 OA
BRANCH  23  25
ATOM     25  C   UNL     1       1.627   2.883  20.383  0.00  0.00    +0.000 C 
ATOM     26  C   UNL     1       1.433   2.385  21.819  0.00  0.00    +0.000 C 
ATOM     27  C   UNL     1       0.304   3.431  19.800  0.00  0.00    +0.000 C 
ATOM     28  C   UNL     1       2.129   1.741  19.500  0.00  0.00    +0.000 C 
ENDBRANCH  23  25
ENDBRANCH   8  23
BRANCH   1  29
ATOM     29  C   UNL     1       6.017   4.447  17.270  0.00  0.00    +0.000 C 
BRANCH  29  31
ATOM     30  N   UNL     1       5.747   4.197  14.806  0.00  0.00    +0.000 N 
ATOM     31  C   UNL     1       6.554   4.591  15.845  0.00  0.00    +0.000 C 
ATOM     32  O   UNL     1       7.708   5.031  15.642  0.00  0.00    +0.000 OA
ATOM     33  H   UNL     1       4.858   3.732  14.999  0.00  0.00    +0.000 HD
BRANCH  30  34
ATOM     34  C   UNL     1       6.190   4.352  13.426  0.00  0.00    +0.000 C 
BRANCH  34  36
ATOM     35  C   UNL     1       4.518   3.413  11.774  0.00  0.00    +0.000 C 
ATOM     36  C   UNL     1       5.828   3.175  12.513  0.00  0.00    +0.000 C 
ENDBRANCH  34  36
ENDBRANCH  30  34
ENDBRANCH  29  31
ENDBRANCH   1  29
TORSDOF 9
ENDMDL
MODEL 2
REMARK VINA RESULT:      -8.3      1.039      1.302
REMARK  Name = 
REMARK  13 active torsions:
REMARK  status: ('A' for Active; 'I' for Inactive)
REMARK    1  A    between atoms: C_1  and  C_2
REMARK    2  A    between atoms: C_2  and  C_3
REMARK    3  A    between atoms: C_3  and  N_4
REMARK    4  A    between atoms: C_5  and  C_7
REMARK    5  A    between atoms: C_7  and  N_8
REMARK    6  A    between atoms: C_12  and  C_13
REMARK    7  A    between atoms: C_16  and  C_17
REMARK    8  A    between atoms: C_20  and  N_21
REMARK    9  A    between atoms: C_29  and  C_30
REMARK   10  A    between atoms: C_30  and  C_32
REMARK   11  A    between atoms: C_32  and  C_33
REMARK   12  A    between atoms: C_32  and  C_34
REMARK   13  A    between atoms: C_32  and  C_35
REMARK                            x       y       z     vdW  Elec       q    Type
REMARK                         _______ _______ _______ _____ _____    ______ ____
ROOT
ATOM      1  N   UNL     1       4.963   5.289  17.030  0.00  0.00    +0.000 N 
ATOM      2  C   UNL     1       5.045   6.699  16.935  0.00  0.00    +0.000 A 
ATOM      3  O   UNL     1       6.015   7.332  16.539  0.00  0.00    +0.000 OA
ATOM      4  C   UNL     1       3.760   7.315  17.457  0.00  0.00    +0.000 A 
ATOM      5  C   UNL     1       3.424   8.582  17.750  0.00  0.00    +0.000 C 
ATOM      6  S   UNL     1       2.595   6.060  17.593  0.00  0.00    +0.000 S 
ATOM      7  C   UNL     1       3.788   4.821  17.608  0.00  0.00    +0.000 A 
ATOM      8  C   UNL     1       3.494   3.603  18.090  0.00  0.00    +0.000 C 
ENDROOT
BRANCH   5   9
ATOM      9  C   UNL     1       2.204   8.899  18.474  0.00  0.00    +0.000 A 
ATOM     10  C   UNL     1       1.830   8.519  19.756  0.00  0.00    +0.000 A 
ATOM     11  C   UNL     1       0.507   8.947  19.999  0.00  0.00    +0.000 A 
ATOM     12  C   UNL     1       0.090   9.622  18.883  0.00  0.00    +0.000 A 
ATOM     13  O   UNL     1       1.112   9.610  17.959  0.00  0.00    +0.000 OA
BRANCH  12  14
ATOM     14  C   UNL     1      -1.155  10.316  18.568  0.00  0.00    +0.000 A 
ATOM     15  C   UNL     1      -1.646  11.313  19.416  0.00  0.00    +0.000 A 
ATOM     16  C   UNL     1      -2.898  11.901  19.203  0.00  0.00    +0.000 A 
ATOM     17  C   UNL     1      -3.670  11.500  18.110  0.00  0.00    +0.000 A 
ATOM     18  C   UNL     1      -3.204  10.503  17.240  0.00  0.00    +0.000 A 
ATOM     19  C   UNL     1      -1.949   9.915  17.473  0.00  0.00    +0.000 A 
BRANCH  17  20
ATOM     20  N   UNL     1      -4.977  12.129  17.887  0.00  0.00    +0.000 N 
ATOM     21  O   UNL     1      -5.454  12.821  18.789  0.00  0.00    +0.000 OA
ATOM     22  O   UNL     1      -5.530  11.927  16.789  0.00  0.00    +0.000 OA
ENDBRANCH  17  20
ENDBRANCH  12  14
ENDBRANCH   5   9
BRANCH   8  23
ATOM     23  C   UNL     1       2.250   3.372  18.930  0.00  0.00    +0.000 C 
ATOM     24  O   UNL     1       1.141   3.234  18.411  0.00  0.00    +0.000 OA
BRANCH  23  25
ATOM     25  C   UNL     1       2.345   3.399  20.453  0.00  0.00    +0.000 C 
ATOM     26  C   UNL     1       1.103   2.742  21.064  0.00  0.00    +0.000 C 
ATOM     27  C   UNL     1       3.629   2.633  20.843  0.00  0.00    +0.000 C 
ATOM     28  C   UNL     1       2.458   4.845  20.934  0.00  0.00    +0.000 C 
ENDBRANCH  23  25
ENDBRANCH   8  23
BRANCH   1  29
ATOM     29  C   UNL     1       6.051   4.419  16.559  0.00  0.00    +0.000 C 
BRANCH  29  31
ATOM     30  N   UNL     1       5.440   3.951  14.189  0.00  0.00    +0.000 N 
ATOM     31  C   UNL     1       6.330   4.531  15.059  0.00  0.00    +0.000 C 
ATOM     32  O   UNL     1       7.359   5.112  14.646  0.00  0.00    +0.000 OA
ATOM     33  H   UNL     1       4.672   3.382  14.550  0.00  0.00    +0.000 HD
BRANCH  30  34
ATOM     34  C   UNL     1       5.632   4.065  12.750  0.00  0.00    +0.000 C 
BRANCH  34  36
ATOM     35  C   UNL     1       3.918   3.412  11.006  0.00  0.00    +0.000 C 
ATOM     36  C   UNL     1       5.015   2.920  11.939  0.00  0.00    +0.000 C 
ENDBRANCH  34  36
ENDBRANCH  30  34
ENDBRANCH  29  31
ENDBRANCH   1  29
TORSDOF 9
ENDMDL
MODEL 3
REMARK VINA RESULT:      -8.3      0.783      1.265
REMARK  Name = 
REMARK  13 active torsions:
REMARK  status: ('A' for Active; 'I' for Inactive)
REMARK    1  A    between atoms: C_1  and  C_2
REMARK    2  A    between atoms: C_2  and  C_3
REMARK    3  A    between atoms: C_3  and  N_4
REMARK    4  A    between atoms: C_5  and  C_7
REMARK    5  A    between atoms: C_7  and  N_8
REMARK    6  A    between atoms: C_12  and  C_13
REMARK    7  A    between atoms: C_16  and  C_17
REMARK    8  A    between atoms: C_20  and  N_21
REMARK    9  A    between atoms: C_29  and  C_30
REMARK   10  A    between atoms: C_30  and  C_32
REMARK   11  A    between atoms: C_32  and  C_33
REMARK   12  A    between atoms: C_32  and  C_34
REMARK   13  A    between atoms: C_32  and  C_35
REMARK                            x       y       z     vdW  Elec       q    Type
REMARK                         _______ _______ _______ _____ _____    ______ ____
ROOT
ATOM      1  N   UNL     1       4.934   5.538  17.582  0.00  0.00    +0.000 N 
ATOM      2  C   UNL     1       4.824   6.842  17.045  0.00  0.00    +0.000 A 
ATOM      3  O   UNL     1       5.660   7.397  16.344  0.00  0.00    +0.000 OA
ATOM      4  C   UNL     1       3.532   7.478  17.523  0.00  0.00    +0.000 A 
ATOM      5  C   UNL     1       3.068   8.737  17.453  0.00  0.00    +0.000 C 
ATOM      6  S   UNL     1       2.556   6.236  18.199  0.00  0.00    +0.000 S 
ATOM      7  C   UNL     1       3.893   5.179  18.432  0.00  0.00    +0.000 A 
ATOM      8  C   UNL     1       3.808   4.161  19.302  0.00  0.00    +0.000 C 
ENDROOT
BRANCH   5   9
ATOM      9  C   UNL     1       1.898   9.161  18.203  0.00  0.00    +0.000 A 
ATOM     10  C   UNL     1       1.675   9.102  19.572  0.00  0.00    +0.000 A 
ATOM     11  C   UNL     1       0.350   9.505  19.844  0.00  0.00    +0.000 A 
ATOM     12  C   UNL     1      -0.221   9.847  18.647  0.00  0.00    +0.000 A 
ATOM     13  O   UNL     1       0.709   9.654  17.649  0.00  0.00    +0.000 OA
BRANCH  12  14
ATOM     14  C   UNL     1      -1.542  10.367  18.306  0.00  0.00    +0.000 A 
ATOM     15  C   UNL     1      -2.109  11.406  19.051  0.00  0.00    +0.000 A 
ATOM     16  C   UNL     1      -3.422  11.833  18.824  0.00  0.00    +0.000 A 
ATOM     17  C   UNL     1      -4.182  11.225  17.822  0.00  0.00    +0.000 A 
ATOM     18  C   UNL     1      -3.640  10.180  17.058  0.00  0.00    +0.000 A 
ATOM     19  C   UNL     1      -2.323   9.756  17.303  0.00  0.00    +0.000 A 
BRANCH  17  20
ATOM     20  N   UNL     1      -5.555  11.686  17.584  0.00  0.00    +0.000 N 
ATOM     21  O   UNL     1      -6.484  11.004  18.018  0.00  0.00    +0.000 OA
ATOM     22  O   UNL     1      -5.699  12.751  16.954  0.00  0.00    +0.000 OA
ENDBRANCH  17  20
ENDBRANCH  12  14
ENDBRANCH   5   9
BRANCH   8  23
ATOM     23  C   UNL     1       2.695   4.104  20.335  0.00  0.00    +0.000 C 
ATOM     24  O   UNL     1       2.631   4.920  21.256  0.00  0.00    +0.000 OA
BRANCH  23  25
ATOM     25  C   UNL     1       1.680   2.965  20.298  0.00  0.00    +0.000 C 
ATOM     26  C   UNL     1       2.179   1.852  19.370  0.00  0.00    +0.000 C 
ATOM     27  C   UNL     1       1.518   2.452  21.747  0.00  0.00    +0.000 C 
ATOM     28  C   UNL     1       0.336   3.493  19.800  0.00  0.00    +0.000 C 
ENDBRANCH  23  25
ENDBRANCH   8  23
BRANCH   1  29
ATOM     29  C   UNL     1       6.070   4.662  17.259  0.00  0.00    +0.000 C 
BRANCH  29  31
ATOM     30  N   UNL     1       6.505   4.516  14.810  0.00  0.00    +0.000 N 
ATOM     31  C   UNL     1       5.935   3.939  15.917  0.00  0.00    +0.000 C 
ATOM     32  O   UNL     1       5.295   2.866  15.836  0.00  0.00    +0.000 OA
ATOM     33  H   UNL     1       6.919   5.448  14.877  0.00  0.00    +0.000 HD
BRANCH  30  34
ATOM     34  C   UNL     1       6.444   3.851  13.515  0.00  0.00    +0.000 C 
BRANCH  34  36
ATOM     35  C   UNL     1       8.182   5.611  12.979  0.00  0.00    +0.000 C 
ATOM     36  C   UNL     1       7.264   4.535  12.416  0.00  0.00    +0.000 C 
ENDBRANCH  34  36
ENDBRANCH  30  34
ENDBRANCH  29  31
ENDBRANCH   1  29
TORSDOF 9
ENDMDL
MODEL 4
REMARK VINA RESULT:      -8.1      1.021      1.248
REMARK  Name = 
REMARK  13 active torsions:
REMARK  status: ('A' for Active; 'I' for Inactive)
REMARK    1  A    between atoms: C_1  and  C_2
REMARK    2  A    between atoms: C_2  and  C_3
REMARK    3  A    between atoms: C_3  and  N_4
REMARK    4  A    between atoms: C_5  and  C_7
REMARK    5  A    between atoms: C_7  and  N_8
REMARK    6  A    between atoms: C_12  and  C_13
REMARK    7  A    between atoms: C_16  and  C_17
REMARK    8  A    between atoms: C_20  and  N_21
REMARK    9  A    between atoms: C_29  and  C_30
REMARK   10  A    between atoms: C_30  and  C_32
REMARK   11  A    between atoms: C_32  and  C_33
REMARK   12  A    between atoms: C_32  and  C_34
REMARK   13  A    between atoms: C_32  and  C_35
REMARK                            x       y       z     vdW  Elec       q    Type
REMARK                         _______ _______ _______ _____ _____    ______ ____
ROOT
ATOM      1  N   UNL     1       4.918   5.288  17.115  0.00  0.00    +0.000 N 
ATOM      2  C   UNL     1       4.993   6.697  17.004  0.00  0.00    +0.000 A 
ATOM      3  O   UNL     1       5.961   7.330  16.603  0.00  0.00    +0.000 OA
ATOM      4  C   UNL     1       3.705   7.313  17.518  0.00  0.00    +0.000 A 
ATOM      5  C   UNL     1       3.363   8.582  17.796  0.00  0.00    +0.000 C 
ATOM      6  S   UNL     1       2.546   6.054  17.666  0.00  0.00    +0.000 S 
ATOM      7  C   UNL     1       3.744   4.822  17.696  0.00  0.00    +0.000 A 
ATOM      8  C   UNL     1       3.456   3.608  18.191  0.00  0.00    +0.000 C 
ENDROOT
BRANCH   5   9
ATOM      9  C   UNL     1       2.140   8.901  18.514  0.00  0.00    +0.000 A 
ATOM     10  C   UNL     1       1.763   8.527  19.798  0.00  0.00    +0.000 A 
ATOM     11  C   UNL     1       0.438   8.955  20.035  0.00  0.00    +0.000 A 
ATOM     12  C   UNL     1       0.024   9.624  18.913  0.00  0.00    +0.000 A 
ATOM     13  O   UNL     1       1.049   9.608  17.992  0.00  0.00    +0.000 OA
BRANCH  12  14
ATOM     14  C   UNL     1      -1.220  10.315  18.591  0.00  0.00    +0.000 A 
ATOM     15  C   UNL     1      -1.661  11.386  19.374  0.00  0.00    +0.000 A 
ATOM     16  C   UNL     1      -2.911  11.979  19.161  0.00  0.00    +0.000 A 
ATOM     17  C   UNL     1      -3.732  11.508  18.135  0.00  0.00    +0.000 A 
ATOM     18  C   UNL     1      -3.317  10.435  17.331  0.00  0.00    +0.000 A 
ATOM     19  C   UNL     1      -2.064   9.844  17.562  0.00  0.00    +0.000 A 
BRANCH  17  20
ATOM     20  N   UNL     1      -5.036  12.143  17.912  0.00  0.00    +0.000 N 
ATOM     21  O   UNL     1      -5.464  12.209  16.758  0.00  0.00    +0.000 OA
ATOM     22  O   UNL     1      -5.639  12.579  18.911  0.00  0.00    +0.000 OA
ENDBRANCH  17  20
ENDBRANCH  12  14
ENDBRANCH   5   9
BRANCH   8  23
ATOM     23  C   UNL     1       2.211   3.380  19.032  0.00  0.00    +0.000 C 
ATOM     24  O   UNL     1       1.097   3.272  18.515  0.00  0.00    +0.000 OA
BRANCH  23  25
ATOM     25  C   UNL     1       2.312   3.373  20.555  0.00  0.00    +0.000 C 
ATOM     26  C   UNL     1       3.584   2.637  20.989  0.00  0.00    +0.000 C 
ATOM     27  C   UNL     1       2.337   4.848  21.016  0.00  0.00    +0.000 C 
ATOM     28  C   UNL     1       1.084   2.683  21.147  0.00  0.00    +0.000 C 
ENDBRANCH  23  25
ENDBRANCH   8  23
BRANCH   1  29
ATOM     29  C   UNL     1       6.011   4.418  16.655  0.00  0.00    +0.000 C 
BRANCH  29  31
ATOM     30  N   UNL     1       5.386   3.989  14.282  0.00  0.00    +0.000 N 
ATOM     31  C   UNL     1       6.300   4.523  15.157  0.00  0.00    +0.000 C 
ATOM     32  O   UNL     1       7.356   5.059  14.749  0.00  0.00    +0.000 OA
ATOM     33  H   UNL     1       4.592   3.454  14.638  0.00  0.00    +0.000 HD
BRANCH  30  34
ATOM     34  C   UNL     1       5.588   4.100  12.843  0.00  0.00    +0.000 C 
BRANCH  34  36
ATOM     35  C   UNL     1       5.646   2.005  11.423  0.00  0.00    +0.000 C 
ATOM     36  C   UNL     1       6.463   2.993  12.243  0.00  0.00    +0.000 C 
ENDBRANCH  34  36
ENDBRANCH  30  34
ENDBRANCH  29  31
ENDBRANCH   1  29
TORSDOF 9
ENDMDL
MODEL 5
REMARK VINA RESULT:      -8.0      0.765      1.350
REMARK  Name = 
REMARK  13 active torsions:
REMARK  status: ('A' for Active; 'I' for Inactive)
REMARK    1  A    between atoms: C_1  and  C_2
REMARK    2  A    between atoms: C_2  and  C_3
REMARK    3  A    between atoms: C_3  and  N_4
REMARK    4  A    between atoms: C_5  and  C_7
REMARK    5  A    between atoms: C_7  and  N_8
REMARK    6  A    between atoms: C_12  and  C_13
REMARK    7  A    between atoms: C_16  and  C_17
REMARK    8  A    between atoms: C_20  and  N_21
REMARK    9  A    between atoms: C_29  and  C_30
REMARK   10  A    between atoms: C_30  and  C_32
REMARK   11  A    between atoms: C_32  and  C_33
REMARK   12  A    between atoms: C_32  and  C_34
REMARK   13  A    between atoms: C_32  and  C_35
REMARK                            x       y       z     vdW  Elec       q    Type
REMARK                         _______ _______ _______ _____ _____    ______ ____
ROOT
ATOM      1  N   UNL     1       4.814   5.618  17.527  0.00  0.00    +0.000 N 
ATOM      2  C   UNL     1       4.673   6.930  17.017  0.00  0.00    +0.000 A 
ATOM      3  O   UNL     1       5.475   7.504  16.292  0.00  0.00    +0.000 OA
ATOM      4  C   UNL     1       3.397   7.547  17.559  0.00  0.00    +0.000 A 
ATOM      5  C   UNL     1       2.921   8.803  17.530  0.00  0.00    +0.000 C 
ATOM      6  S   UNL     1       2.460   6.286  18.254  0.00  0.00    +0.000 S 
ATOM      7  C   UNL     1       3.813   5.237  18.413  0.00  0.00    +0.000 A 
ATOM      8  C   UNL     1       3.772   4.203  19.269  0.00  0.00    +0.000 C 
ENDROOT
BRANCH   5   9
ATOM      9  C   UNL     1       1.780   9.205  18.336  0.00  0.00    +0.000 A 
ATOM     10  C   UNL     1       1.641   9.183  19.717  0.00  0.00    +0.000 A 
ATOM     11  C   UNL     1       0.318   9.541  20.055  0.00  0.00    +0.000 A 
ATOM     12  C   UNL     1      -0.336   9.821  18.885  0.00  0.00    +0.000 A 
ATOM     13  O   UNL     1       0.541   9.632  17.839  0.00  0.00    +0.000 OA
BRANCH  12  14
ATOM     14  C   UNL     1      -1.695  10.276  18.608  0.00  0.00    +0.000 A 
ATOM     15  C   UNL     1      -2.476   9.634  17.642  0.00  0.00    +0.000 A 
ATOM     16  C   UNL     1      -3.731  10.131  17.270  0.00  0.00    +0.000 A 
ATOM     17  C   UNL     1      -4.226  11.282  17.887  0.00  0.00    +0.000 A 
ATOM     18  C   UNL     1      -3.466  11.948  18.861  0.00  0.00    +0.000 A 
ATOM     19  C   UNL     1      -2.205  11.442  19.217  0.00  0.00    +0.000 A 
BRANCH  17  20
ATOM     20  N   UNL     1      -5.548  11.790  17.499  0.00  0.00    +0.000 N 
ATOM     21  O   UNL     1      -5.602  12.811  16.812  0.00  0.00    +0.000 OA
ATOM     22  O   UNL     1      -6.543  11.151  17.889  0.00  0.00    +0.000 OA
ENDBRANCH  17  20
ENDBRANCH  12  14
ENDBRANCH   5   9
BRANCH   8  23
ATOM     23  C   UNL     1       2.704   4.120  20.346  0.00  0.00    +0.000 C 
ATOM     24  O   UNL     1       2.656   4.936  21.268  0.00  0.00    +0.000 OA
BRANCH  23  25
ATOM     25  C   UNL     1       1.718   2.955  20.351  0.00  0.00    +0.000 C 
ATOM     26  C   UNL     1       1.595   2.381  21.766  0.00  0.00    +0.000 C 
ATOM     27  C   UNL     1       0.361   3.506  19.854  0.00  0.00    +0.000 C 
ATOM     28  C   UNL     1       2.201   1.871  19.390  0.00  0.00    +0.000 C 
ENDBRANCH  23  25
ENDBRANCH   8  23
BRANCH   1  29
ATOM     29  C   UNL     1       5.943   4.757  17.142  0.00  0.00    +0.000 C 
BRANCH  29  31
ATOM     30  N   UNL     1       5.875   4.576  14.658  0.00  0.00    +0.000 N 
ATOM     31  C   UNL     1       5.699   3.948  15.866  0.00  0.00    +0.000 C 
ATOM     32  O   UNL     1       5.322   2.756  15.932  0.00  0.00    +0.000 OA
ATOM     33  H   UNL     1       6.068   5.578  14.627  0.00  0.00    +0.000 HD
BRANCH  30  34
ATOM     34  C   UNL     1       5.699   3.842  13.411  0.00  0.00    +0.000 C 
BRANCH  34  36
ATOM     35  C   UNL     1       7.749   5.156  12.721  0.00  0.00    +0.000 C 
ATOM     36  C   UNL     1       6.897   3.922  12.458  0.00  0.00    +0.000 C 
ENDBRANCH  34  36
ENDBRANCH  30  34
ENDBRANCH  29  31
ENDBRANCH   1  29
TORSDOF 9
ENDMDL
MODEL 6
REMARK VINA RESULT:      -7.6      3.546     11.100
REMARK  Name = 
REMARK  13 active torsions:
REMARK  status: ('A' for Active; 'I' for Inactive)
REMARK    1  A    between atoms: C_1  and  C_2
REMARK    2  A    between atoms: C_2  and  C_3
REMARK    3  A    between atoms: C_3  and  N_4
REMARK    4  A    between atoms: C_5  and  C_7
REMARK    5  A    between atoms: C_7  and  N_8
REMARK    6  A    between atoms: C_12  and  C_13
REMARK    7  A    between atoms: C_16  and  C_17
REMARK    8  A    between atoms: C_20  and  N_21
REMARK    9  A    between atoms: C_29  and  C_30
REMARK   10  A    between atoms: C_30  and  C_32
REMARK   11  A    between atoms: C_32  and  C_33
REMARK   12  A    between atoms: C_32  and  C_34
REMARK   13  A    between atoms: C_32  and  C_35
REMARK                            x       y       z     vdW  Elec       q    Type
REMARK                         _______ _______ _______ _____ _____    ______ ____
ROOT
ATOM      1  N   UNL     1      -2.051  12.543  21.250  0.00  0.00    +0.000 N 
ATOM      2  C   UNL     1      -1.001  12.034  22.050  0.00  0.00    +0.000 A 
ATOM      3  O   UNL     1      -0.645  12.485  23.130  0.00  0.00    +0.000 OA
ATOM      4  C   UNL     1      -0.338  10.872  21.333  0.00  0.00    +0.000 A 
ATOM      5  C   UNL     1       0.795  10.192  21.577  0.00  0.00    +0.000 C 
ATOM      6  S   UNL     1      -1.361  10.407  20.034  0.00  0.00    +0.000 S 
ATOM      7  C   UNL     1      -2.188  11.914  20.017  0.00  0.00    +0.000 A 
ATOM      8  C   UNL     1      -2.874  12.298  18.929  0.00  0.00    +0.000 C 
ENDROOT
BRANCH   5   9
ATOM      9  C   UNL     1       1.355   9.270  20.604  0.00  0.00    +0.000 A 
ATOM     10  C   UNL     1       1.453   9.415  19.226  0.00  0.00    +0.000 A 
ATOM     11  C   UNL     1       1.949   8.216  18.668  0.00  0.00    +0.000 A 
ATOM     12  C   UNL     1       2.191   7.358  19.708  0.00  0.00    +0.000 A 
ATOM     13  O   UNL     1       1.847   7.988  20.883  0.00  0.00    +0.000 OA
BRANCH  12  14
ATOM     14  C   UNL     1       2.738   6.005  19.752  0.00  0.00    +0.000 A 
ATOM     15  C   UNL     1       3.906   5.689  19.051  0.00  0.00    +0.000 A 
ATOM     16  C   UNL     1       4.377   4.373  18.975  0.00  0.00    +0.000 A 
ATOM     17  C   UNL     1       3.681   3.353  19.627  0.00  0.00    +0.000 A 
ATOM     18  C   UNL     1       2.507   3.639  20.340  0.00  0.00    +0.000 A 
ATOM     19  C   UNL     1       2.041   4.963  20.399  0.00  0.00    +0.000 A 
BRANCH  17  20
ATOM     20  N   UNL     1       4.189   1.978  19.551  0.00  0.00    +0.000 N 
ATOM     21  O   UNL     1       3.719   1.228  18.693  0.00  0.00    +0.000 OA
ATOM     22  O   UNL     1       5.073   1.649  20.364  0.00  0.00    +0.000 OA
ENDBRANCH  17  20
ENDBRANCH  12  14
ENDBRANCH   5   9
BRANCH   8  23
ATOM     23  C   UNL     1      -2.672  11.607  17.591  0.00  0.00    +0.000 C 
ATOM     24  O   UNL     1      -1.630  11.744  16.948  0.00  0.00    +0.000 OA
BRANCH  23  25
ATOM     25  C   UNL     1      -3.809  10.796  16.975  0.00  0.00    +0.000 C 
ATOM     26  C   UNL     1      -3.614  10.694  15.459  0.00  0.00    +0.000 C 
ATOM     27  C   UNL     1      -3.781   9.399  17.635  0.00  0.00    +0.000 C 
ATOM     28  C   UNL     1      -5.145  11.470  17.284  0.00  0.00    +0.000 C 
ENDBRANCH  23  25
ENDBRANCH   8  23
BRANCH   1  29
ATOM     29  C   UNL     1      -2.902  13.653  21.706  0.00  0.00    +0.000 C 
BRANCH  29  31
ATOM     30  N   UNL     1      -5.370  13.941  21.521  0.00  0.00    +0.000 N 
ATOM     31  C   UNL     1      -4.328  13.233  22.067  0.00  0.00    +0.000 C 
ATOM     32  O   UNL     1      -4.529  12.286  22.861  0.00  0.00    +0.000 OA
ATOM     33  H   UNL     1      -5.182  14.781  20.972  0.00  0.00    +0.000 HD
BRANCH  30  34
ATOM     34  C   UNL     1      -6.748  13.557  21.796  0.00  0.00    +0.000 C 
BRANCH  34  36
ATOM     35  C   UNL     1      -7.356  13.845  19.356  0.00  0.00    +0.000 C 
ATOM     36  C   UNL     1      -7.490  12.966  20.592  0.00  0.00    +0.000 C 
ENDBRANCH  34  36
ENDBRANCH  30  34
ENDBRANCH  29  31
ENDBRANCH   1  29
TORSDOF 9
ENDMDL
MODEL 7
REMARK VINA RESULT:      -7.6      4.049     11.470
REMARK  Name = 
REMARK  13 active torsions:
REMARK  status: ('A' for Active; 'I' for Inactive)
REMARK    1  A    between atoms: C_1  and  C_2
REMARK    2  A    between atoms: C_2  and  C_3
REMARK    3  A    between atoms: C_3  and  N_4
REMARK    4  A    between atoms: C_5  and  C_7
REMARK    5  A    between atoms: C_7  and  N_8
REMARK    6  A    between atoms: C_12  and  C_13
REMARK    7  A    between atoms: C_16  and  C_17
REMARK    8  A    between atoms: C_20  and  N_21
REMARK    9  A    between atoms: C_29  and  C_30
REMARK   10  A    between atoms: C_30  and  C_32
REMARK   11  A    between atoms: C_32  and  C_33
REMARK   12  A    between atoms: C_32  and  C_34
REMARK   13  A    between atoms: C_32  and  C_35
REMARK                            x       y       z     vdW  Elec       q    Type
REMARK                         _______ _______ _______ _____ _____    ______ ____
ROOT
ATOM      1  N   UNL     1      -0.841  12.197  22.335  0.00  0.00    +0.000 N 
ATOM      2  C   UNL     1      -0.558  10.827  22.545  0.00  0.00    +0.000 A 
ATOM      3  O   UNL     1      -0.698  10.224  23.601  0.00  0.00    +0.000 OA
ATOM      4  C   UNL     1       0.008  10.227  21.271  0.00  0.00    +0.000 A 
ATOM      5  C   UNL     1       0.595   9.046  21.016  0.00  0.00    +0.000 C 
ATOM      6  S   UNL     1      -0.280  11.341  19.996  0.00  0.00    +0.000 S 
ATOM      7  C   UNL     1      -0.498  12.665  21.071  0.00  0.00    +0.000 A 
ATOM      8  C   UNL     1      -0.375  13.926  20.627  0.00  0.00    +0.000 C 
ENDROOT
BRANCH   5   9
ATOM      9  C   UNL     1       1.280   8.792  19.760  0.00  0.00    +0.000 A 
ATOM     10  C   UNL     1       1.051   9.360  18.514  0.00  0.00    +0.000 A 
ATOM     11  C   UNL     1       1.867   8.720  17.555  0.00  0.00    +0.000 A 
ATOM     12  C   UNL     1       2.620   7.792  18.223  0.00  0.00    +0.000 A 
ATOM     13  O   UNL     1       2.283   7.833  19.558  0.00  0.00    +0.000 OA
BRANCH  12  14
ATOM     14  C   UNL     1       3.657   6.867  17.773  0.00  0.00    +0.000 A 
ATOM     15  C   UNL     1       4.877   7.350  17.290  0.00  0.00    +0.000 A 
ATOM     16  C   UNL     1       5.833   6.491  16.736  0.00  0.00    +0.000 A 
ATOM     17  C   UNL     1       5.576   5.120  16.677  0.00  0.00    +0.000 A 
ATOM     18  C   UNL     1       4.361   4.605  17.155  0.00  0.00    +0.000 A 
ATOM     19  C   UNL     1       3.407   5.481  17.700  0.00  0.00    +0.000 A 
BRANCH  17  20
ATOM     20  N   UNL     1       6.589   4.225  16.104  0.00  0.00    +0.000 N 
ATOM     21  O   UNL     1       6.239   3.432  15.229  0.00  0.00    +0.000 OA
ATOM     22  O   UNL     1       7.752   4.324  16.540  0.00  0.00    +0.000 OA
ENDBRANCH  17  20
ENDBRANCH  12  14
ENDBRANCH   5   9
BRANCH   8  23
ATOM     23  C   UNL     1       0.277  14.225  19.288  0.00  0.00    +0.000 C 
ATOM     24  O   UNL     1      -0.363  14.178  18.237  0.00  0.00    +0.000 OA
BRANCH  23  25
ATOM     25  C   UNL     1       1.776  14.505  19.218  0.00  0.00    +0.000 C 
ATOM     26  C   UNL     1       2.021  15.875  18.577  0.00  0.00    +0.000 C 
ATOM     27  C   UNL     1       2.315  14.463  20.666  0.00  0.00    +0.000 C 
ATOM     28  C   UNL     1       2.462  13.415  18.396  0.00  0.00    +0.000 C 
ENDBRANCH  23  25
ENDBRANCH   8  23
BRANCH   1  29
ATOM     29  C   UNL     1      -1.438  13.033  23.388  0.00  0.00    +0.000 C 
BRANCH  29  31
ATOM     30  N   UNL     1      -3.620  14.198  23.087  0.00  0.00    +0.000 N 
ATOM     31  C   UNL     1      -2.968  13.029  23.390  0.00  0.00    +0.000 C 
ATOM     32  O   UNL     1      -3.599  11.989  23.689  0.00  0.00    +0.000 OA
ATOM     33  H   UNL     1      -3.087  15.061  22.963  0.00  0.00    +0.000 HD
BRANCH  30  34
ATOM     34  C   UNL     1      -5.075  14.240  23.032  0.00  0.00    +0.000 C 
BRANCH  34  36
ATOM     35  C   UNL     1      -5.285  16.756  23.214  0.00  0.00    +0.000 C 
ATOM     36  C   UNL     1      -5.701  15.412  23.796  0.00  0.00    +0.000 C 
ENDBRANCH  34  36
ENDBRANCH  30  34
ENDBRANCH  29  31
ENDBRANCH   1  29
TORSDOF 9
ENDMDL
MODEL 8
REMARK VINA RESULT:      -7.6      2.719      3.191
REMARK  Name = 
REMARK  13 active torsions:
REMARK  status: ('A' for Active; 'I' for Inactive)
REMARK    1  A    between atoms: C_1  and  C_2
REMARK    2  A    between atoms: C_2  and  C_3
REMARK    3  A    between atoms: C_3  and  N_4
REMARK    4  A    between atoms: C_5  and  C_7
REMARK    5  A    between atoms: C_7  and  N_8
REMARK    6  A    between atoms: C_12  and  C_13
REMARK    7  A    between atoms: C_16  and  C_17
REMARK    8  A    between atoms: C_20  and  N_21
REMARK    9  A    between atoms: C_29  and  C_30
REMARK   10  A    between atoms: C_30  and  C_32
REMARK   11  A    between atoms: C_32  and  C_33
REMARK   12  A    between atoms: C_32  and  C_34
REMARK   13  A    between atoms: C_32  and  C_35
REMARK                            x       y       z     vdW  Elec       q    Type
REMARK                         _______ _______ _______ _____ _____    ______ ____
ROOT
ATOM      1  N   UNL     1       5.051   5.729  17.876  0.00  0.00    +0.000 N 
ATOM      2  C   UNL     1       4.955   7.019  17.302  0.00  0.00    +0.000 A 
ATOM      3  O   UNL     1       5.844   7.593  16.687  0.00  0.00    +0.000 OA
ATOM      4  C   UNL     1       3.594   7.612  17.617  0.00  0.00    +0.000 A 
ATOM      5  C   UNL     1       3.095   8.850  17.467  0.00  0.00    +0.000 C 
ATOM      6  S   UNL     1       2.595   6.345  18.206  0.00  0.00    +0.000 S 
ATOM      7  C   UNL     1       3.934   5.346  18.612  0.00  0.00    +0.000 A 
ATOM      8  C   UNL     1       3.789   4.341  19.490  0.00  0.00    +0.000 C 
ENDROOT
BRANCH   5   9
ATOM      9  C   UNL     1       1.833   9.242  18.071  0.00  0.00    +0.000 A 
ATOM     10  C   UNL     1       0.541   8.929  17.666  0.00  0.00    +0.000 A 
ATOM     11  C   UNL     1      -0.380   9.631  18.474  0.00  0.00    +0.000 A 
ATOM     12  C   UNL     1       0.347  10.338  19.394  0.00  0.00    +0.000 A 
ATOM     13  O   UNL     1       1.685  10.101  19.168  0.00  0.00    +0.000 OA
BRANCH  12  14
ATOM     14  C   UNL     1      -0.052  11.204  20.499  0.00  0.00    +0.000 A 
ATOM     15  C   UNL     1      -0.426  10.657  21.730  0.00  0.00    +0.000 A 
ATOM     16  C   UNL     1      -0.933  11.457  22.760  0.00  0.00    +0.000 A 
ATOM     17  C   UNL     1      -1.054  12.835  22.567  0.00  0.00    +0.000 A 
ATOM     18  C   UNL     1      -0.685  13.414  21.343  0.00  0.00    +0.000 A 
ATOM     19  C   UNL     1      -0.186  12.596  20.315  0.00  0.00    +0.000 A 
BRANCH  17  20
ATOM     20  N   UNL     1      -1.576  13.668  23.656  0.00  0.00    +0.000 N 
ATOM     21  O   UNL     1      -2.756  13.531  23.982  0.00  0.00    +0.000 OA
ATOM     22  O   UNL     1      -0.787  14.470  24.192  0.00  0.00    +0.000 OA
ENDBRANCH  17  20
ENDBRANCH  12  14
ENDBRANCH   5   9
BRANCH   8  23
ATOM     23  C   UNL     1       2.569   4.259  20.392  0.00  0.00    +0.000 C 
ATOM     24  O   UNL     1       2.321   5.138  21.219  0.00  0.00    +0.000 OA
BRANCH  23  25
ATOM     25  C   UNL     1       1.672   3.025  20.348  0.00  0.00    +0.000 C 
ATOM     26  C   UNL     1       1.468   2.478  21.765  0.00  0.00    +0.000 C 
ATOM     27  C   UNL     1       0.328   3.462  19.721  0.00  0.00    +0.000 C 
ATOM     28  C   UNL     1       2.314   1.956  19.465  0.00  0.00    +0.000 C 
ENDBRANCH  23  25
ENDBRANCH   8  23
BRANCH   1  29
ATOM     29  C   UNL     1       6.248   4.893  17.703  0.00  0.00    +0.000 C 
BRANCH  29  31
ATOM     30  N   UNL     1       7.149   5.141  15.393  0.00  0.00    +0.000 N 
ATOM     31  C   UNL     1       6.437   4.369  16.278  0.00  0.00    +0.000 C 
ATOM     32  O   UNL     1       5.930   3.279  15.929  0.00  0.00    +0.000 OA
ATOM     33  H   UNL     1       7.453   6.078  15.664  0.00  0.00    +0.000 HD
BRANCH  30  34
ATOM     34  C   UNL     1       7.398   4.671  14.037  0.00  0.00    +0.000 C 
BRANCH  34  36
ATOM     35  C   UNL     1       6.089   3.281  12.375  0.00  0.00    +0.000 C 
ATOM     36  C   UNL     1       6.143   4.584  13.161  0.00  0.00    +0.000 C 
ENDBRANCH  34  36
ENDBRANCH  30  34
ENDBRANCH  29  31
ENDBRANCH   1  29
TORSDOF 9
ENDMDL
MODEL 9
REMARK VINA RESULT:      -7.6      3.729     11.291
REMARK  Name = 
REMARK  13 active torsions:
REMARK  status: ('A' for Active; 'I' for Inactive)
REMARK    1  A    between atoms: C_1  and  C_2
REMARK    2  A    between atoms: C_2  and  C_3
REMARK    3  A    between atoms: C_3  and  N_4
REMARK    4  A    between atoms: C_5  and  C_7
REMARK    5  A    between atoms: C_7  and  N_8
REMARK    6  A    between atoms: C_12  and  C_13
REMARK    7  A    between atoms: C_16  and  C_17
REMARK    8  A    between atoms: C_20  and  N_21
REMARK    9  A    between atoms: C_29  and  C_30
REMARK   10  A    between atoms: C_30  and  C_32
REMARK   11  A    between atoms: C_32  and  C_33
REMARK   12  A    between atoms: C_32  and  C_34
REMARK   13  A    between atoms: C_32  and  C_35
REMARK                            x       y       z     vdW  Elec       q    Type
REMARK                         _______ _______ _______ _____ _____    ______ ____
ROOT
ATOM      1  N   UNL     1      -0.990  11.860  22.344  0.00  0.00    +0.000 N 
ATOM      2  C   UNL     1      -0.562  10.530  22.568  0.00  0.00    +0.000 A 
ATOM      3  O   UNL     1      -0.629   9.930  23.632  0.00  0.00    +0.000 OA
ATOM      4  C   UNL     1       0.051   9.976  21.295  0.00  0.00    +0.000 A 
ATOM      5  C   UNL     1       0.757   8.860  21.048  0.00  0.00    +0.000 C 
ATOM      6  S   UNL     1      -0.364  11.037  20.009  0.00  0.00    +0.000 S 
ATOM      7  C   UNL     1      -0.710  12.345  21.070  0.00  0.00    +0.000 A 
ATOM      8  C   UNL     1      -0.724  13.606  20.610  0.00  0.00    +0.000 C 
ENDROOT
BRANCH   5   9
ATOM      9  C   UNL     1       1.453   8.662  19.788  0.00  0.00    +0.000 A 
ATOM     10  C   UNL     1       1.237   9.289  18.567  0.00  0.00    +0.000 A 
ATOM     11  C   UNL     1       2.061   8.692  17.588  0.00  0.00    +0.000 A 
ATOM     12  C   UNL     1       2.806   7.732  18.218  0.00  0.00    +0.000 A 
ATOM     13  O   UNL     1       2.456   7.712  19.551  0.00  0.00    +0.000 OA
BRANCH  12  14
ATOM     14  C   UNL     1       3.845   6.827  17.736  0.00  0.00    +0.000 A 
ATOM     15  C   UNL     1       4.313   5.787  18.546  0.00  0.00    +0.000 A 
ATOM     16  C   UNL     1       5.394   4.989  18.156  0.00  0.00    +0.000 A 
ATOM     17  C   UNL     1       6.012   5.219  16.924  0.00  0.00    +0.000 A 
ATOM     18  C   UNL     1       5.564   6.254  16.089  0.00  0.00    +0.000 A 
ATOM     19  C   UNL     1       4.484   7.053  16.498  0.00  0.00    +0.000 A 
BRANCH  17  20
ATOM     20  N   UNL     1       7.138   4.370  16.518  0.00  0.00    +0.000 N 
ATOM     21  O   UNL     1       8.056   4.193  17.321  0.00  0.00    +0.000 OA
ATOM     22  O   UNL     1       7.097   3.872  15.377  0.00  0.00    +0.000 OA
ENDBRANCH  17  20
ENDBRANCH  12  14
ENDBRANCH   5   9
BRANCH   8  23
ATOM     23  C   UNL     1      -0.119  13.954  19.261  0.00  0.00    +0.000 C 
ATOM     24  O   UNL     1      -0.663  13.620  18.207  0.00  0.00    +0.000 OA
BRANCH  23  25
ATOM     25  C   UNL     1       1.235  14.654  19.192  0.00  0.00    +0.000 C 
ATOM     26  C   UNL     1       1.063  16.070  18.632  0.00  0.00    +0.000 C 
ATOM     27  C   UNL     1       1.803  14.689  20.630  0.00  0.00    +0.000 C 
ATOM     28  C   UNL     1       2.181  13.853  18.299  0.00  0.00    +0.000 C 
ENDBRANCH  23  25
ENDBRANCH   8  23
BRANCH   1  29
ATOM     29  C   UNL     1      -1.662  12.643  23.392  0.00  0.00    +0.000 C 
BRANCH  29  31
ATOM     30  N   UNL     1      -3.899  13.155  22.423  0.00  0.00    +0.000 N 
ATOM     31  C   UNL     1      -3.185  12.498  23.394  0.00  0.00    +0.000 C 
ATOM     32  O   UNL     1      -3.757  11.820  24.278  0.00  0.00    +0.000 OA
ATOM     33  H   UNL     1      -3.423  13.796  21.786  0.00  0.00    +0.000 HD
BRANCH  30  34
ATOM     34  C   UNL     1      -5.348  13.017  22.351  0.00  0.00    +0.000 C 
BRANCH  34  36
ATOM     35  C   UNL     1      -6.960  13.805  20.566  0.00  0.00    +0.000 C 
ATOM     36  C   UNL     1      -6.065  14.219  21.726  0.00  0.00    +0.000 C 
ENDBRANCH  34  36
ENDBRANCH  30  34
ENDBRANCH  29  31
ENDBRANCH   1  29
TORSDOF 9
ENDMDL
