MODEL 1
REMARK VINA RESULT:      -6.3      0.000      0.000
REMARK  Name = 
REMARK  14 active torsions:
REMARK  status: ('A' for Active; 'I' for Inactive)
REMARK    1  A    between atoms: C_1  and  C_2
REMARK    2  A    between atoms: C_2  and  C_3
REMARK    3  A    between atoms: C_3  and  C_4
REMARK    4  A    between atoms: C_4  and  C_5
REMARK    5  A    between atoms: C_5  and  N_6
REMARK    6  A    between atoms: N_6  and  C_7
REMARK    7  A    between atoms: C_7  and  C_8
REMARK    8  A    between atoms: C_8  and  O_9
REMARK    9  A    between atoms: C_10  and  C_12
REMARK   10  A    between atoms: C_12  and  O_13
REMARK   11  A    between atoms: O_13  and  C_14
REMARK   12  A    between atoms: C_17  and  O_18
REMARK   13  A    between atoms: O_18  and  C_19
REMARK   14  A    between atoms: C_19  and  C_20
REMARK                            x       y       z     vdW  Elec       q    Type
REMARK                         _______ _______ _______ _____ _____    ______ ____
ROOT
ATOM      1  N   UNL     1       4.852   5.456  18.132  0.00  0.00    +0.000 N 
ATOM      2  C   UNL     1       5.888   6.012  17.367  0.00  0.00    +0.000 C 
ATOM      3  O   UNL     1       5.913   7.208  17.058  0.00  0.00    +0.000 OA
ENDROOT
BRANCH   1   4
ATOM      4  C   UNL     1       3.771   6.353  18.549  0.00  0.00    +0.000 C 
BRANCH   4   5
ATOM      5  C   UNL     1       2.378   5.740  18.717  0.00  0.00    +0.000 C 
BRANCH   5   6
ATOM      6  C   UNL     1       1.912   5.495  20.153  0.00  0.00    +0.000 C 
BRANCH   6   8
ATOM      7  C   UNL     1       1.914   3.303  21.461  0.00  0.00    +0.000 C 
ATOM      8  C   UNL     1       1.373   4.060  20.263  0.00  0.00    +0.000 C 
ENDBRANCH   6   8
ENDBRANCH   5   6
ENDBRANCH   4   5
ENDBRANCH   1   4
BRANCH   1   9
ATOM      9  C   UNL     1       4.871   4.041  18.564  0.00  0.00    +0.000 C 
BRANCH   9  10
ATOM     10  C   UNL     1       4.105   3.011  17.728  0.00  0.00    +0.000 C 
BRANCH  10  11
ATOM     11  O   UNL     1       3.962   1.780  18.429  0.00  0.00    +0.000 OA
ATOM     12  H   UNL     1       4.855   1.430  18.583  0.00  0.00    +0.000 HD
ENDBRANCH  10  11
ENDBRANCH   9  10
ENDBRANCH   1   9
BRANCH   2  13
ATOM     13  C   UNL     1       6.984   5.079  16.835  0.00  0.00    +0.000 C 
BRANCH  13  14
ATOM     14  O   UNL     1       7.490   5.554  15.593  0.00  0.00    +0.000 OA
BRANCH  14  15
ATOM     15  C   UNL     1       7.016   4.933  14.472  0.00  0.00    +0.000 A 
ATOM     16  C   UNL     1       5.777   4.318  14.617  0.00  0.00    +0.000 A 
ATOM     17  C   UNL     1       5.186   3.660  13.538  0.00  0.00    +0.000 A 
ATOM     18  C   UNL     1       5.810   3.637  12.292  0.00  0.00    +0.000 A 
ATOM     19  C   UNL     1       7.048   4.264  12.141  0.00  0.00    +0.000 A 
ATOM     20  C   UNL     1       7.650   4.911  13.227  0.00  0.00    +0.000 A 
BRANCH  18  21
ATOM     21  O   UNL     1       5.150   2.944  11.317  0.00  0.00    +0.000 OA
BRANCH  21  22
ATOM     22  C   UNL     1       3.729   3.068  11.306  0.00  0.00    +0.000 C 
ATOM     23  C   UNL     1       3.327   3.714   9.993  0.00  0.00    +0.000 C 
ENDBRANCH  21  22
ENDBRANCH  18  21
ENDBRANCH  14  15
ENDBRANCH  13  14
ENDBRANCH   2  13
TORSDOF 12
ENDMDL
MODEL 2
REMARK VINA RESULT:      -6.3      2.183      7.146
REMARK  Name = 
REMARK  14 active torsions:
REMARK  status: ('A' for Active; 'I' for Inactive)
REMARK    1  A    between atoms: C_1  and  C_2
REMARK    2  A    between atoms: C_2  and  C_3
REMARK    3  A    between atoms: C_3  and  C_4
REMARK    4  A    between atoms: C_4  and  C_5
REMARK    5  A    between atoms: C_5  and  N_6
REMARK    6  A    between atoms: N_6  and  C_7
REMARK    7  A    between atoms: C_7  and  C_8
REMARK    8  A    between atoms: C_8  and  O_9
REMARK    9  A    between atoms: C_10  and  C_12
REMARK   10  A    between atoms: C_12  and  O_13
REMARK   11  A    between atoms: O_13  and  C_14
REMARK   12  A    between atoms: C_17  and  O_18
REMARK   13  A    between atoms: O_18  and  C_19
REMARK   14  A    between atoms: C_19  and  C_20
REMARK                            x       y       z     vdW  Elec       q    Type
REMARK                         _______ _______ _______ _____ _____    ______ ____
ROOT
ATOM      1  N   UNL     1       6.156   5.388  16.087  0.00  0.00    +0.000 N 
ATOM      2  C   UNL     1       5.288   6.490  16.118  0.00  0.00    +0.000 C 
ATOM      3  O   UNL     1       4.983   7.119  15.099  0.00  0.00    +0.000 OA
ENDROOT
BRANCH   1   4
ATOM      4  C   UNL     1       6.711   5.007  14.786  0.00  0.00    +0.000 C 
BRANCH   4   5
ATOM      5  C   UNL     1       6.222   3.691  14.175  0.00  0.00    +0.000 C 
BRANCH   5   6
ATOM      6  C   UNL     1       5.112   3.798  13.129  0.00  0.00    +0.000 C 
BRANCH   6   8
ATOM      7  C   UNL     1       7.046   3.071  11.629  0.00  0.00    +0.000 C 
ATOM      8  C   UNL     1       5.547   3.045  11.863  0.00  0.00    +0.000 C 
ENDBRANCH   6   8
ENDBRANCH   5   6
ENDBRANCH   4   5
ENDBRANCH   1   4
BRANCH   1   9
ATOM      9  C   UNL     1       6.452   4.592  17.299  0.00  0.00    +0.000 C 
BRANCH   9  10
ATOM     10  C   UNL     1       7.780   4.831  18.024  0.00  0.00    +0.000 C 
BRANCH  10  11
ATOM     11  O   UNL     1       7.567   5.262  19.364  0.00  0.00    +0.000 OA
ATOM     12  H   UNL     1       8.440   5.416  19.760  0.00  0.00    +0.000 HD
ENDBRANCH  10  11
ENDBRANCH   9  10
ENDBRANCH   1   9
BRANCH   2  13
ATOM     13  C   UNL     1       4.766   6.971  17.478  0.00  0.00    +0.000 C 
BRANCH  13  14
ATOM     14  O   UNL     1       3.345   7.046  17.473  0.00  0.00    +0.000 OA
BRANCH  14  15
ATOM     15  C   UNL     1       2.694   6.196  18.323  0.00  0.00    +0.000 A 
ATOM     16  C   UNL     1       2.324   4.976  17.768  0.00  0.00    +0.000 A 
ATOM     17  C   UNL     1       1.662   4.022  18.542  0.00  0.00    +0.000 A 
ATOM     18  C   UNL     1       1.392   4.262  19.888  0.00  0.00    +0.000 A 
ATOM     19  C   UNL     1       1.774   5.481  20.450  0.00  0.00    +0.000 A 
ATOM     20  C   UNL     1       2.424   6.446  19.671  0.00  0.00    +0.000 A 
BRANCH  18  21
ATOM     21  O   UNL     1       0.719   3.267  20.539  0.00  0.00    +0.000 OA
BRANCH  21  22
ATOM     22  C   UNL     1       1.335   2.758  21.722  0.00  0.00    +0.000 C 
ATOM     23  C   UNL     1       2.761   2.370  21.376  0.00  0.00    +0.000 C 
ENDBRANCH  21  22
ENDBRANCH  18  21
ENDBRANCH  14  15
ENDBRANCH  13  14
ENDBRANCH   2  13
TORSDOF 12
ENDMDL
MODEL 3
REMARK VINA RESULT:      -6.3      2.135      7.070
REMARK  Name = 
REMARK  14 active torsions:
REMARK  status: ('A' for Active; 'I' for Inactive)
REMARK    1  A    between atoms: C_1  and  C_2
REMARK    2  A    between atoms: C_2  and  C_3
REMARK    3  A    between atoms: C_3  and  C_4
REMARK    4  A    between atoms: C_4  and  C_5
REMARK    5  A    between atoms: C_5  and  N_6
REMARK    6  A    between atoms: N_6  and  C_7
REMARK    7  A    between atoms: C_7  and  C_8
REMARK    8  A    between atoms: C_8  and  O_9
REMARK    9  A    between atoms: C_10  and  C_12
REMARK   10  A    between atoms: C_12  and  O_13
REMARK   11  A    between atoms: O_13  and  C_14
REMARK   12  A    between atoms: C_17  and  O_18
REMARK   13  A    between atoms: O_18  and  C_19
REMARK   14  A    between atoms: C_19  and  C_20
REMARK                            x       y       z     vdW  Elec       q    Type
REMARK                         _______ _______ _______ _____ _____    ______ ____
ROOT
ATOM      1  N   UNL     1       6.152   5.437  16.085  0.00  0.00    +0.000 N 
ATOM      2  C   UNL     1       5.303   6.553  16.116  0.00  0.00    +0.000 C 
ATOM      3  O   UNL     1       5.038   7.210  15.103  0.00  0.00    +0.000 OA
ENDROOT
BRANCH   1   4
ATOM      4  C   UNL     1       6.739   5.076  14.793  0.00  0.00    +0.000 C 
BRANCH   4   5
ATOM      5  C   UNL     1       6.327   3.731  14.188  0.00  0.00    +0.000 C 
BRANCH   5   6
ATOM      6  C   UNL     1       5.004   3.709  13.419  0.00  0.00    +0.000 C 
BRANCH   6   8
ATOM      7  C   UNL     1       4.032   3.229  11.108  0.00  0.00    +0.000 C 
ATOM      8  C   UNL     1       5.284   3.317  11.960  0.00  0.00    +0.000 C 
ENDBRANCH   6   8
ENDBRANCH   5   6
ENDBRANCH   4   5
ENDBRANCH   1   4
BRANCH   1   9
ATOM      9  C   UNL     1       6.400   4.609  17.287  0.00  0.00    +0.000 C 
BRANCH   9  10
ATOM     10  C   UNL     1       7.657   4.883  18.117  0.00  0.00    +0.000 C 
BRANCH  10  11
ATOM     11  O   UNL     1       8.682   3.937  17.830  0.00  0.00    +0.000 OA
ATOM     12  H   UNL     1       9.514   4.297  18.182  0.00  0.00    +0.000 HD
ENDBRANCH  10  11
ENDBRANCH   9  10
ENDBRANCH   1   9
BRANCH   2  13
ATOM     13  C   UNL     1       4.748   7.012  17.471  0.00  0.00    +0.000 C 
BRANCH  13  14
ATOM     14  O   UNL     1       3.326   7.030  17.452  0.00  0.00    +0.000 OA
BRANCH  14  15
ATOM     15  C   UNL     1       2.701   6.100  18.235  0.00  0.00    +0.000 A 
ATOM     16  C   UNL     1       2.550   6.459  19.570  0.00  0.00    +0.000 A 
ATOM     17  C   UNL     1       1.918   5.595  20.465  0.00  0.00    +0.000 A 
ATOM     18  C   UNL     1       1.400   4.376  20.029  0.00  0.00    +0.000 A 
ATOM     19  C   UNL     1       1.541   4.019  18.688  0.00  0.00    +0.000 A 
ATOM     20  C   UNL     1       2.189   4.878  17.792  0.00  0.00    +0.000 A 
BRANCH  18  21
ATOM     21  O   UNL     1       0.824   3.603  20.997  0.00  0.00    +0.000 OA
BRANCH  21  22
ATOM     22  C   UNL     1       1.500   2.388  21.320  0.00  0.00    +0.000 C 
ATOM     23  C   UNL     1       2.992   2.668  21.311  0.00  0.00    +0.000 C 
ENDBRANCH  21  22
ENDBRANCH  18  21
ENDBRANCH  14  15
ENDBRANCH  13  14
ENDBRANCH   2  13
TORSDOF 12
ENDMDL
MODEL 4
REMARK VINA RESULT:      -6.2      2.973      6.763
REMARK  Name = 
REMARK  14 active torsions:
REMARK  status: ('A' for Active; 'I' for Inactive)
REMARK    1  A    between atoms: C_1  and  C_2
REMARK    2  A    between atoms: C_2  and  C_3
REMARK    3  A    between atoms: C_3  and  C_4
REMARK    4  A    between atoms: C_4  and  C_5
REMARK    5  A    between atoms: C_5  and  N_6
REMARK    6  A    between atoms: N_6  and  C_7
REMARK    7  A    between atoms: C_7  and  C_8
REMARK    8  A    between atoms: C_8  and  O_9
REMARK    9  A    between atoms: C_10  and  C_12
REMARK   10  A    between atoms: C_12  and  O_13
REMARK   11  A    between atoms: O_13  and  C_14
REMARK   12  A    between atoms: C_17  and  O_18
REMARK   13  A    between atoms: O_18  and  C_19
REMARK   14  A    between atoms: C_19  and  C_20
REMARK                            x       y       z     vdW  Elec       q    Type
REMARK                         _______ _______ _______ _____ _____    ______ ____
ROOT
ATOM      1  N   UNL     1       6.907   6.237  17.236  0.00  0.00    +0.000 N 
ATOM      2  C   UNL     1       6.343   5.710  16.065  0.00  0.00    +0.000 C 
ATOM      3  O   UNL     1       5.816   6.425  15.206  0.00  0.00    +0.000 OA
ENDROOT
BRANCH   1   4
ATOM      4  C   UNL     1       6.838   7.688  17.420  0.00  0.00    +0.000 C 
BRANCH   4   5
ATOM      5  C   UNL     1       8.158   8.462  17.386  0.00  0.00    +0.000 C 
BRANCH   5   6
ATOM      6  C   UNL     1       8.606   9.100  18.703  0.00  0.00    +0.000 C 
BRANCH   6   8
ATOM      7  C   UNL     1       9.989  11.073  19.547  0.00  0.00    +0.000 C 
ATOM      8  C   UNL     1       9.154  10.505  18.414  0.00  0.00    +0.000 C 
ENDBRANCH   6   8
ENDBRANCH   5   6
ENDBRANCH   4   5
ENDBRANCH   1   4
BRANCH   1   9
ATOM      9  C   UNL     1       7.607   5.382  18.221  0.00  0.00    +0.000 C 
BRANCH   9  10
ATOM     10  C   UNL     1       7.145   5.419  19.681  0.00  0.00    +0.000 C 
BRANCH  10  11
ATOM     11  O   UNL     1       8.253   5.475  20.573  0.00  0.00    +0.000 OA
ATOM     12  H   UNL     1       7.995   5.008  21.384  0.00  0.00    +0.000 HD
ENDBRANCH  10  11
ENDBRANCH   9  10
ENDBRANCH   1   9
BRANCH   2  13
ATOM     13  C   UNL     1       6.317   4.186  15.888  0.00  0.00    +0.000 C 
BRANCH  13  14
ATOM     14  O   UNL     1       4.985   3.692  15.979  0.00  0.00    +0.000 OA
BRANCH  14  15
ATOM     15  C   UNL     1       4.380   3.812  17.199  0.00  0.00    +0.000 A 
ATOM     16  C   UNL     1       3.289   4.673  17.234  0.00  0.00    +0.000 A 
ATOM     17  C   UNL     1       2.584   4.869  18.421  0.00  0.00    +0.000 A 
ATOM     18  C   UNL     1       2.939   4.181  19.581  0.00  0.00    +0.000 A 
ATOM     19  C   UNL     1       4.026   3.308  19.544  0.00  0.00    +0.000 A 
ATOM     20  C   UNL     1       4.745   3.122  18.357  0.00  0.00    +0.000 A 
BRANCH  18  21
ATOM     21  O   UNL     1       2.193   4.470  20.688  0.00  0.00    +0.000 OA
BRANCH  21  22
ATOM     22  C   UNL     1       1.047   3.649  20.908  0.00  0.00    +0.000 C 
ATOM     23  C   UNL     1       1.471   2.478  21.775  0.00  0.00    +0.000 C 
ENDBRANCH  21  22
ENDBRANCH  18  21
ENDBRANCH  14  15
ENDBRANCH  13  14
ENDBRANCH   2  13
TORSDOF 12
ENDMDL
MODEL 5
REMARK VINA RESULT:      -6.1      2.595      7.360
REMARK  Name = 
REMARK  14 active torsions:
REMARK  status: ('A' for Active; 'I' for Inactive)
REMARK    1  A    between atoms: C_1  and  C_2
REMARK    2  A    between atoms: C_2  and  C_3
REMARK    3  A    between atoms: C_3  and  C_4
REMARK    4  A    between atoms: C_4  and  C_5
REMARK    5  A    between atoms: C_5  and  N_6
REMARK    6  A    between atoms: N_6  and  C_7
REMARK    7  A    between atoms: C_7  and  C_8
REMARK    8  A    between atoms: C_8  and  O_9
REMARK    9  A    between atoms: C_10  and  C_12
REMARK   10  A    between atoms: C_12  and  O_13
REMARK   11  A    between atoms: O_13  and  C_14
REMARK   12  A    between atoms: C_17  and  O_18
REMARK   13  A    between atoms: O_18  and  C_19
REMARK   14  A    between atoms: C_19  and  C_20
REMARK                            x       y       z     vdW  Elec       q    Type
REMARK                         _______ _______ _______ _____ _____    ______ ____
ROOT
ATOM      1  N   UNL     1       6.109   4.164  17.271  0.00  0.00    +0.000 N 
ATOM      2  C   UNL     1       5.244   3.955  18.355  0.00  0.00    +0.000 C 
ATOM      3  O   UNL     1       5.588   4.164  19.524  0.00  0.00    +0.000 OA
ENDROOT
BRANCH   1   4
ATOM      4  C   UNL     1       7.463   4.632  17.572  0.00  0.00    +0.000 C 
BRANCH   4   5
ATOM      5  C   UNL     1       7.615   6.084  18.034  0.00  0.00    +0.000 C 
BRANCH   5   6
ATOM      6  C   UNL     1       6.997   7.153  17.131  0.00  0.00    +0.000 C 
BRANCH   6   8
ATOM      7  C   UNL     1       8.614   8.463  18.610  0.00  0.00    +0.000 C 
ATOM      8  C   UNL     1       7.511   8.532  17.570  0.00  0.00    +0.000 C 
ENDBRANCH   6   8
ENDBRANCH   5   6
ENDBRANCH   4   5
ENDBRANCH   1   4
BRANCH   1   9
ATOM      9  C   UNL     1       5.663   3.988  15.870  0.00  0.00    +0.000 C 
BRANCH   9  10
ATOM     10  C   UNL     1       6.668   4.253  14.745  0.00  0.00    +0.000 C 
BRANCH  10  11
ATOM     11  O   UNL     1       6.369   3.475  13.590  0.00  0.00    +0.000 OA
ATOM     12  H   UNL     1       6.980   2.720  13.585  0.00  0.00    +0.000 HD
ENDBRANCH  10  11
ENDBRANCH   9  10
ENDBRANCH   1   9
BRANCH   2  13
ATOM     13  C   UNL     1       3.851   3.374  18.079  0.00  0.00    +0.000 C 
BRANCH  13  14
ATOM     14  O   UNL     1       2.960   4.393  17.640  0.00  0.00    +0.000 OA
BRANCH  14  15
ATOM     15  C   UNL     1       2.579   5.307  18.582  0.00  0.00    +0.000 A 
ATOM     16  C   UNL     1       2.725   6.638  18.207  0.00  0.00    +0.000 A 
ATOM     17  C   UNL     1       2.359   7.661  19.081  0.00  0.00    +0.000 A 
ATOM     18  C   UNL     1       1.811   7.367  20.329  0.00  0.00    +0.000 A 
ATOM     19  C   UNL     1       1.652   6.032  20.703  0.00  0.00    +0.000 A 
ATOM     20  C   UNL     1       2.034   5.004  19.833  0.00  0.00    +0.000 A 
BRANCH  18  21
ATOM     21  O   UNL     1       1.513   8.448  21.109  0.00  0.00    +0.000 OA
BRANCH  21  22
ATOM     22  C   UNL     1       0.129   8.671  21.376  0.00  0.00    +0.000 C 
ATOM     23  C   UNL     1      -0.327   9.845  20.529  0.00  0.00    +0.000 C 
ENDBRANCH  21  22
ENDBRANCH  18  21
ENDBRANCH  14  15
ENDBRANCH  13  14
ENDBRANCH   2  13
TORSDOF 12
ENDMDL
MODEL 6
REMARK VINA RESULT:      -6.1      3.123      7.703
REMARK  Name = 
REMARK  14 active torsions:
REMARK  status: ('A' for Active; 'I' for Inactive)
REMARK    1  A    between atoms: C_1  and  C_2
REMARK    2  A    between atoms: C_2  and  C_3
REMARK    3  A    between atoms: C_3  and  C_4
REMARK    4  A    between atoms: C_4  and  C_5
REMARK    5  A    between atoms: C_5  and  N_6
REMARK    6  A    between atoms: N_6  and  C_7
REMARK    7  A    between atoms: C_7  and  C_8
REMARK    8  A    between atoms: C_8  and  O_9
REMARK    9  A    between atoms: C_10  and  C_12
REMARK   10  A    between atoms: C_12  and  O_13
REMARK   11  A    between atoms: O_13  and  C_14
REMARK   12  A    between atoms: C_17  and  O_18
REMARK   13  A    between atoms: O_18  and  C_19
REMARK   14  A    between atoms: C_19  and  C_20
REMARK                            x       y       z     vdW  Elec       q    Type
REMARK                         _______ _______ _______ _____ _____    ______ ____
ROOT
ATOM      1  N   UNL     1       5.305   4.796  16.998  0.00  0.00    +0.000 N 
ATOM      2  C   UNL     1       4.258   4.767  17.932  0.00  0.00    +0.000 C 
ATOM      3  O   UNL     1       3.282   4.019  17.807  0.00  0.00    +0.000 OA
ENDROOT
BRANCH   1   4
ATOM      4  C   UNL     1       5.197   3.905  15.841  0.00  0.00    +0.000 C 
BRANCH   4   5
ATOM      5  C   UNL     1       6.200   4.110  14.703  0.00  0.00    +0.000 C 
BRANCH   5   6
ATOM      6  C   UNL     1       5.721   3.736  13.299  0.00  0.00    +0.000 C 
BRANCH   6   8
ATOM      7  C   UNL     1       7.686   5.164  12.514  0.00  0.00    +0.000 C 
ATOM      8  C   UNL     1       6.894   3.885  12.318  0.00  0.00    +0.000 C 
ENDBRANCH   6   8
ENDBRANCH   5   6
ENDBRANCH   4   5
ENDBRANCH   1   4
BRANCH   1   9
ATOM      9  C   UNL     1       6.507   5.636  17.197  0.00  0.00    +0.000 C 
BRANCH   9  10
ATOM     10  C   UNL     1       7.587   5.148  18.168  0.00  0.00    +0.000 C 
BRANCH  10  11
ATOM     11  O   UNL     1       8.289   4.027  17.639  0.00  0.00    +0.000 OA
ATOM     12  H   UNL     1       8.893   3.712  18.332  0.00  0.00    +0.000 HD
ENDBRANCH  10  11
ENDBRANCH   9  10
ENDBRANCH   1   9
BRANCH   2  13
ATOM     13  C   UNL     1       4.296   5.756  19.104  0.00  0.00    +0.000 C 
BRANCH  13  14
ATOM     14  O   UNL     1       2.989   5.976  19.620  0.00  0.00    +0.000 OA
BRANCH  14  15
ATOM     15  C   UNL     1       2.408   7.172  19.302  0.00  0.00    +0.000 A 
ATOM     16  C   UNL     1       1.691   7.772  20.331  0.00  0.00    +0.000 A 
ATOM     17  C   UNL     1       1.063   9.000  20.129  0.00  0.00    +0.000 A 
ATOM     18  C   UNL     1       1.170   9.661  18.906  0.00  0.00    +0.000 A 
ATOM     19  C   UNL     1       1.899   9.066  17.876  0.00  0.00    +0.000 A 
ATOM     20  C   UNL     1       2.517   7.825  18.072  0.00  0.00    +0.000 A 
BRANCH  18  21
ATOM     21  O   UNL     1       0.494  10.844  18.816  0.00  0.00    +0.000 OA
BRANCH  21  22
ATOM     22  C   UNL     1      -0.886  10.811  19.175  0.00  0.00    +0.000 C 
ATOM     23  C   UNL     1      -1.686  10.475  17.929  0.00  0.00    +0.000 C 
ENDBRANCH  21  22
ENDBRANCH  18  21
ENDBRANCH  14  15
ENDBRANCH  13  14
ENDBRANCH   2  13
TORSDOF 12
ENDMDL
MODEL 7
REMARK VINA RESULT:      -6.0      3.834      8.427
REMARK  Name = 
REMARK  14 active torsions:
REMARK  status: ('A' for Active; 'I' for Inactive)
REMARK    1  A    between atoms: C_1  and  C_2
REMARK    2  A    between atoms: C_2  and  C_3
REMARK    3  A    between atoms: C_3  and  C_4
REMARK    4  A    between atoms: C_4  and  C_5
REMARK    5  A    between atoms: C_5  and  N_6
REMARK    6  A    between atoms: N_6  and  C_7
REMARK    7  A    between atoms: C_7  and  C_8
REMARK    8  A    between atoms: C_8  and  O_9
REMARK    9  A    between atoms: C_10  and  C_12
REMARK   10  A    between atoms: C_12  and  O_13
REMARK   11  A    between atoms: O_13  and  C_14
REMARK   12  A    between atoms: C_17  and  O_18
REMARK   13  A    between atoms: O_18  and  C_19
REMARK   14  A    between atoms: C_19  and  C_20
REMARK                            x       y       z     vdW  Elec       q    Type
REMARK                         _______ _______ _______ _____ _____    ______ ____
ROOT
ATOM      1  N   UNL     1       4.584   4.959  17.690  0.00  0.00    +0.000 N 
ATOM      2  C   UNL     1       3.890   6.176  17.744  0.00  0.00    +0.000 C 
ATOM      3  O   UNL     1       4.367   7.229  17.307  0.00  0.00    +0.000 OA
ENDROOT
BRANCH   1   4
ATOM      4  C   UNL     1       5.925   4.976  17.101  0.00  0.00    +0.000 C 
BRANCH   4   5
ATOM      5  C   UNL     1       7.114   4.895  18.063  0.00  0.00    +0.000 C 
BRANCH   5   6
ATOM      6  C   UNL     1       7.677   6.227  18.561  0.00  0.00    +0.000 C 
BRANCH   6   8
ATOM      7  C   UNL     1       7.927   8.661  17.829  0.00  0.00    +0.000 C 
ATOM      8  C   UNL     1       7.697   7.226  17.393  0.00  0.00    +0.000 C 
ENDBRANCH   6   8
ENDBRANCH   5   6
ENDBRANCH   4   5
ENDBRANCH   1   4
BRANCH   1   9
ATOM      9  C   UNL     1       3.973   3.689  18.143  0.00  0.00    +0.000 C 
BRANCH   9  10
ATOM     10  C   UNL     1       4.208   3.239  19.588  0.00  0.00    +0.000 C 
BRANCH  10  11
ATOM     11  O   UNL     1       4.973   2.039  19.639  0.00  0.00    +0.000 OA
ATOM     12  H   UNL     1       5.844   2.237  19.256  0.00  0.00    +0.000 HD
ENDBRANCH  10  11
ENDBRANCH   9  10
ENDBRANCH   1   9
BRANCH   2  13
ATOM     13  C   UNL     1       2.523   6.207  18.440  0.00  0.00    +0.000 C 
BRANCH  13  14
ATOM     14  O   UNL     1       2.617   6.850  19.705  0.00  0.00    +0.000 OA
BRANCH  14  15
ATOM     15  C   UNL     1       1.765   7.899  19.914  0.00  0.00    +0.000 A 
ATOM     16  C   UNL     1       1.149   7.920  21.161  0.00  0.00    +0.000 A 
ATOM     17  C   UNL     1       0.266   8.947  21.493  0.00  0.00    +0.000 A 
ATOM     18  C   UNL     1       0.013   9.985  20.596  0.00  0.00    +0.000 A 
ATOM     19  C   UNL     1       0.639   9.971  19.350  0.00  0.00    +0.000 A 
ATOM     20  C   UNL     1       1.514   8.932  19.008  0.00  0.00    +0.000 A 
BRANCH  18  21
ATOM     21  O   UNL     1      -0.886  10.921  21.021  0.00  0.00    +0.000 OA
BRANCH  21  22
ATOM     22  C   UNL     1      -0.924  11.168  22.425  0.00  0.00    +0.000 C 
ATOM     23  C   UNL     1      -0.873  12.671  22.637  0.00  0.00    +0.000 C 
ENDBRANCH  21  22
ENDBRANCH  18  21
ENDBRANCH  14  15
ENDBRANCH  13  14
ENDBRANCH   2  13
TORSDOF 12
ENDMDL
MODEL 8
REMARK VINA RESULT:      -6.0      2.703      7.566
REMARK  Name = 
REMARK  14 active torsions:
REMARK  status: ('A' for Active; 'I' for Inactive)
REMARK    1  A    between atoms: C_1  and  C_2
REMARK    2  A    between atoms: C_2  and  C_3
REMARK    3  A    between atoms: C_3  and  C_4
REMARK    4  A    between atoms: C_4  and  C_5
REMARK    5  A    between atoms: C_5  and  N_6
REMARK    6  A    between atoms: N_6  and  C_7
REMARK    7  A    between atoms: C_7  and  C_8
REMARK    8  A    between atoms: C_8  and  O_9
REMARK    9  A    between atoms: C_10  and  C_12
REMARK   10  A    between atoms: C_12  and  O_13
REMARK   11  A    between atoms: O_13  and  C_14
REMARK   12  A    between atoms: C_17  and  O_18
REMARK   13  A    between atoms: O_18  and  C_19
REMARK   14  A    between atoms: C_19  and  C_20
REMARK                            x       y       z     vdW  Elec       q    Type
REMARK                         _______ _______ _______ _____ _____    ______ ____
ROOT
ATOM      1  N   UNL     1       5.947   4.401  17.277  0.00  0.00    +0.000 N 
ATOM      2  C   UNL     1       4.739   4.068  17.907  0.00  0.00    +0.000 C 
ATOM      3  O   UNL     1       3.938   3.264  17.418  0.00  0.00    +0.000 OA
ENDROOT
BRANCH   1   4
ATOM      4  C   UNL     1       6.230   3.765  15.989  0.00  0.00    +0.000 C 
BRANCH   4   5
ATOM      5  C   UNL     1       5.590   4.386  14.745  0.00  0.00    +0.000 C 
BRANCH   5   6
ATOM      6  C   UNL     1       6.449   4.409  13.479  0.00  0.00    +0.000 C 
BRANCH   6   8
ATOM      7  C   UNL     1       4.755   3.427  11.841  0.00  0.00    +0.000 C 
ATOM      8  C   UNL     1       6.057   3.218  12.591  0.00  0.00    +0.000 C 
ENDBRANCH   6   8
ENDBRANCH   5   6
ENDBRANCH   4   5
ENDBRANCH   1   4
BRANCH   1   9
ATOM      9  C   UNL     1       6.936   5.304  17.909  0.00  0.00    +0.000 C 
BRANCH   9  10
ATOM     10  C   UNL     1       7.353   6.572  17.157  0.00  0.00    +0.000 C 
BRANCH  10  11
ATOM     11  O   UNL     1       6.218   7.339  16.769  0.00  0.00    +0.000 OA
ATOM     12  H   UNL     1       6.542   8.084  16.235  0.00  0.00    +0.000 HD
ENDBRANCH  10  11
ENDBRANCH   9  10
ENDBRANCH   1   9
BRANCH   2  13
ATOM     13  C   UNL     1       4.371   4.790  19.211  0.00  0.00    +0.000 C 
BRANCH  13  14
ATOM     14  O   UNL     1       2.962   4.958  19.312  0.00  0.00    +0.000 OA
BRANCH  14  15
ATOM     15  C   UNL     1       2.505   6.246  19.286  0.00  0.00    +0.000 A 
ATOM     16  C   UNL     1       1.937   6.695  20.473  0.00  0.00    +0.000 A 
ATOM     17  C   UNL     1       1.444   7.996  20.571  0.00  0.00    +0.000 A 
ATOM     18  C   UNL     1       1.543   8.875  19.494  0.00  0.00    +0.000 A 
ATOM     19  C   UNL     1       2.123   8.430  18.305  0.00  0.00    +0.000 A 
ATOM     20  C   UNL     1       2.604   7.120  18.201  0.00  0.00    +0.000 A 
BRANCH  18  21
ATOM     21  O   UNL     1       1.005  10.115  19.696  0.00  0.00    +0.000 OA
BRANCH  21  22
ATOM     22  C   UNL     1       0.239  10.654  18.620  0.00  0.00    +0.000 C 
ATOM     23  C   UNL     1      -1.221  10.331  18.879  0.00  0.00    +0.000 C 
ENDBRANCH  21  22
ENDBRANCH  18  21
ENDBRANCH  14  15
ENDBRANCH  13  14
ENDBRANCH   2  13
TORSDOF 12
ENDMDL
MODEL 9
REMARK VINA RESULT:      -5.9      2.969      7.411
REMARK  Name = 
REMARK  14 active torsions:
REMARK  status: ('A' for Active; 'I' for Inactive)
REMARK    1  A    between atoms: C_1  and  C_2
REMARK    2  A    between atoms: C_2  and  C_3
REMARK    3  A    between atoms: C_3  and  C_4
REMARK    4  A    between atoms: C_4  and  C_5
REMARK    5  A    between atoms: C_5  and  N_6
REMARK    6  A    between atoms: N_6  and  C_7
REMARK    7  A    between atoms: C_7  and  C_8
REMARK    8  A    between atoms: C_8  and  O_9
REMARK    9  A    between atoms: C_10  and  C_12
REMARK   10  A    between atoms: C_12  and  O_13
REMARK   11  A    between atoms: O_13  and  C_14
REMARK   12  A    between atoms: C_17  and  O_18
REMARK   13  A    between atoms: O_18  and  C_19
REMARK   14  A    between atoms: C_19  and  C_20
REMARK                            x       y       z     vdW  Elec       q    Type
REMARK                         _______ _______ _______ _____ _____    ______ ____
ROOT
ATOM      1  N   UNL     1       6.226   5.444  17.414  0.00  0.00    +0.000 N 
ATOM      2  C   UNL     1       5.470   4.640  18.280  0.00  0.00    +0.000 C 
ATOM      3  O   UNL     1       5.785   4.462  19.461  0.00  0.00    +0.000 OA
ENDROOT
BRANCH   1   4
ATOM      4  C   UNL     1       7.433   6.069  17.961  0.00  0.00    +0.000 C 
BRANCH   4   5
ATOM      5  C   UNL     1       7.703   7.526  17.576  0.00  0.00    +0.000 C 
BRANCH   5   6
ATOM      6  C   UNL     1       8.502   8.357  18.582  0.00  0.00    +0.000 C 
BRANCH   6   8
ATOM      7  C   UNL     1       9.560  10.673  18.774  0.00  0.00    +0.000 C 
ATOM      8  C   UNL     1       8.461   9.831  18.151  0.00  0.00    +0.000 C 
ENDBRANCH   6   8
ENDBRANCH   5   6
ENDBRANCH   4   5
ENDBRANCH   1   4
BRANCH   1   9
ATOM      9  C   UNL     1       5.797   5.716  16.024  0.00  0.00    +0.000 C 
BRANCH   9  10
ATOM     10  C   UNL     1       6.454   4.924  14.889  0.00  0.00    +0.000 C 
BRANCH  10  11
ATOM     11  O   UNL     1       7.728   5.464  14.551  0.00  0.00    +0.000 OA
ATOM     12  H   UNL     1       8.242   5.524  15.373  0.00  0.00    +0.000 HD
ENDBRANCH  10  11
ENDBRANCH   9  10
ENDBRANCH   1   9
BRANCH   2  13
ATOM     13  C   UNL     1       4.254   3.897  17.711  0.00  0.00    +0.000 C 
BRANCH  13  14
ATOM     14  O   UNL     1       3.140   4.010  18.589  0.00  0.00    +0.000 OA
BRANCH  14  15
ATOM     15  C   UNL     1       2.750   5.281  18.908  0.00  0.00    +0.000 A 
ATOM     16  C   UNL     1       2.674   6.162  17.834  0.00  0.00    +0.000 A 
ATOM     17  C   UNL     1       2.277   7.484  18.034  0.00  0.00    +0.000 A 
ATOM     18  C   UNL     1       1.920   7.934  19.305  0.00  0.00    +0.000 A 
ATOM     19  C   UNL     1       1.985   7.048  20.381  0.00  0.00    +0.000 A 
ATOM     20  C   UNL     1       2.398   5.725  20.184  0.00  0.00    +0.000 A 
BRANCH  18  21
ATOM     21  O   UNL     1       1.572   9.252  19.384  0.00  0.00    +0.000 OA
BRANCH  21  22
ATOM     22  C   UNL     1       0.655   9.601  20.421  0.00  0.00    +0.000 C 
ATOM     23  C   UNL     1      -0.596  10.162  19.769  0.00  0.00    +0.000 C 
ENDBRANCH  21  22
ENDBRANCH  18  21
ENDBRANCH  14  15
ENDBRANCH  13  14
ENDBRANCH   2  13
TORSDOF 12
ENDMDL
