MODEL 1
REMARK VINA RESULT:      -9.1      0.000      0.000
REMARK  Name = 
REMARK  7 active torsions:
REMARK  status: ('A' for Active; 'I' for Inactive)
REMARK    1  A    between atoms: C_1  and  O_2
REMARK    2  A    between atoms: O_2  and  C_3
REMARK    3  A    between atoms: C_8  and  C_9
REMARK    4  A    between atoms: C_11  and  N_12
REMARK    5  A    between atoms: N_12  and  C_13
REMARK    6  A    between atoms: C_16  and  C_17
REMARK    7  A    between atoms: C_24  and  C_25
REMARK                            x       y       z     vdW  Elec       q    Type
REMARK                         _______ _______ _______ _____ _____    ______ ____
ROOT
ATOM      1  N   UNL     1       3.182   6.746  19.707  0.00  0.00    +0.000 N 
ATOM      2  H   UNL     1       3.528   6.553  20.645  0.00  0.00    +0.000 HD
ENDROOT
BRANCH   1  11
ATOM      3  C   UNL     1       6.187   5.653  16.675  0.00  0.00    +0.000 A 
ATOM      4  C   UNL     1       5.930   4.523  15.905  0.00  0.00    +0.000 A 
ATOM      5  C   UNL     1       4.814   3.737  16.191  0.00  0.00    +0.000 A 
ATOM      6  C   UNL     1       3.936   4.047  17.212  0.00  0.00    +0.000 A 
ATOM      7  N   UNL     1       2.923   3.204  17.410  0.00  0.00    +0.000 NA
ATOM      8  C   UNL     1       2.041   3.464  18.392  0.00  0.00    +0.000 A 
ATOM      9  C   UNL     1       0.926   2.484  18.597  0.00  0.00    +0.000 C 
ATOM     10  C   UNL     1       2.130   4.597  19.182  0.00  0.00    +0.000 A 
ATOM     11  C   UNL     1       3.148   5.532  18.944  0.00  0.00    +0.000 A 
ATOM     12  C   UNL     1       4.142   5.222  17.974  0.00  0.00    +0.000 A 
ATOM     13  C   UNL     1       5.291   6.006  17.691  0.00  0.00    +0.000 A 
BRANCH   3  15
ATOM     14  C   UNL     1       7.517   7.417  17.557  0.00  0.00    +0.000 C 
ATOM     15  O   UNL     1       7.271   6.475  16.513  0.00  0.00    +0.000 OA
ENDBRANCH   3  15
ENDBRANCH   1  11
BRANCH   1  16
ATOM     16  C   UNL     1       2.181   7.754  19.689  0.00  0.00    +0.000 A 
ATOM     17  C   UNL     1       1.920   8.514  18.554  0.00  0.00    +0.000 A 
ATOM     18  C   UNL     1       0.957   9.548  18.578  0.00  0.00    +0.000 A 
ATOM     19  C   UNL     1       0.217   9.870  19.735  0.00  0.00    +0.000 A 
ATOM     20  C   UNL     1       0.399   9.031  20.861  0.00  0.00    +0.000 A 
ATOM     21  C   UNL     1      -0.311   9.095  22.192  0.00  0.00    +0.000 C 
ATOM     22  C   UNL     1       1.356   7.980  20.796  0.00  0.00    +0.000 A 
BRANCH  19  23
ATOM     23  C   UNL     1      -0.700  11.097  19.700  0.00  0.00    +0.000 C 
ATOM     24  N   UNL     1      -1.749  11.098  18.937  0.00  0.00    +0.000 NA
ATOM     25  N   UNL     1      -2.609  12.176  18.975  0.00  0.00    +0.000 N 
ATOM     26  C   UNL     1      -2.788  12.855  20.163  0.00  0.00    +0.000 C 
ATOM     27  O   UNL     1      -3.874  13.228  20.586  0.00  0.00    +0.000 OA
ATOM     28  C   UNL     1      -1.494  13.310  20.771  0.00  0.00    +0.000 C 
ATOM     29  C   UNL     1      -0.336  12.355  20.499  0.00  0.00    +0.000 C 
ATOM     30  H   UNL     1      -2.313  12.825  18.241  0.00  0.00    +0.000 HD
ENDBRANCH  19  23
ENDBRANCH   1  16
TORSDOF 4
ENDMDL
MODEL 2
REMARK VINA RESULT:      -8.7      1.449      1.541
REMARK  Name = 
REMARK  7 active torsions:
REMARK  status: ('A' for Active; 'I' for Inactive)
REMARK    1  A    between atoms: C_1  and  O_2
REMARK    2  A    between atoms: O_2  and  C_3
REMARK    3  A    between atoms: C_8  and  C_9
REMARK    4  A    between atoms: C_11  and  N_12
REMARK    5  A    between atoms: N_12  and  C_13
REMARK    6  A    between atoms: C_16  and  C_17
REMARK    7  A    between atoms: C_24  and  C_25
REMARK                            x       y       z     vdW  Elec       q    Type
REMARK                         _______ _______ _______ _____ _____    ______ ____
ROOT
ATOM      1  N   UNL     1       2.687   6.307  20.295  0.00  0.00    +0.000 N 
ATOM      2  H   UNL     1       2.455   6.036  21.249  0.00  0.00    +0.000 HD
ENDROOT
BRANCH   1  11
ATOM      3  C   UNL     1       6.049   5.337  17.617  0.00  0.00    +0.000 A 
ATOM      4  C   UNL     1       5.879   4.262  16.750  0.00  0.00    +0.000 A 
ATOM      5  C   UNL     1       4.725   3.484  16.837  0.00  0.00    +0.000 A 
ATOM      6  C   UNL     1       3.725   3.751  17.753  0.00  0.00    +0.000 A 
ATOM      7  N   UNL     1       2.683   2.919  17.764  0.00  0.00    +0.000 NA
ATOM      8  C   UNL     1       1.683   3.138  18.637  0.00  0.00    +0.000 A 
ATOM      9  C   UNL     1       0.538   2.172  18.633  0.00  0.00    +0.000 C 
ATOM     10  C   UNL     1       1.684   4.219  19.502  0.00  0.00    +0.000 A 
ATOM     11  C   UNL     1       2.737   5.144  19.459  0.00  0.00    +0.000 A 
ATOM     12  C   UNL     1       3.845   4.871  18.609  0.00  0.00    +0.000 A 
ATOM     13  C   UNL     1       5.032   5.646  18.529  0.00  0.00    +0.000 A 
BRANCH   3  15
ATOM     14  C   UNL     1       6.956   7.514  17.309  0.00  0.00    +0.000 C 
ATOM     15  O   UNL     1       7.156   6.143  17.651  0.00  0.00    +0.000 OA
ENDBRANCH   3  15
ENDBRANCH   1  11
BRANCH   1  16
ATOM     16  C   UNL     1       2.119   7.558  19.928  0.00  0.00    +0.000 A 
ATOM     17  C   UNL     1       2.219   8.062  18.636  0.00  0.00    +0.000 A 
ATOM     18  C   UNL     1       1.694   9.332  18.310  0.00  0.00    +0.000 A 
ATOM     19  C   UNL     1       1.051  10.155  19.259  0.00  0.00    +0.000 A 
ATOM     20  C   UNL     1       0.850   9.603  20.547  0.00  0.00    +0.000 A 
ATOM     21  C   UNL     1       0.133  10.224  21.722  0.00  0.00    +0.000 C 
ATOM     22  C   UNL     1       1.367   8.309  20.836  0.00  0.00    +0.000 A 
BRANCH  19  23
ATOM     23  C   UNL     1       0.642  11.571  18.842  0.00  0.00    +0.000 C 
ATOM     24  N   UNL     1      -0.604  11.841  18.606  0.00  0.00    +0.000 NA
ATOM     25  N   UNL     1      -0.969  13.138  18.310  0.00  0.00    +0.000 N 
ATOM     26  C   UNL     1      -0.278  14.183  18.889  0.00  0.00    +0.000 C 
ATOM     27  O   UNL     1      -0.805  15.183  19.356  0.00  0.00    +0.000 OA
ATOM     28  C   UNL     1       1.204  14.087  18.670  0.00  0.00    +0.000 C 
ATOM     29  C   UNL     1       1.711  12.649  18.622  0.00  0.00    +0.000 C 
ATOM     30  H   UNL     1      -0.957  13.231  17.291  0.00  0.00    +0.000 HD
ENDBRANCH  19  23
ENDBRANCH   1  16
TORSDOF 4
ENDMDL
MODEL 3
REMARK VINA RESULT:      -8.6      1.383      1.467
REMARK  Name = 
REMARK  7 active torsions:
REMARK  status: ('A' for Active; 'I' for Inactive)
REMARK    1  A    between atoms: C_1  and  O_2
REMARK    2  A    between atoms: O_2  and  C_3
REMARK    3  A    between atoms: C_8  and  C_9
REMARK    4  A    between atoms: C_11  and  N_12
REMARK    5  A    between atoms: N_12  and  C_13
REMARK    6  A    between atoms: C_16  and  C_17
REMARK    7  A    between atoms: C_24  and  C_25
REMARK                            x       y       z     vdW  Elec       q    Type
REMARK                         _______ _______ _______ _____ _____    ______ ____
ROOT
ATOM      1  N   UNL     1       2.986   6.221  20.137  0.00  0.00    +0.000 N 
ATOM      2  H   UNL     1       3.016   5.863  21.089  0.00  0.00    +0.000 HD
ENDROOT
BRANCH   1  11
ATOM      3  C   UNL     1       5.815   5.837  16.780  0.00  0.00    +0.000 A 
ATOM      4  C   UNL     1       5.585   4.808  15.872  0.00  0.00    +0.000 A 
ATOM      5  C   UNL     1       4.561   3.893  16.114  0.00  0.00    +0.000 A 
ATOM      6  C   UNL     1       3.746   3.978  17.228  0.00  0.00    +0.000 A 
ATOM      7  N   UNL     1       2.821   3.028  17.368  0.00  0.00    +0.000 NA
ATOM      8  C   UNL     1       2.003   3.068  18.435  0.00  0.00    +0.000 A 
ATOM      9  C   UNL     1       0.988   1.974  18.570  0.00  0.00    +0.000 C 
ATOM     10  C   UNL     1       2.066   4.082  19.375  0.00  0.00    +0.000 A 
ATOM     11  C   UNL     1       2.986   5.128  19.208  0.00  0.00    +0.000 A 
ATOM     12  C   UNL     1       3.920   5.046  18.138  0.00  0.00    +0.000 A 
ATOM     13  C   UNL     1       4.978   5.962  17.896  0.00  0.00    +0.000 A 
BRANCH   3  15
ATOM     14  C   UNL     1       7.591   7.010  17.840  0.00  0.00    +0.000 C 
ATOM     15  O   UNL     1       6.814   6.766  16.667  0.00  0.00    +0.000 OA
ENDBRANCH   3  15
ENDBRANCH   1  11
BRANCH   1  16
ATOM     16  C   UNL     1       2.197   7.398  20.018  0.00  0.00    +0.000 A 
ATOM     17  C   UNL     1       2.163   8.148  18.849  0.00  0.00    +0.000 A 
ATOM     18  C   UNL     1       1.415   9.344  18.775  0.00  0.00    +0.000 A 
ATOM     19  C   UNL     1       0.672   9.843  19.865  0.00  0.00    +0.000 A 
ATOM     20  C   UNL     1       0.613   9.030  21.022  0.00  0.00    +0.000 A 
ATOM     21  C   UNL     1      -0.160   9.277  22.294  0.00  0.00    +0.000 C 
ATOM     22  C   UNL     1       1.357   7.817  21.055  0.00  0.00    +0.000 A 
BRANCH  19  23
ATOM     23  C   UNL     1       0.008  11.218  19.730  0.00  0.00    +0.000 C 
ATOM     24  N   UNL     1       0.336  12.176  20.541  0.00  0.00    +0.000 NA
ATOM     25  N   UNL     1      -0.209  13.430  20.358  0.00  0.00    +0.000 N 
ATOM     26  C   UNL     1      -0.494  13.862  19.079  0.00  0.00    +0.000 C 
ATOM     27  O   UNL     1      -0.248  14.985  18.660  0.00  0.00    +0.000 OA
ATOM     28  C   UNL     1      -1.359  12.898  18.321  0.00  0.00    +0.000 C 
ATOM     29  C   UNL     1      -1.100  11.441  18.694  0.00  0.00    +0.000 C 
ATOM     30  H   UNL     1      -1.048  13.484  20.942  0.00  0.00    +0.000 HD
ENDBRANCH  19  23
ENDBRANCH   1  16
TORSDOF 4
ENDMDL
MODEL 4
REMARK VINA RESULT:      -8.6      0.711      1.457
REMARK  Name = 
REMARK  7 active torsions:
REMARK  status: ('A' for Active; 'I' for Inactive)
REMARK    1  A    between atoms: C_1  and  O_2
REMARK    2  A    between atoms: O_2  and  C_3
REMARK    3  A    between atoms: C_8  and  C_9
REMARK    4  A    between atoms: C_11  and  N_12
REMARK    5  A    between atoms: N_12  and  C_13
REMARK    6  A    between atoms: C_16  and  C_17
REMARK    7  A    between atoms: C_24  and  C_25
REMARK                            x       y       z     vdW  Elec       q    Type
REMARK                         _______ _______ _______ _____ _____    ______ ____
ROOT
ATOM      1  N   UNL     1       2.683   6.516  20.329  0.00  0.00    +0.000 N 
ATOM      2  H   UNL     1       2.769   6.166  21.282  0.00  0.00    +0.000 HD
ENDROOT
BRANCH   1  11
ATOM      3  C   UNL     1       5.474   6.132  16.940  0.00  0.00    +0.000 A 
ATOM      4  C   UNL     1       5.241   5.095  16.042  0.00  0.00    +0.000 A 
ATOM      5  C   UNL     1       4.227   4.174  16.302  0.00  0.00    +0.000 A 
ATOM      6  C   UNL     1       3.424   4.260  17.425  0.00  0.00    +0.000 A 
ATOM      7  N   UNL     1       2.508   3.305  17.583  0.00  0.00    +0.000 NA
ATOM      8  C   UNL     1       1.702   3.346  18.659  0.00  0.00    +0.000 A 
ATOM      9  C   UNL     1       0.698   2.245  18.813  0.00  0.00    +0.000 C 
ATOM     10  C   UNL     1       1.770   4.366  19.592  0.00  0.00    +0.000 A 
ATOM     11  C   UNL     1       2.680   5.418  19.408  0.00  0.00    +0.000 A 
ATOM     12  C   UNL     1       3.601   5.336  18.327  0.00  0.00    +0.000 A 
ATOM     13  C   UNL     1       4.650   6.258  18.066  0.00  0.00    +0.000 A 
BRANCH   3  15
ATOM     14  C   UNL     1       7.502   7.037  17.790  0.00  0.00    +0.000 C 
ATOM     15  O   UNL     1       6.465   7.067  16.810  0.00  0.00    +0.000 OA
ENDBRANCH   3  15
ENDBRANCH   1  11
BRANCH   1  16
ATOM     16  C   UNL     1       1.849   7.664  20.241  0.00  0.00    +0.000 A 
ATOM     17  C   UNL     1       0.895   7.958  21.208  0.00  0.00    +0.000 A 
ATOM     18  C   UNL     1       0.040   9.075  21.068  0.00  0.00    +0.000 A 
ATOM     19  C   UNL     1       0.099   9.942  19.957  0.00  0.00    +0.000 A 
ATOM     20  C   UNL     1       1.138   9.712  19.024  0.00  0.00    +0.000 A 
ATOM     21  C   UNL     1       1.480  10.520  17.796  0.00  0.00    +0.000 C 
ATOM     22  C   UNL     1       2.000   8.594  19.208  0.00  0.00    +0.000 A 
BRANCH  19  23
ATOM     23  C   UNL     1      -0.962  11.040  19.830  0.00  0.00    +0.000 C 
ATOM     24  N   UNL     1      -1.704  11.102  18.767  0.00  0.00    +0.000 NA
ATOM     25  N   UNL     1      -2.708  12.045  18.700  0.00  0.00    +0.000 N 
ATOM     26  C   UNL     1      -3.367  12.413  19.855  0.00  0.00    +0.000 C 
ATOM     27  O   UNL     1      -4.578  12.562  19.940  0.00  0.00    +0.000 OA
ATOM     28  C   UNL     1      -2.429  12.854  20.941  0.00  0.00    +0.000 C 
ATOM     29  C   UNL     1      -1.095  12.114  20.916  0.00  0.00    +0.000 C 
ATOM     30  H   UNL     1      -2.317  12.872  18.240  0.00  0.00    +0.000 HD
ENDBRANCH  19  23
ENDBRANCH   1  16
TORSDOF 4
ENDMDL
MODEL 5
REMARK VINA RESULT:      -8.5      2.640      8.626
REMARK  Name = 
REMARK  7 active torsions:
REMARK  status: ('A' for Active; 'I' for Inactive)
REMARK    1  A    between atoms: C_1  and  O_2
REMARK    2  A    between atoms: O_2  and  C_3
REMARK    3  A    between atoms: C_8  and  C_9
REMARK    4  A    between atoms: C_11  and  N_12
REMARK    5  A    between atoms: N_12  and  C_13
REMARK    6  A    between atoms: C_16  and  C_17
REMARK    7  A    between atoms: C_24  and  C_25
REMARK                            x       y       z     vdW  Elec       q    Type
REMARK                         _______ _______ _______ _____ _____    ______ ____
ROOT
ATOM      1  N   UNL     1       1.546  10.099  17.862  0.00  0.00    +0.000 N 
ATOM      2  H   UNL     1       1.706  10.395  16.900  0.00  0.00    +0.000 HD
ENDROOT
BRANCH   1  11
ATOM      3  C   UNL     1       0.843  13.063  21.046  0.00  0.00    +0.000 A 
ATOM      4  C   UNL     1      -0.472  13.250  21.459  0.00  0.00    +0.000 A 
ATOM      5  C   UNL     1      -1.503  12.591  20.790  0.00  0.00    +0.000 A 
ATOM      6  C   UNL     1      -1.265  11.738  19.728  0.00  0.00    +0.000 A 
ATOM      7  N   UNL     1      -2.333  11.189  19.148  0.00  0.00    +0.000 NA
ATOM      8  C   UNL     1      -2.152  10.351  18.112  0.00  0.00    +0.000 A 
ATOM      9  C   UNL     1      -3.375   9.768  17.473  0.00  0.00    +0.000 C 
ATOM     10  C   UNL     1      -0.892  10.012  17.649  0.00  0.00    +0.000 A 
ATOM     11  C   UNL     1       0.246  10.524  18.290  0.00  0.00    +0.000 A 
ATOM     12  C   UNL     1       0.067  11.485  19.323  0.00  0.00    +0.000 A 
ATOM     13  C   UNL     1       1.110  12.176  19.996  0.00  0.00    +0.000 A 
BRANCH   3  15
ATOM     14  C   UNL     1       3.022  13.960  20.722  0.00  0.00    +0.000 C 
ATOM     15  O   UNL     1       1.929  13.687  21.599  0.00  0.00    +0.000 OA
ENDBRANCH   3  15
ENDBRANCH   1  11
BRANCH   1  16
ATOM     16  C   UNL     1       2.133   8.837  18.151  0.00  0.00    +0.000 A 
ATOM     17  C   UNL     1       3.118   8.279  17.344  0.00  0.00    +0.000 A 
ATOM     18  C   UNL     1       3.646   6.999  17.622  0.00  0.00    +0.000 A 
ATOM     19  C   UNL     1       3.212   6.220  18.715  0.00  0.00    +0.000 A 
ATOM     20  C   UNL     1       2.289   6.825  19.602  0.00  0.00    +0.000 A 
ATOM     21  C   UNL     1       1.720   6.257  20.879  0.00  0.00    +0.000 C 
ATOM     22  C   UNL     1       1.797   8.128  19.309  0.00  0.00    +0.000 A 
BRANCH  19  23
ATOM     23  C   UNL     1       3.743   4.789  18.850  0.00  0.00    +0.000 C 
ATOM     24  N   UNL     1       4.998   4.587  19.108  0.00  0.00    +0.000 NA
ATOM     25  N   UNL     1       5.447   3.298  19.307  0.00  0.00    +0.000 N 
ATOM     26  C   UNL     1       4.607   2.374  19.894  0.00  0.00    +0.000 C 
ATOM     27  O   UNL     1       4.953   1.579  20.757  0.00  0.00    +0.000 OA
ATOM     28  C   UNL     1       3.283   2.270  19.195  0.00  0.00    +0.000 C 
ATOM     29  C   UNL     1       2.814   3.594  18.600  0.00  0.00    +0.000 C 
ATOM     30  H   UNL     1       5.776   2.949  18.403  0.00  0.00    +0.000 HD
ENDBRANCH  19  23
ENDBRANCH   1  16
TORSDOF 4
ENDMDL
MODEL 6
REMARK VINA RESULT:      -8.5      1.178      1.287
REMARK  Name = 
REMARK  7 active torsions:
REMARK  status: ('A' for Active; 'I' for Inactive)
REMARK    1  A    between atoms: C_1  and  O_2
REMARK    2  A    between atoms: O_2  and  C_3
REMARK    3  A    between atoms: C_8  and  C_9
REMARK    4  A    between atoms: C_11  and  N_12
REMARK    5  A    between atoms: N_12  and  C_13
REMARK    6  A    between atoms: C_16  and  C_17
REMARK    7  A    between atoms: C_24  and  C_25
REMARK                            x       y       z     vdW  Elec       q    Type
REMARK                         _______ _______ _______ _____ _____    ______ ____
ROOT
ATOM      1  N   UNL     1       2.969   7.271  19.910  0.00  0.00    +0.000 N 
ATOM      2  H   UNL     1       3.604   7.432  20.689  0.00  0.00    +0.000 HD
ENDROOT
BRANCH   1  11
ATOM      3  C   UNL     1       4.956   5.235  16.545  0.00  0.00    +0.000 A 
ATOM      4  C   UNL     1       4.631   3.899  16.331  0.00  0.00    +0.000 A 
ATOM      5  C   UNL     1       3.796   3.242  17.234  0.00  0.00    +0.000 A 
ATOM      6  C   UNL     1       3.260   3.877  18.338  0.00  0.00    +0.000 A 
ATOM      7  N   UNL     1       2.501   3.138  19.146  0.00  0.00    +0.000 NA
ATOM      8  C   UNL     1       1.955   3.712  20.234  0.00  0.00    +0.000 A 
ATOM      9  C   UNL     1       1.123   2.845  21.130  0.00  0.00    +0.000 C 
ATOM     10  C   UNL     1       2.129   5.054  20.525  0.00  0.00    +0.000 A 
ATOM     11  C   UNL     1       2.868   5.865  19.650  0.00  0.00    +0.000 A 
ATOM     12  C   UNL     1       3.528   5.250  18.550  0.00  0.00    +0.000 A 
ATOM     13  C   UNL     1       4.396   5.907  17.638  0.00  0.00    +0.000 A 
BRANCH   3  15
ATOM     14  C   UNL     1       6.857   5.255  15.115  0.00  0.00    +0.000 C 
ATOM     15  O   UNL     1       5.797   5.969  15.751  0.00  0.00    +0.000 OA
ENDBRANCH   3  15
ENDBRANCH   1  11
BRANCH   1  16
ATOM     16  C   UNL     1       1.884   8.189  19.889  0.00  0.00    +0.000 A 
ATOM     17  C   UNL     1       1.504   8.856  18.730  0.00  0.00    +0.000 A 
ATOM     18  C   UNL     1       0.458   9.805  18.748  0.00  0.00    +0.000 A 
ATOM     19  C   UNL     1      -0.251  10.132  19.923  0.00  0.00    +0.000 A 
ATOM     20  C   UNL     1       0.056   9.379  21.082  0.00  0.00    +0.000 A 
ATOM     21  C   UNL     1      -0.592   9.463  22.443  0.00  0.00    +0.000 C 
ATOM     22  C   UNL     1       1.097   8.410  21.024  0.00  0.00    +0.000 A 
BRANCH  19  23
ATOM     23  C   UNL     1      -1.271  11.273  19.869  0.00  0.00    +0.000 C 
ATOM     24  N   UNL     1      -2.177  11.288  18.940  0.00  0.00    +0.000 NA
ATOM     25  N   UNL     1      -3.137  12.277  18.950  0.00  0.00    +0.000 N 
ATOM     26  C   UNL     1      -3.578  12.778  20.158  0.00  0.00    +0.000 C 
ATOM     27  O   UNL     1      -4.751  13.002  20.425  0.00  0.00    +0.000 OA
ATOM     28  C   UNL     1      -2.454  13.255  21.031  0.00  0.00    +0.000 C 
ATOM     29  C   UNL     1      -1.176  12.442  20.858  0.00  0.00    +0.000 C 
ATOM     30  H   UNL     1      -2.795  13.039  18.358  0.00  0.00    +0.000 HD
ENDBRANCH  19  23
ENDBRANCH   1  16
TORSDOF 4
ENDMDL
MODEL 7
REMARK VINA RESULT:      -8.5      1.925      3.380
REMARK  Name = 
REMARK  7 active torsions:
REMARK  status: ('A' for Active; 'I' for Inactive)
REMARK    1  A    between atoms: C_1  and  O_2
REMARK    2  A    between atoms: O_2  and  C_3
REMARK    3  A    between atoms: C_8  and  C_9
REMARK    4  A    between atoms: C_11  and  N_12
REMARK    5  A    between atoms: N_12  and  C_13
REMARK    6  A    between atoms: C_16  and  C_17
REMARK    7  A    between atoms: C_24  and  C_25
REMARK                            x       y       z     vdW  Elec       q    Type
REMARK                         _______ _______ _______ _____ _____    ______ ____
ROOT
ATOM      1  N   UNL     1       3.685   6.992  18.973  0.00  0.00    +0.000 N 
ATOM      2  H   UNL     1       3.987   6.724  19.908  0.00  0.00    +0.000 HD
ENDROOT
BRANCH   1  11
ATOM      3  C   UNL     1       1.747   3.062  19.447  0.00  0.00    +0.000 A 
ATOM      4  C   UNL     1       2.151   2.048  18.584  0.00  0.00    +0.000 A 
ATOM      5  C   UNL     1       3.048   2.337  17.557  0.00  0.00    +0.000 A 
ATOM      6  C   UNL     1       3.570   3.603  17.368  0.00  0.00    +0.000 A 
ATOM      7  N   UNL     1       4.395   3.764  16.334  0.00  0.00    +0.000 NA
ATOM      8  C   UNL     1       4.930   4.979  16.110  0.00  0.00    +0.000 A 
ATOM      9  C   UNL     1       5.837   5.127  14.927  0.00  0.00    +0.000 C 
ATOM     10  C   UNL     1       4.679   6.059  16.938  0.00  0.00    +0.000 A 
ATOM     11  C   UNL     1       3.868   5.893  18.071  0.00  0.00    +0.000 A 
ATOM     12  C   UNL     1       3.221   4.640  18.265  0.00  0.00    +0.000 A 
ATOM     13  C   UNL     1       2.291   4.344  19.296  0.00  0.00    +0.000 A 
BRANCH   3  15
ATOM     14  C   UNL     1       1.378   2.664  21.762  0.00  0.00    +0.000 C 
ATOM     15  O   UNL     1       0.842   2.906  20.462  0.00  0.00    +0.000 OA
ENDBRANCH   3  15
ENDBRANCH   1  11
BRANCH   1  16
ATOM     16  C   UNL     1       2.559   7.860  18.989  0.00  0.00    +0.000 A 
ATOM     17  C   UNL     1       2.144   8.549  17.855  0.00  0.00    +0.000 A 
ATOM     18  C   UNL     1       1.056   9.449  17.911  0.00  0.00    +0.000 A 
ATOM     19  C   UNL     1       0.339   9.702  19.099  0.00  0.00    +0.000 A 
ATOM     20  C   UNL     1       0.686   8.924  20.230  0.00  0.00    +0.000 A 
ATOM     21  C   UNL     1       0.043   8.931  21.595  0.00  0.00    +0.000 C 
ATOM     22  C   UNL     1       1.770   8.006  20.134  0.00  0.00    +0.000 A 
BRANCH  19  23
ATOM     23  C   UNL     1      -0.732  10.798  19.089  0.00  0.00    +0.000 C 
ATOM     24  N   UNL     1      -1.833  10.619  18.427  0.00  0.00    +0.000 NA
ATOM     25  N   UNL     1      -2.821  11.579  18.492  0.00  0.00    +0.000 N 
ATOM     26  C   UNL     1      -2.988  12.299  19.657  0.00  0.00    +0.000 C 
ATOM     27  O   UNL     1      -4.074  12.555  20.159  0.00  0.00    +0.000 OA
ATOM     28  C   UNL     1      -1.718  12.952  20.120  0.00  0.00    +0.000 C 
ATOM     29  C   UNL     1      -0.471  12.137  19.790  0.00  0.00    +0.000 C 
ATOM     30  H   UNL     1      -2.678  12.216  17.703  0.00  0.00    +0.000 HD
ENDBRANCH  19  23
ENDBRANCH   1  16
TORSDOF 4
ENDMDL
MODEL 8
REMARK VINA RESULT:      -8.4      2.720      8.835
REMARK  Name = 
REMARK  7 active torsions:
REMARK  status: ('A' for Active; 'I' for Inactive)
REMARK    1  A    between atoms: C_1  and  O_2
REMARK    2  A    between atoms: O_2  and  C_3
REMARK    3  A    between atoms: C_8  and  C_9
REMARK    4  A    between atoms: C_11  and  N_12
REMARK    5  A    between atoms: N_12  and  C_13
REMARK    6  A    between atoms: C_16  and  C_17
REMARK    7  A    between atoms: C_24  and  C_25
REMARK                            x       y       z     vdW  Elec       q    Type
REMARK                         _______ _______ _______ _____ _____    ______ ____
ROOT
ATOM      1  N   UNL     1       0.492  11.518  18.992  0.00  0.00    +0.000 N 
ATOM      2  H   UNL     1       0.755  12.127  18.219  0.00  0.00    +0.000 HD
ENDROOT
BRANCH   1  11
ATOM      3  C   UNL     1      -2.905  10.553  16.357  0.00  0.00    +0.000 A 
ATOM      4  C   UNL     1      -4.166  10.977  16.767  0.00  0.00    +0.000 A 
ATOM      5  C   UNL     1      -4.317  11.577  18.017  0.00  0.00    +0.000 A 
ATOM      6  C   UNL     1      -3.248  11.783  18.869  0.00  0.00    +0.000 A 
ATOM      7  N   UNL     1      -3.520  12.338  20.050  0.00  0.00    +0.000 NA
ATOM      8  C   UNL     1      -2.512  12.559  20.914  0.00  0.00    +0.000 A 
ATOM      9  C   UNL     1      -2.858  13.167  22.238  0.00  0.00    +0.000 C 
ATOM     10  C   UNL     1      -1.197  12.262  20.603  0.00  0.00    +0.000 A 
ATOM     11  C   UNL     1      -0.881  11.741  19.339  0.00  0.00    +0.000 A 
ATOM     12  C   UNL     1      -1.946  11.413  18.455  0.00  0.00    +0.000 A 
ATOM     13  C   UNL     1      -1.803  10.784  17.190  0.00  0.00    +0.000 A 
BRANCH   3  15
ATOM     14  C   UNL     1      -3.615  10.072  14.139  0.00  0.00    +0.000 C 
ATOM     15  O   UNL     1      -2.645   9.916  15.174  0.00  0.00    +0.000 OA
ENDBRANCH   3  15
ENDBRANCH   1  11
BRANCH   1  16
ATOM     16  C   UNL     1       1.127  10.247  18.929  0.00  0.00    +0.000 A 
ATOM     17  C   UNL     1       1.920   9.872  17.850  0.00  0.00    +0.000 A 
ATOM     18  C   UNL     1       2.494   8.583  17.786  0.00  0.00    +0.000 A 
ATOM     19  C   UNL     1       2.298   7.613  18.791  0.00  0.00    +0.000 A 
ATOM     20  C   UNL     1       1.583   8.024  19.942  0.00  0.00    +0.000 A 
ATOM     21  C   UNL     1       1.294   7.226  21.190  0.00  0.00    +0.000 C 
ATOM     22  C   UNL     1       1.041   9.339  19.989  0.00  0.00    +0.000 A 
BRANCH  19  23
ATOM     23  C   UNL     1       2.846   6.201  18.562  0.00  0.00    +0.000 C 
ATOM     24  N   UNL     1       4.085   5.935  18.836  0.00  0.00    +0.000 NA
ATOM     25  N   UNL     1       4.543   4.641  18.701  0.00  0.00    +0.000 N 
ATOM     26  C   UNL     1       3.685   3.591  18.953  0.00  0.00    +0.000 C 
ATOM     27  O   UNL     1       3.989   2.588  19.585  0.00  0.00    +0.000 OA
ATOM     28  C   UNL     1       2.410   3.684  18.167  0.00  0.00    +0.000 C 
ATOM     29  C   UNL     1       1.956   5.122  17.931  0.00  0.00    +0.000 C 
ATOM     30  H   UNL     1       4.936   4.555  17.759  0.00  0.00    +0.000 HD
ENDBRANCH  19  23
ENDBRANCH   1  16
TORSDOF 4
ENDMDL
MODEL 9
REMARK VINA RESULT:      -8.4      1.427      1.540
REMARK  Name = 
REMARK  7 active torsions:
REMARK  status: ('A' for Active; 'I' for Inactive)
REMARK    1  A    between atoms: C_1  and  O_2
REMARK    2  A    between atoms: O_2  and  C_3
REMARK    3  A    between atoms: C_8  and  C_9
REMARK    4  A    between atoms: C_11  and  N_12
REMARK    5  A    between atoms: N_12  and  C_13
REMARK    6  A    between atoms: C_16  and  C_17
REMARK    7  A    between atoms: C_24  and  C_25
REMARK                            x       y       z     vdW  Elec       q    Type
REMARK                         _______ _______ _______ _____ _____    ______ ____
ROOT
ATOM      1  N   UNL     1       2.804   7.907  17.571  0.00  0.00    +0.000 N 
ATOM      2  H   UNL     1       3.635   8.449  17.340  0.00  0.00    +0.000 HD
ENDROOT
BRANCH   1  11
ATOM      3  C   UNL     1       6.893   6.331  17.101  0.00  0.00    +0.000 A 
ATOM      4  C   UNL     1       7.052   4.951  17.170  0.00  0.00    +0.000 A 
ATOM      5  C   UNL     1       5.957   4.147  17.487  0.00  0.00    +0.000 A 
ATOM      6  C   UNL     1       4.701   4.674  17.725  0.00  0.00    +0.000 A 
ATOM      7  N   UNL     1       3.740   3.810  18.050  0.00  0.00    +0.000 NA
ATOM      8  C   UNL     1       2.500   4.275  18.290  0.00  0.00    +0.000 A 
ATOM      9  C   UNL     1       1.449   3.277  18.671  0.00  0.00    +0.000 C 
ATOM     10  C   UNL     1       2.182   5.617  18.178  0.00  0.00    +0.000 A 
ATOM     11  C   UNL     1       3.163   6.533  17.771  0.00  0.00    +0.000 A 
ATOM     12  C   UNL     1       4.498   6.069  17.607  0.00  0.00    +0.000 A 
ATOM     13  C   UNL     1       5.622   6.883  17.304  0.00  0.00    +0.000 A 
BRANCH   3  15
ATOM     14  C   UNL     1       8.015   8.333  17.725  0.00  0.00    +0.000 C 
ATOM     15  O   UNL     1       7.902   7.219  16.840  0.00  0.00    +0.000 OA
ENDBRANCH   3  15
ENDBRANCH   1  11
BRANCH   1  16
ATOM     16  C   UNL     1       1.877   8.637  18.364  0.00  0.00    +0.000 A 
ATOM     17  C   UNL     1       0.958   9.516  17.802  0.00  0.00    +0.000 A 
ATOM     18  C   UNL     1       0.084  10.270  18.617  0.00  0.00    +0.000 A 
ATOM     19  C   UNL     1       0.093  10.183  20.025  0.00  0.00    +0.000 A 
ATOM     20  C   UNL     1       0.949   9.211  20.597  0.00  0.00    +0.000 A 
ATOM     21  C   UNL     1       1.104   8.853  22.055  0.00  0.00    +0.000 C 
ATOM     22  C   UNL     1       1.797   8.447  19.747  0.00  0.00    +0.000 A 
BRANCH  19  23
ATOM     23  C   UNL     1      -0.794  11.144  20.823  0.00  0.00    +0.000 C 
ATOM     24  N   UNL     1      -1.729  11.812  20.221  0.00  0.00    +0.000 NA
ATOM     25  N   UNL     1      -2.571  12.612  20.964  0.00  0.00    +0.000 N 
ATOM     26  C   UNL     1      -2.903  12.233  22.249  0.00  0.00    +0.000 C 
ATOM     27  O   UNL     1      -4.032  12.299  22.717  0.00  0.00    +0.000 OA
ATOM     28  C   UNL     1      -1.699  11.961  23.102  0.00  0.00    +0.000 C 
ATOM     29  C   UNL     1      -0.527  11.381  22.315  0.00  0.00    +0.000 C 
ATOM     30  H   UNL     1      -2.169  13.554  20.969  0.00  0.00    +0.000 HD
ENDBRANCH  19  23
ENDBRANCH   1  16
TORSDOF 4
ENDMDL
