MODEL 1
REMARK VINA RESULT:      -7.6      0.000      0.000
REMARK  Name = 
REMARK  7 active torsions:
REMARK  status: ('A' for Active; 'I' for Inactive)
REMARK    1  A    between atoms: C_1  and  O_2
REMARK    2  A    between atoms: O_2  and  C_3
REMARK    3  A    between atoms: C_7  and  C_8
REMARK    4  A    between atoms: C_14  and  C_15
REMARK    5  A    between atoms: C_15  and  N_16
REMARK    6  A    between atoms: N_16  and  S_17
REMARK    7  A    between atoms: S_17  and  C_18
REMARK                            x       y       z     vdW  Elec       q    Type
REMARK                         _______ _______ _______ _____ _____    ______ ____
ROOT
ATOM      1  C   UNL     1       4.180   3.329  18.130  0.00  0.00    +0.000 C 
ATOM      2  O   UNL     1       4.039   2.111  18.013  0.00  0.00    +0.000 OA
ATOM      3  N   UNL     1       3.595   4.052  19.177  0.00  0.00    +0.000 N 
ATOM      4  C   UNL     1       3.026   3.313  20.303  0.00  0.00    +0.000 C 
ATOM      5  C   UNL     1       1.593   3.755  20.578  0.00  0.00    +0.000 C 
ATOM      6  C   UNL     1       1.508   5.266  20.787  0.00  0.00    +0.000 C 
ATOM      7  C   UNL     1       2.122   6.024  19.600  0.00  0.00    +0.000 C 
ATOM      8  C   UNL     1       3.535   5.509  19.297  0.00  0.00    +0.000 C 
ENDROOT
BRANCH   1  13
ATOM      9  C   UNL     1       6.763   5.547  16.434  0.00  0.00    +0.000 A 
ATOM     10  C   UNL     1       6.453   5.315  15.093  0.00  0.00    +0.000 A 
ATOM     11  C   UNL     1       5.445   4.415  14.743  0.00  0.00    +0.000 A 
ATOM     12  C   UNL     1       4.708   3.776  15.741  0.00  0.00    +0.000 A 
ATOM     13  C   UNL     1       4.997   4.016  17.090  0.00  0.00    +0.000 A 
ATOM     14  C   UNL     1       6.077   4.844  17.423  0.00  0.00    +0.000 A 
BRANCH   9  16
ATOM     15  C   UNL     1       7.493   7.434  17.678  0.00  0.00    +0.000 C 
ATOM     16  O   UNL     1       7.746   6.472  16.658  0.00  0.00    +0.000 OA
ENDBRANCH   9  16
ENDBRANCH   1  13
BRANCH   7  17
ATOM     17  C   UNL     1       2.137   7.538  19.868  0.00  0.00    +0.000 C 
BRANCH  17  18
ATOM     18  N   UNL     1       1.769   7.806  21.266  0.00  0.00    +0.000 NA
ATOM     19  H   UNL     1       2.518   7.836  21.959  0.00  0.00    +0.000 HD
BRANCH  18  20
ATOM     20  S   UNL     1       0.541   8.912  21.588  0.00  0.00    +0.000 S 
ATOM     21  C   UNL     1       0.445   9.796  20.047  0.00  0.00    +0.000 C 
ATOM     22  O   UNL     1      -0.687   8.176  21.788  0.00  0.00    +0.000 OA
ATOM     23  O   UNL     1       1.068   9.815  22.585  0.00  0.00    +0.000 OA
ENDBRANCH  18  20
ENDBRANCH  17  18
ENDBRANCH   7  17
TORSDOF 5
ENDMDL
MODEL 2
REMARK VINA RESULT:      -7.5      1.081      1.882
REMARK  Name = 
REMARK  7 active torsions:
REMARK  status: ('A' for Active; 'I' for Inactive)
REMARK    1  A    between atoms: C_1  and  O_2
REMARK    2  A    between atoms: O_2  and  C_3
REMARK    3  A    between atoms: C_7  and  C_8
REMARK    4  A    between atoms: C_14  and  C_15
REMARK    5  A    between atoms: C_15  and  N_16
REMARK    6  A    between atoms: N_16  and  S_17
REMARK    7  A    between atoms: S_17  and  C_18
REMARK                            x       y       z     vdW  Elec       q    Type
REMARK                         _______ _______ _______ _____ _____    ______ ____
ROOT
ATOM      1  C   UNL     1       4.172   3.274  18.550  0.00  0.00    +0.000 C 
ATOM      2  O   UNL     1       4.010   2.057  18.458  0.00  0.00    +0.000 OA
ATOM      3  N   UNL     1       3.494   4.050  19.499  0.00  0.00    +0.000 N 
ATOM      4  C   UNL     1       2.781   3.368  20.577  0.00  0.00    +0.000 C 
ATOM      5  C   UNL     1       1.339   3.855  20.672  0.00  0.00    +0.000 C 
ATOM      6  C   UNL     1       1.276   5.374  20.820  0.00  0.00    +0.000 C 
ATOM      7  C   UNL     1       2.041   6.073  19.685  0.00  0.00    +0.000 C 
ATOM      8  C   UNL     1       3.463   5.512  19.562  0.00  0.00    +0.000 C 
ENDROOT
BRANCH   1  13
ATOM      9  C   UNL     1       5.741   4.578  15.339  0.00  0.00    +0.000 A 
ATOM     10  C   UNL     1       6.965   5.040  15.826  0.00  0.00    +0.000 A 
ATOM     11  C   UNL     1       7.259   4.969  17.189  0.00  0.00    +0.000 A 
ATOM     12  C   UNL     1       6.343   4.388  18.067  0.00  0.00    +0.000 A 
ATOM     13  C   UNL     1       5.121   3.903  17.586  0.00  0.00    +0.000 A 
ATOM     14  C   UNL     1       4.799   4.073  16.233  0.00  0.00    +0.000 A 
BRANCH   9  16
ATOM     15  C   UNL     1       6.218   3.669  13.197  0.00  0.00    +0.000 C 
ATOM     16  O   UNL     1       5.577   4.669  13.984  0.00  0.00    +0.000 OA
ENDBRANCH   9  16
ENDBRANCH   1  13
BRANCH   7  17
ATOM     17  C   UNL     1       2.070   7.595  19.902  0.00  0.00    +0.000 C 
BRANCH  17  18
ATOM     18  N   UNL     1       1.764   7.909  21.306  0.00  0.00    +0.000 NA
ATOM     19  H   UNL     1       2.547   8.018  21.951  0.00  0.00    +0.000 HD
BRANCH  18  20
ATOM     20  S   UNL     1       0.490   8.956  21.647  0.00  0.00    +0.000 S 
ATOM     21  C   UNL     1       0.364   9.873  20.128  0.00  0.00    +0.000 C 
ATOM     22  O   UNL     1      -0.708   8.164  21.821  0.00  0.00    +0.000 OA
ATOM     23  O   UNL     1       0.973   9.853  22.669  0.00  0.00    +0.000 OA
ENDBRANCH  18  20
ENDBRANCH  17  18
ENDBRANCH   7  17
TORSDOF 5
ENDMDL
MODEL 3
REMARK VINA RESULT:      -7.0      1.665      1.823
REMARK  Name = 
REMARK  7 active torsions:
REMARK  status: ('A' for Active; 'I' for Inactive)
REMARK    1  A    between atoms: C_1  and  O_2
REMARK    2  A    between atoms: O_2  and  C_3
REMARK    3  A    between atoms: C_7  and  C_8
REMARK    4  A    between atoms: C_14  and  C_15
REMARK    5  A    between atoms: C_15  and  N_16
REMARK    6  A    between atoms: N_16  and  S_17
REMARK    7  A    between atoms: S_17  and  C_18
REMARK                            x       y       z     vdW  Elec       q    Type
REMARK                         _______ _______ _______ _____ _____    ______ ____
ROOT
ATOM      1  C   UNL     1       4.188   3.409  18.173  0.00  0.00    +0.000 C 
ATOM      2  O   UNL     1       4.040   2.189  18.084  0.00  0.00    +0.000 OA
ATOM      3  N   UNL     1       3.591   4.163  19.191  0.00  0.00    +0.000 N 
ATOM      4  C   UNL     1       2.997   3.457  20.325  0.00  0.00    +0.000 C 
ATOM      5  C   UNL     1       1.563   3.915  20.565  0.00  0.00    +0.000 C 
ATOM      6  C   UNL     1       1.486   5.431  20.734  0.00  0.00    +0.000 C 
ATOM      7  C   UNL     1       2.125   6.155  19.538  0.00  0.00    +0.000 C 
ATOM      8  C   UNL     1       3.539   5.623  19.273  0.00  0.00    +0.000 C 
ENDROOT
BRANCH   1  13
ATOM      9  C   UNL     1       6.754   5.632  16.457  0.00  0.00    +0.000 A 
ATOM     10  C   UNL     1       6.527   5.296  15.122  0.00  0.00    +0.000 A 
ATOM     11  C   UNL     1       5.581   4.325  14.785  0.00  0.00    +0.000 A 
ATOM     12  C   UNL     1       4.821   3.720  15.787  0.00  0.00    +0.000 A 
ATOM     13  C   UNL     1       5.027   4.064  17.129  0.00  0.00    +0.000 A 
ATOM     14  C   UNL     1       6.048   4.965  17.458  0.00  0.00    +0.000 A 
BRANCH   9  16
ATOM     15  C   UNL     1       7.743   7.164  17.979  0.00  0.00    +0.000 C 
ATOM     16  O   UNL     1       7.680   6.618  16.664  0.00  0.00    +0.000 OA
ENDBRANCH   9  16
ENDBRANCH   1  13
BRANCH   7  17
ATOM     17  C   UNL     1       2.146   7.675  19.768  0.00  0.00    +0.000 C 
BRANCH  17  18
ATOM     18  N   UNL     1       1.955   8.380  18.491  0.00  0.00    +0.000 NA
ATOM     19  H   UNL     1       1.713   7.823  17.671  0.00  0.00    +0.000 HD
BRANCH  18  20
ATOM     20  S   UNL     1       1.205   9.888  18.498  0.00  0.00    +0.000 S 
ATOM     21  C   UNL     1       0.810  10.082  20.221  0.00  0.00    +0.000 C 
ATOM     22  O   UNL     1       2.188  10.880  18.123  0.00  0.00    +0.000 OA
ATOM     23  O   UNL     1      -0.033   9.720  17.774  0.00  0.00    +0.000 OA
ENDBRANCH  18  20
ENDBRANCH  17  18
ENDBRANCH   7  17
TORSDOF 5
ENDMDL
MODEL 4
REMARK VINA RESULT:      -6.9      1.718      2.619
REMARK  Name = 
REMARK  7 active torsions:
REMARK  status: ('A' for Active; 'I' for Inactive)
REMARK    1  A    between atoms: C_1  and  O_2
REMARK    2  A    between atoms: O_2  and  C_3
REMARK    3  A    between atoms: C_7  and  C_8
REMARK    4  A    between atoms: C_14  and  C_15
REMARK    5  A    between atoms: C_15  and  N_16
REMARK    6  A    between atoms: N_16  and  S_17
REMARK    7  A    between atoms: S_17  and  C_18
REMARK                            x       y       z     vdW  Elec       q    Type
REMARK                         _______ _______ _______ _____ _____    ______ ____
ROOT
ATOM      1  C   UNL     1       5.095   4.485  17.209  0.00  0.00    +0.000 C 
ATOM      2  O   UNL     1       5.246   4.016  16.080  0.00  0.00    +0.000 OA
ATOM      3  N   UNL     1       3.973   4.194  17.995  0.00  0.00    +0.000 N 
ATOM      4  C   UNL     1       3.091   3.106  17.578  0.00  0.00    +0.000 C 
ATOM      5  C   UNL     1       1.640   3.570  17.517  0.00  0.00    +0.000 C 
ATOM      6  C   UNL     1       1.198   4.184  18.844  0.00  0.00    +0.000 C 
ATOM      7  C   UNL     1       2.143   5.318  19.272  0.00  0.00    +0.000 C 
ATOM      8  C   UNL     1       3.603   4.846  19.252  0.00  0.00    +0.000 C 
ENDROOT
BRANCH   1  13
ATOM      9  C   UNL     1       7.337   7.523  17.673  0.00  0.00    +0.000 A 
ATOM     10  C   UNL     1       8.215   7.042  18.646  0.00  0.00    +0.000 A 
ATOM     11  C   UNL     1       8.053   5.761  19.177  0.00  0.00    +0.000 A 
ATOM     12  C   UNL     1       7.036   4.934  18.698  0.00  0.00    +0.000 A 
ATOM     13  C   UNL     1       6.162   5.399  17.708  0.00  0.00    +0.000 A 
ATOM     14  C   UNL     1       6.275   6.721  17.258  0.00  0.00    +0.000 A 
BRANCH   9  16
ATOM     15  C   UNL     1       8.408   9.610  18.042  0.00  0.00    +0.000 C 
ATOM     16  O   UNL     1       7.612   8.778  17.203  0.00  0.00    +0.000 OA
ENDBRANCH   9  16
ENDBRANCH   1  13
BRANCH   7  17
ATOM     17  C   UNL     1       1.760   5.855  20.661  0.00  0.00    +0.000 C 
BRANCH  17  18
ATOM     18  N   UNL     1       2.136   7.272  20.775  0.00  0.00    +0.000 NA
ATOM     19  H   UNL     1       2.911   7.606  20.202  0.00  0.00    +0.000 HD
BRANCH  18  20
ATOM     20  S   UNL     1       0.923   8.424  20.965  0.00  0.00    +0.000 S 
ATOM     21  C   UNL     1       1.488   9.303  22.404  0.00  0.00    +0.000 C 
ATOM     22  O   UNL     1       0.962   9.311  19.824  0.00  0.00    +0.000 OA
ATOM     23  O   UNL     1      -0.268   7.693  21.330  0.00  0.00    +0.000 OA
ENDBRANCH  18  20
ENDBRANCH  17  18
ENDBRANCH   7  17
TORSDOF 5
ENDMDL
MODEL 5
REMARK VINA RESULT:      -6.9      3.491      5.240
REMARK  Name = 
REMARK  7 active torsions:
REMARK  status: ('A' for Active; 'I' for Inactive)
REMARK    1  A    between atoms: C_1  and  O_2
REMARK    2  A    between atoms: O_2  and  C_3
REMARK    3  A    between atoms: C_7  and  C_8
REMARK    4  A    between atoms: C_14  and  C_15
REMARK    5  A    between atoms: C_15  and  N_16
REMARK    6  A    between atoms: N_16  and  S_17
REMARK    7  A    between atoms: S_17  and  C_18
REMARK                            x       y       z     vdW  Elec       q    Type
REMARK                         _______ _______ _______ _____ _____    ______ ____
ROOT
ATOM      1  C   UNL     1       6.637   5.546  15.833  0.00  0.00    +0.000 C 
ATOM      2  O   UNL     1       7.545   6.344  16.067  0.00  0.00    +0.000 OA
ATOM      3  N   UNL     1       5.687   5.190  16.799  0.00  0.00    +0.000 N 
ATOM      4  C   UNL     1       5.611   5.979  18.027  0.00  0.00    +0.000 C 
ATOM      5  C   UNL     1       5.677   5.083  19.258  0.00  0.00    +0.000 C 
ATOM      6  C   UNL     1       4.604   3.996  19.212  0.00  0.00    +0.000 C 
ATOM      7  C   UNL     1       4.693   3.186  17.910  0.00  0.00    +0.000 C 
ATOM      8  C   UNL     1       4.699   4.115  16.689  0.00  0.00    +0.000 C 
ENDROOT
BRANCH   1  13
ATOM      9  C   UNL     1       5.496   3.644  12.742  0.00  0.00    +0.000 A 
ATOM     10  C   UNL     1       6.606   3.819  11.914  0.00  0.00    +0.000 A 
ATOM     11  C   UNL     1       7.695   4.583  12.339  0.00  0.00    +0.000 A 
ATOM     12  C   UNL     1       7.696   5.137  13.620  0.00  0.00    +0.000 A 
ATOM     13  C   UNL     1       6.596   4.952  14.466  0.00  0.00    +0.000 A 
ATOM     14  C   UNL     1       5.470   4.268  13.989  0.00  0.00    +0.000 A 
BRANCH   9  16
ATOM     15  C   UNL     1       3.918   3.273  11.006  0.00  0.00    +0.000 C 
ATOM     16  O   UNL     1       4.504   2.850  12.234  0.00  0.00    +0.000 OA
ENDBRANCH   9  16
ENDBRANCH   1  13
BRANCH   7  17
ATOM     17  C   UNL     1       3.541   2.171  17.818  0.00  0.00    +0.000 C 
BRANCH  17  18
ATOM     18  N   UNL     1       2.633   2.336  18.963  0.00  0.00    +0.000 NA
ATOM     19  H   UNL     1       3.043   2.580  19.865  0.00  0.00    +0.000 HD
BRANCH  18  20
ATOM     20  S   UNL     1       1.131   3.055  18.714  0.00  0.00    +0.000 S 
ATOM     21  C   UNL     1       0.925   3.981  20.219  0.00  0.00    +0.000 C 
ATOM     22  O   UNL     1       1.251   3.975  17.606  0.00  0.00    +0.000 OA
ATOM     23  O   UNL     1       0.167   1.979  18.720  0.00  0.00    +0.000 OA
ENDBRANCH  18  20
ENDBRANCH  17  18
ENDBRANCH   7  17
TORSDOF 5
ENDMDL
MODEL 6
REMARK VINA RESULT:      -6.8      1.265      1.434
REMARK  Name = 
REMARK  7 active torsions:
REMARK  status: ('A' for Active; 'I' for Inactive)
REMARK    1  A    between atoms: C_1  and  O_2
REMARK    2  A    between atoms: O_2  and  C_3
REMARK    3  A    between atoms: C_7  and  C_8
REMARK    4  A    between atoms: C_14  and  C_15
REMARK    5  A    between atoms: C_15  and  N_16
REMARK    6  A    between atoms: N_16  and  S_17
REMARK    7  A    between atoms: S_17  and  C_18
REMARK                            x       y       z     vdW  Elec       q    Type
REMARK                         _______ _______ _______ _____ _____    ______ ____
ROOT
ATOM      1  C   UNL     1       4.296   3.642  17.990  0.00  0.00    +0.000 C 
ATOM      2  O   UNL     1       4.339   2.671  17.234  0.00  0.00    +0.000 OA
ATOM      3  N   UNL     1       3.488   3.664  19.134  0.00  0.00    +0.000 N 
ATOM      4  C   UNL     1       2.886   2.412  19.588  0.00  0.00    +0.000 C 
ATOM      5  C   UNL     1       1.383   2.568  19.787  0.00  0.00    +0.000 C 
ATOM      6  C   UNL     1       1.066   3.727  20.731  0.00  0.00    +0.000 C 
ATOM      7  C   UNL     1       1.717   5.031  20.244  0.00  0.00    +0.000 C 
ATOM      8  C   UNL     1       3.214   4.827  19.980  0.00  0.00    +0.000 C 
ENDROOT
BRANCH   1  13
ATOM      9  C   UNL     1       7.024   6.293  18.022  0.00  0.00    +0.000 A 
ATOM     10  C   UNL     1       6.638   7.065  16.925  0.00  0.00    +0.000 A 
ATOM     11  C   UNL     1       5.530   6.704  16.157  0.00  0.00    +0.000 A 
ATOM     12  C   UNL     1       4.771   5.588  16.516  0.00  0.00    +0.000 A 
ATOM     13  C   UNL     1       5.137   4.818  17.626  0.00  0.00    +0.000 A 
ATOM     14  C   UNL     1       6.309   5.135  18.325  0.00  0.00    +0.000 A 
BRANCH   9  16
ATOM     15  C   UNL     1       8.434   8.135  18.531  0.00  0.00    +0.000 C 
ATOM     16  O   UNL     1       8.105   6.761  18.718  0.00  0.00    +0.000 OA
ENDBRANCH   9  16
ENDBRANCH   1  13
BRANCH   7  17
ATOM     17  C   UNL     1       1.490   6.166  21.257  0.00  0.00    +0.000 C 
BRANCH  17  18
ATOM     18  N   UNL     1       1.662   7.470  20.599  0.00  0.00    +0.000 NA
ATOM     19  H   UNL     1       1.732   7.484  19.581  0.00  0.00    +0.000 HD
BRANCH  18  20
ATOM     20  S   UNL     1       0.843   8.806  21.214  0.00  0.00    +0.000 S 
ATOM     21  C   UNL     1       0.784   9.874  19.792  0.00  0.00    +0.000 C 
ATOM     22  O   UNL     1      -0.501   8.394  21.551  0.00  0.00    +0.000 OA
ATOM     23  O   UNL     1       1.730   9.407  22.183  0.00  0.00    +0.000 OA
ENDBRANCH  18  20
ENDBRANCH  17  18
ENDBRANCH   7  17
TORSDOF 5
ENDMDL
MODEL 7
REMARK VINA RESULT:      -6.8      1.659      2.411
REMARK  Name = 
REMARK  7 active torsions:
REMARK  status: ('A' for Active; 'I' for Inactive)
REMARK    1  A    between atoms: C_1  and  O_2
REMARK    2  A    between atoms: O_2  and  C_3
REMARK    3  A    between atoms: C_7  and  C_8
REMARK    4  A    between atoms: C_14  and  C_15
REMARK    5  A    between atoms: C_15  and  N_16
REMARK    6  A    between atoms: N_16  and  S_17
REMARK    7  A    between atoms: S_17  and  C_18
REMARK                            x       y       z     vdW  Elec       q    Type
REMARK                         _______ _______ _______ _____ _____    ______ ____
ROOT
ATOM      1  C   UNL     1       4.948   4.217  17.685  0.00  0.00    +0.000 C 
ATOM      2  O   UNL     1       5.080   3.554  16.656  0.00  0.00    +0.000 OA
ATOM      3  N   UNL     1       3.830   4.089  18.519  0.00  0.00    +0.000 N 
ATOM      4  C   UNL     1       2.928   2.959  18.309  0.00  0.00    +0.000 C 
ATOM      5  C   UNL     1       1.484   3.429  18.177  0.00  0.00    +0.000 C 
ATOM      6  C   UNL     1       1.065   4.276  19.378  0.00  0.00    +0.000 C 
ATOM      7  C   UNL     1       2.031   5.452  19.590  0.00  0.00    +0.000 C 
ATOM      8  C   UNL     1       3.483   4.960  19.644  0.00  0.00    +0.000 C 
ENDROOT
BRANCH   1  13
ATOM      9  C   UNL     1       7.153   7.317  17.683  0.00  0.00    +0.000 A 
ATOM     10  C   UNL     1       8.124   6.936  18.611  0.00  0.00    +0.000 A 
ATOM     11  C   UNL     1       8.040   5.704  19.262  0.00  0.00    +0.000 A 
ATOM     12  C   UNL     1       7.003   4.824  18.949  0.00  0.00    +0.000 A 
ATOM     13  C   UNL     1       6.034   5.188  18.006  0.00  0.00    +0.000 A 
ATOM     14  C   UNL     1       6.076   6.467  17.436  0.00  0.00    +0.000 A 
BRANCH   9  16
ATOM     15  C   UNL     1       8.207   9.444  17.774  0.00  0.00    +0.000 C 
ATOM     16  O   UNL     1       7.357   8.530  17.085  0.00  0.00    +0.000 OA
ENDBRANCH   9  16
ENDBRANCH   1  13
BRANCH   7  17
ATOM     17  C   UNL     1       1.671   6.232  20.865  0.00  0.00    +0.000 C 
BRANCH  17  18
ATOM     18  N   UNL     1       2.168   7.613  20.768  0.00  0.00    +0.000 NA
ATOM     19  H   UNL     1       2.715   7.866  19.944  0.00  0.00    +0.000 HD
BRANCH  18  20
ATOM     20  S   UNL     1       1.190   8.871  21.311  0.00  0.00    +0.000 S 
ATOM     21  C   UNL     1      -0.343   8.024  21.620  0.00  0.00    +0.000 C 
ATOM     22  O   UNL     1       1.727   9.350  22.565  0.00  0.00    +0.000 OA
ATOM     23  O   UNL     1       0.994   9.743  20.176  0.00  0.00    +0.000 OA
ENDBRANCH  18  20
ENDBRANCH  17  18
ENDBRANCH   7  17
TORSDOF 5
ENDMDL
MODEL 8
REMARK VINA RESULT:      -6.8      1.345      2.174
REMARK  Name = 
REMARK  7 active torsions:
REMARK  status: ('A' for Active; 'I' for Inactive)
REMARK    1  A    between atoms: C_1  and  O_2
REMARK    2  A    between atoms: O_2  and  C_3
REMARK    3  A    between atoms: C_7  and  C_8
REMARK    4  A    between atoms: C_14  and  C_15
REMARK    5  A    between atoms: C_15  and  N_16
REMARK    6  A    between atoms: N_16  and  S_17
REMARK    7  A    between atoms: S_17  and  C_18
REMARK                            x       y       z     vdW  Elec       q    Type
REMARK                         _______ _______ _______ _____ _____    ______ ____
ROOT
ATOM      1  C   UNL     1       4.144   3.209  18.068  0.00  0.00    +0.000 C 
ATOM      2  O   UNL     1       4.065   2.290  17.252  0.00  0.00    +0.000 OA
ATOM      3  N   UNL     1       3.218   3.369  19.107  0.00  0.00    +0.000 N 
ATOM      4  C   UNL     1       2.291   2.275  19.390  0.00  0.00    +0.000 C 
ATOM      5  C   UNL     1       0.851   2.773  19.420  0.00  0.00    +0.000 C 
ATOM      6  C   UNL     1       0.684   3.930  20.404  0.00  0.00    +0.000 C 
ATOM      7  C   UNL     1       1.674   5.064  20.097  0.00  0.00    +0.000 C 
ATOM      8  C   UNL     1       3.107   4.524  19.998  0.00  0.00    +0.000 C 
ENDROOT
BRANCH   1  13
ATOM      9  C   UNL     1       6.870   5.353  16.504  0.00  0.00    +0.000 A 
ATOM     10  C   UNL     1       7.424   5.930  17.648  0.00  0.00    +0.000 A 
ATOM     11  C   UNL     1       6.890   5.660  18.910  0.00  0.00    +0.000 A 
ATOM     12  C   UNL     1       5.824   4.768  19.035  0.00  0.00    +0.000 A 
ATOM     13  C   UNL     1       5.273   4.168  17.896  0.00  0.00    +0.000 A 
ATOM     14  C   UNL     1       5.754   4.527  16.630  0.00  0.00    +0.000 A 
BRANCH   9  16
ATOM     15  C   UNL     1       7.101   4.916  14.181  0.00  0.00    +0.000 C 
ATOM     16  O   UNL     1       7.495   5.664  15.328  0.00  0.00    +0.000 OA
ENDBRANCH   9  16
ENDBRANCH   1  13
BRANCH   7  17
ATOM     17  C   UNL     1       1.580   6.174  21.158  0.00  0.00    +0.000 C 
BRANCH  17  18
ATOM     18  N   UNL     1       1.771   7.489  20.529  0.00  0.00    +0.000 NA
ATOM     19  H   UNL     1       2.016   7.512  19.539  0.00  0.00    +0.000 HD
BRANCH  18  20
ATOM     20  S   UNL     1       0.765   8.762  20.980  0.00  0.00    +0.000 S 
ATOM     21  C   UNL     1       1.573   9.352  22.450  0.00  0.00    +0.000 C 
ATOM     22  O   UNL     1       0.842   9.781  19.957  0.00  0.00    +0.000 OA
ATOM     23  O   UNL     1      -0.488   8.160  21.373  0.00  0.00    +0.000 OA
ENDBRANCH  18  20
ENDBRANCH  17  18
ENDBRANCH   7  17
TORSDOF 5
ENDMDL
MODEL 9
REMARK VINA RESULT:      -6.7      1.814      2.495
REMARK  Name = 
REMARK  7 active torsions:
REMARK  status: ('A' for Active; 'I' for Inactive)
REMARK    1  A    between atoms: C_1  and  O_2
REMARK    2  A    between atoms: O_2  and  C_3
REMARK    3  A    between atoms: C_7  and  C_8
REMARK    4  A    between atoms: C_14  and  C_15
REMARK    5  A    between atoms: C_15  and  N_16
REMARK    6  A    between atoms: N_16  and  S_17
REMARK    7  A    between atoms: S_17  and  C_18
REMARK                            x       y       z     vdW  Elec       q    Type
REMARK                         _______ _______ _______ _____ _____    ______ ____
ROOT
ATOM      1  C   UNL     1       4.237   3.648  18.711  0.00  0.00    +0.000 C 
ATOM      2  O   UNL     1       4.074   2.447  18.929  0.00  0.00    +0.000 OA
ATOM      3  N   UNL     1       3.597   4.639  19.465  0.00  0.00    +0.000 N 
ATOM      4  C   UNL     1       2.929   4.249  20.706  0.00  0.00    +0.000 C 
ATOM      5  C   UNL     1       1.491   4.756  20.735  0.00  0.00    +0.000 C 
ATOM      6  C   UNL     1       1.430   6.265  20.505  0.00  0.00    +0.000 C 
ATOM      7  C   UNL     1       2.147   6.656  19.204  0.00  0.00    +0.000 C 
ATOM      8  C   UNL     1       3.565   6.071  19.166  0.00  0.00    +0.000 C 
ENDROOT
BRANCH   1  13
ATOM      9  C   UNL     1       5.606   4.267  15.216  0.00  0.00    +0.000 A 
ATOM     10  C   UNL     1       6.912   4.653  15.521  0.00  0.00    +0.000 A 
ATOM     11  C   UNL     1       7.330   4.755  16.849  0.00  0.00    +0.000 A 
ATOM     12  C   UNL     1       6.452   4.420  17.881  0.00  0.00    +0.000 A 
ATOM     13  C   UNL     1       5.145   4.012  17.585  0.00  0.00    +0.000 A 
ATOM     14  C   UNL     1       4.710   4.012  16.253  0.00  0.00    +0.000 A 
BRANCH   9  16
ATOM     15  C   UNL     1       6.378   3.736  13.033  0.00  0.00    +0.000 C 
ATOM     16  O   UNL     1       5.319   4.171  13.881  0.00  0.00    +0.000 OA
ENDBRANCH   9  16
ENDBRANCH   1  13
BRANCH   7  17
ATOM     17  C   UNL     1       2.182   8.184  19.037  0.00  0.00    +0.000 C 
BRANCH  17  18
ATOM     18  N   UNL     1       1.219   8.813  19.954  0.00  0.00    +0.000 NA
ATOM     19  H   UNL     1       1.394   8.731  20.956  0.00  0.00    +0.000 HD
BRANCH  18  20
ATOM     20  S   UNL     1       0.537  10.293  19.531  0.00  0.00    +0.000 S 
ATOM     21  C   UNL     1       0.736  11.221  21.035  0.00  0.00    +0.000 C 
ATOM     22  O   UNL     1       1.356  10.886  18.498  0.00  0.00    +0.000 OA
ATOM     23  O   UNL     1      -0.873  10.044  19.346  0.00  0.00    +0.000 OA
ENDBRANCH  18  20
ENDBRANCH  17  18
ENDBRANCH   7  17
TORSDOF 5
ENDMDL
