MODEL 1
REMARK VINA RESULT:      -9.1      0.000      0.000
REMARK  Name = 
REMARK  9 active torsions:
REMARK  status: ('A' for Active; 'I' for Inactive)
REMARK    1  A    between atoms: C_1  and  C_2
REMARK    2  A    between atoms: C_2  and  C_3
REMARK    3  A    between atoms: C_3  and  C_4
REMARK    4  A    between atoms: C_4  and  C_5
REMARK    5  A    between atoms: C_5  and  C_6
REMARK    6  A    between atoms: C_9  and  C_10
REMARK    7  A    between atoms: C_11  and  C_12
REMARK    8  A    between atoms: N_14  and  C_15
REMARK    9  A    between atoms: C_23  and  N_24
REMARK                            x       y       z     vdW  Elec       q    Type
REMARK                         _______ _______ _______ _____ _____    ______ ____
ROOT
ATOM      1  C   UNL     1       7.658   7.537  17.849  0.00  0.00    +0.000 C 
ATOM      2  O   UNL     1       8.101   6.738  18.674  0.00  0.00    +0.000 OA
ATOM      3  N   UNL     1       6.793   7.236  16.809  0.00  0.00    +0.000 N 
ATOM      4  H   UNL     1       6.711   7.888  16.041  0.00  0.00    +0.000 HD
ENDROOT
BRANCH   3   5
ATOM      5  C   UNL     1       6.168   5.969  16.660  0.00  0.00    +0.000 A 
ATOM      6  C   UNL     1       6.770   4.984  15.843  0.00  0.00    +0.000 A 
ATOM      7  C   UNL     1       6.156   3.763  15.578  0.00  0.00    +0.000 A 
ATOM      8  C   UNL     1       4.913   3.509  16.113  0.00  0.00    +0.000 A 
ATOM      9  C   UNL     1       4.307   4.476  16.920  0.00  0.00    +0.000 A 
ATOM     10  C   UNL     1       2.913   4.267  17.285  0.00  0.00    +0.000 A 
ATOM     11  O   UNL     1       2.306   3.226  17.037  0.00  0.00    +0.000 OA
ATOM     12  C   UNL     1       2.248   5.374  17.939  0.00  0.00    +0.000 A 
ATOM     13  C   UNL     1       2.954   6.414  18.419  0.00  0.00    +0.000 A 
ATOM     14  O   UNL     1       4.325   6.591  18.125  0.00  0.00    +0.000 OA
ATOM     15  C   UNL     1       4.934   5.682  17.266  0.00  0.00    +0.000 A 
BRANCH  13  16
ATOM     16  N   UNL     1       2.278   7.319  19.267  0.00  0.00    +0.000 N 
ATOM     17  C   UNL     1       1.877   7.143  20.574  0.00  0.00    +0.000 A 
ATOM     18  N   UNL     1       1.244   8.211  21.009  0.00  0.00    +0.000 NA
ATOM     19  N   UNL     1       1.228   9.080  19.966  0.00  0.00    +0.000 NA
ATOM     20  N   UNL     1       1.837   8.567  18.911  0.00  0.00    +0.000 NA
ENDBRANCH  13  16
ENDBRANCH   3   5
BRANCH   1  22
ATOM     21  C   UNL     1       9.008   9.300  18.804  0.00  0.00    +0.000 C 
ATOM     22  C   UNL     1       8.067   8.961  17.909  0.00  0.00    +0.000 C 
BRANCH  21  26
ATOM     23  C   UNL     1      10.300  13.282  19.705  0.00  0.00    +0.000 A 
ATOM     24  C   UNL     1       9.811  12.436  20.705  0.00  0.00    +0.000 A 
ATOM     25  C   UNL     1       9.406  11.137  20.398  0.00  0.00    +0.000 A 
ATOM     26  C   UNL     1       9.457  10.668  19.078  0.00  0.00    +0.000 A 
ATOM     27  C   UNL     1       9.957  11.507  18.080  0.00  0.00    +0.000 A 
ATOM     28  C   UNL     1      10.367  12.805  18.388  0.00  0.00    +0.000 A 
BRANCH  23  29
ATOM     29  C   UNL     1      10.763  14.679  20.027  0.00  0.00    +0.000 C 
BRANCH  29  30
ATOM     30  C   UNL     1      10.279  15.736  19.028  0.00  0.00    +0.000 C 
BRANCH  30  31
ATOM     31  C   UNL     1       8.787  16.053  19.160  0.00  0.00    +0.000 C 
BRANCH  31  33
ATOM     32  C   UNL     1       7.181  14.533  17.952  0.00  0.00    +0.000 C 
ATOM     33  C   UNL     1       8.053  15.773  17.849  0.00  0.00    +0.000 C 
ENDBRANCH  31  33
ENDBRANCH  30  31
ENDBRANCH  29  30
ENDBRANCH  23  29
ENDBRANCH  21  26
ENDBRANCH   1  22
TORSDOF 8
ENDMDL
MODEL 2
REMARK VINA RESULT:      -8.7      0.806      1.225
REMARK  Name = 
REMARK  9 active torsions:
REMARK  status: ('A' for Active; 'I' for Inactive)
REMARK    1  A    between atoms: C_1  and  C_2
REMARK    2  A    between atoms: C_2  and  C_3
REMARK    3  A    between atoms: C_3  and  C_4
REMARK    4  A    between atoms: C_4  and  C_5
REMARK    5  A    between atoms: C_5  and  C_6
REMARK    6  A    between atoms: C_9  and  C_10
REMARK    7  A    between atoms: C_11  and  C_12
REMARK    8  A    between atoms: N_14  and  C_15
REMARK    9  A    between atoms: C_23  and  N_24
REMARK                            x       y       z     vdW  Elec       q    Type
REMARK                         _______ _______ _______ _____ _____    ______ ____
ROOT
ATOM      1  C   UNL     1       7.655   7.570  17.817  0.00  0.00    +0.000 C 
ATOM      2  O   UNL     1       8.143   6.761  18.605  0.00  0.00    +0.000 OA
ATOM      3  N   UNL     1       6.747   7.278  16.812  0.00  0.00    +0.000 N 
ATOM      4  H   UNL     1       6.623   7.944  16.061  0.00  0.00    +0.000 HD
ENDROOT
BRANCH   3   5
ATOM      5  C   UNL     1       6.130   6.006  16.666  0.00  0.00    +0.000 A 
ATOM      6  C   UNL     1       6.734   5.026  15.846  0.00  0.00    +0.000 A 
ATOM      7  C   UNL     1       6.128   3.801  15.584  0.00  0.00    +0.000 A 
ATOM      8  C   UNL     1       4.890   3.537  16.127  0.00  0.00    +0.000 A 
ATOM      9  C   UNL     1       4.283   4.499  16.939  0.00  0.00    +0.000 A 
ATOM     10  C   UNL     1       2.892   4.280  17.313  0.00  0.00    +0.000 A 
ATOM     11  O   UNL     1       2.292   3.235  17.068  0.00  0.00    +0.000 OA
ATOM     12  C   UNL     1       2.224   5.382  17.971  0.00  0.00    +0.000 A 
ATOM     13  C   UNL     1       2.925   6.427  18.447  0.00  0.00    +0.000 A 
ATOM     14  O   UNL     1       4.293   6.614  18.144  0.00  0.00    +0.000 OA
ATOM     15  C   UNL     1       4.902   5.710  17.281  0.00  0.00    +0.000 A 
BRANCH  13  16
ATOM     16  N   UNL     1       2.247   7.327  19.299  0.00  0.00    +0.000 N 
ATOM     17  C   UNL     1       1.837   7.139  20.602  0.00  0.00    +0.000 A 
ATOM     18  N   UNL     1       1.206   8.206  21.043  0.00  0.00    +0.000 NA
ATOM     19  N   UNL     1       1.202   9.086  20.009  0.00  0.00    +0.000 NA
ATOM     20  N   UNL     1       1.816   8.580  18.953  0.00  0.00    +0.000 NA
ENDBRANCH  13  16
ENDBRANCH   3   5
BRANCH   1  22
ATOM     21  C   UNL     1       8.932   9.353  18.833  0.00  0.00    +0.000 C 
ATOM     22  C   UNL     1       8.049   8.998  17.885  0.00  0.00    +0.000 C 
BRANCH  21  26
ATOM     23  C   UNL     1      10.134  13.396  19.573  0.00  0.00    +0.000 A 
ATOM     24  C   UNL     1       9.661  12.999  18.319  0.00  0.00    +0.000 A 
ATOM     25  C   UNL     1       9.261  11.682  18.097  0.00  0.00    +0.000 A 
ATOM     26  C   UNL     1       9.353  10.728  19.119  0.00  0.00    +0.000 A 
ATOM     27  C   UNL     1       9.812  11.125  20.377  0.00  0.00    +0.000 A 
ATOM     28  C   UNL     1      10.207  12.444  20.600  0.00  0.00    +0.000 A 
BRANCH  23  29
ATOM     29  C   UNL     1      10.547  14.821  19.833  0.00  0.00    +0.000 C 
BRANCH  29  30
ATOM     30  C   UNL     1       9.537  15.614  20.670  0.00  0.00    +0.000 C 
BRANCH  30  31
ATOM     31  C   UNL     1       8.310  16.063  19.869  0.00  0.00    +0.000 C 
BRANCH  31  33
ATOM     32  C   UNL     1       7.319  14.552  21.626  0.00  0.00    +0.000 C 
ATOM     33  C   UNL     1       7.025  15.527  20.498  0.00  0.00    +0.000 C 
ENDBRANCH  31  33
ENDBRANCH  30  31
ENDBRANCH  29  30
ENDBRANCH  23  29
ENDBRANCH  21  26
ENDBRANCH   1  22
TORSDOF 8
ENDMDL
MODEL 3
REMARK VINA RESULT:      -8.7      0.740      1.094
REMARK  Name = 
REMARK  9 active torsions:
REMARK  status: ('A' for Active; 'I' for Inactive)
REMARK    1  A    between atoms: C_1  and  C_2
REMARK    2  A    between atoms: C_2  and  C_3
REMARK    3  A    between atoms: C_3  and  C_4
REMARK    4  A    between atoms: C_4  and  C_5
REMARK    5  A    between atoms: C_5  and  C_6
REMARK    6  A    between atoms: C_9  and  C_10
REMARK    7  A    between atoms: C_11  and  C_12
REMARK    8  A    between atoms: N_14  and  C_15
REMARK    9  A    between atoms: C_23  and  N_24
REMARK                            x       y       z     vdW  Elec       q    Type
REMARK                         _______ _______ _______ _____ _____    ______ ____
ROOT
ATOM      1  C   UNL     1       7.655   7.537  17.844  0.00  0.00    +0.000 C 
ATOM      2  O   UNL     1       8.131   6.727  18.639  0.00  0.00    +0.000 OA
ATOM      3  N   UNL     1       6.755   7.248  16.831  0.00  0.00    +0.000 N 
ATOM      4  H   UNL     1       6.642   7.911  16.077  0.00  0.00    +0.000 HD
ENDROOT
BRANCH   3   5
ATOM      5  C   UNL     1       6.130   5.979  16.684  0.00  0.00    +0.000 A 
ATOM      6  C   UNL     1       6.732   4.994  15.868  0.00  0.00    +0.000 A 
ATOM      7  C   UNL     1       6.119   3.773  15.605  0.00  0.00    +0.000 A 
ATOM      8  C   UNL     1       4.877   3.517  16.142  0.00  0.00    +0.000 A 
ATOM      9  C   UNL     1       4.272   4.485  16.950  0.00  0.00    +0.000 A 
ATOM     10  C   UNL     1       2.878   4.275  17.317  0.00  0.00    +0.000 A 
ATOM     11  O   UNL     1       2.272   3.234  17.071  0.00  0.00    +0.000 OA
ATOM     12  C   UNL     1       2.214   5.382  17.971  0.00  0.00    +0.000 A 
ATOM     13  C   UNL     1       2.919   6.423  18.448  0.00  0.00    +0.000 A 
ATOM     14  O   UNL     1       4.290   6.601  18.152  0.00  0.00    +0.000 OA
ATOM     15  C   UNL     1       4.898   5.692  17.293  0.00  0.00    +0.000 A 
BRANCH  13  16
ATOM     16  N   UNL     1       2.243   7.329  19.296  0.00  0.00    +0.000 N 
ATOM     17  C   UNL     1       1.845   7.153  20.605  0.00  0.00    +0.000 A 
ATOM     18  N   UNL     1       1.211   8.222  21.039  0.00  0.00    +0.000 NA
ATOM     19  N   UNL     1       1.193   9.090  19.996  0.00  0.00    +0.000 NA
ATOM     20  N   UNL     1       1.802   8.576  18.940  0.00  0.00    +0.000 NA
ENDBRANCH  13  16
ENDBRANCH   3   5
BRANCH   1  22
ATOM     21  C   UNL     1       8.973   9.305  18.833  0.00  0.00    +0.000 C 
ATOM     22  C   UNL     1       8.059   8.962  17.911  0.00  0.00    +0.000 C 
BRANCH  21  26
ATOM     23  C   UNL     1      10.262  13.282  19.759  0.00  0.00    +0.000 A 
ATOM     24  C   UNL     1      10.128  12.313  20.758  0.00  0.00    +0.000 A 
ATOM     25  C   UNL     1       9.720  11.019  20.439  0.00  0.00    +0.000 A 
ATOM     26  C   UNL     1       9.410  10.676  19.116  0.00  0.00    +0.000 A 
ATOM     27  C   UNL     1       9.556  11.638  18.114  0.00  0.00    +0.000 A 
ATOM     28  C   UNL     1       9.970  12.932  18.433  0.00  0.00    +0.000 A 
BRANCH  23  29
ATOM     29  C   UNL     1      10.726  14.678  20.087  0.00  0.00    +0.000 C 
BRANCH  29  30
ATOM     30  C   UNL     1       9.584  15.687  20.244  0.00  0.00    +0.000 C 
BRANCH  30  31
ATOM     31  C   UNL     1       9.436  16.625  19.042  0.00  0.00    +0.000 C 
BRANCH  31  33
ATOM     32  C   UNL     1      10.675  18.090  17.409  0.00  0.00    +0.000 C 
ATOM     33  C   UNL     1      10.804  17.078  18.534  0.00  0.00    +0.000 C 
ENDBRANCH  31  33
ENDBRANCH  30  31
ENDBRANCH  29  30
ENDBRANCH  23  29
ENDBRANCH  21  26
ENDBRANCH   1  22
TORSDOF 8
ENDMDL
MODEL 4
REMARK VINA RESULT:      -8.5      0.941      1.449
REMARK  Name = 
REMARK  9 active torsions:
REMARK  status: ('A' for Active; 'I' for Inactive)
REMARK    1  A    between atoms: C_1  and  C_2
REMARK    2  A    between atoms: C_2  and  C_3
REMARK    3  A    between atoms: C_3  and  C_4
REMARK    4  A    between atoms: C_4  and  C_5
REMARK    5  A    between atoms: C_5  and  C_6
REMARK    6  A    between atoms: C_9  and  C_10
REMARK    7  A    between atoms: C_11  and  C_12
REMARK    8  A    between atoms: N_14  and  C_15
REMARK    9  A    between atoms: C_23  and  N_24
REMARK                            x       y       z     vdW  Elec       q    Type
REMARK                         _______ _______ _______ _____ _____    ______ ____
ROOT
ATOM      1  C   UNL     1       7.632   7.654  17.688  0.00  0.00    +0.000 C 
ATOM      2  O   UNL     1       8.081   6.938  18.582  0.00  0.00    +0.000 OA
ATOM      3  N   UNL     1       6.739   7.262  16.705  0.00  0.00    +0.000 N 
ATOM      4  H   UNL     1       6.649   7.831  15.874  0.00  0.00    +0.000 HD
ENDROOT
BRANCH   3   5
ATOM      5  C   UNL     1       6.089   5.997  16.703  0.00  0.00    +0.000 A 
ATOM      6  C   UNL     1       6.681   4.909  16.023  0.00  0.00    +0.000 A 
ATOM      7  C   UNL     1       6.046   3.676  15.901  0.00  0.00    +0.000 A 
ATOM      8  C   UNL     1       4.791   3.513  16.445  0.00  0.00    +0.000 A 
ATOM      9  C   UNL     1       4.196   4.583  17.119  0.00  0.00    +0.000 A 
ATOM     10  C   UNL     1       2.793   4.447  17.486  0.00  0.00    +0.000 A 
ATOM     11  O   UNL     1       2.169   3.395  17.359  0.00  0.00    +0.000 OA
ATOM     12  C   UNL     1       2.143   5.639  17.989  0.00  0.00    +0.000 A 
ATOM     13  C   UNL     1       2.864   6.716  18.347  0.00  0.00    +0.000 A 
ATOM     14  O   UNL     1       4.242   6.830  18.054  0.00  0.00    +0.000 OA
ATOM     15  C   UNL     1       4.842   5.811  17.322  0.00  0.00    +0.000 A 
BRANCH  13  16
ATOM     16  N   UNL     1       2.196   7.732  19.068  0.00  0.00    +0.000 N 
ATOM     17  C   UNL     1       1.808   7.739  20.390  0.00  0.00    +0.000 A 
ATOM     18  N   UNL     1       1.179   8.859  20.678  0.00  0.00    +0.000 NA
ATOM     19  N   UNL     1       1.154   9.575  19.525  0.00  0.00    +0.000 NA
ATOM     20  N   UNL     1       1.754   8.919  18.546  0.00  0.00    +0.000 NA
ENDBRANCH  13  16
ENDBRANCH   3   5
BRANCH   1  22
ATOM     21  C   UNL     1       8.833   9.555  18.577  0.00  0.00    +0.000 C 
ATOM     22  C   UNL     1       8.065   9.069  17.588  0.00  0.00    +0.000 C 
BRANCH  21  26
ATOM     23  C   UNL     1      10.164  13.602  19.004  0.00  0.00    +0.000 A 
ATOM     24  C   UNL     1      10.770  12.562  19.715  0.00  0.00    +0.000 A 
ATOM     25  C   UNL     1      10.334  11.247  19.556  0.00  0.00    +0.000 A 
ATOM     26  C   UNL     1       9.263  10.951  18.702  0.00  0.00    +0.000 A 
ATOM     27  C   UNL     1       8.665  11.986  17.980  0.00  0.00    +0.000 A 
ATOM     28  C   UNL     1       9.105  13.301  18.136  0.00  0.00    +0.000 A 
BRANCH  23  29
ATOM     29  C   UNL     1      10.642  15.024  19.149  0.00  0.00    +0.000 C 
BRANCH  29  30
ATOM     30  C   UNL     1      11.589  15.239  20.335  0.00  0.00    +0.000 C 
BRANCH  30  31
ATOM     31  C   UNL     1      10.905  15.884  21.545  0.00  0.00    +0.000 C 
BRANCH  31  33
ATOM     32  C   UNL     1       9.144  14.403  22.572  0.00  0.00    +0.000 C 
ATOM     33  C   UNL     1       9.421  15.525  21.585  0.00  0.00    +0.000 C 
ENDBRANCH  31  33
ENDBRANCH  30  31
ENDBRANCH  29  30
ENDBRANCH  23  29
ENDBRANCH  21  26
ENDBRANCH   1  22
TORSDOF 8
ENDMDL
MODEL 5
REMARK VINA RESULT:      -8.1      1.064      1.383
REMARK  Name = 
REMARK  9 active torsions:
REMARK  status: ('A' for Active; 'I' for Inactive)
REMARK    1  A    between atoms: C_1  and  C_2
REMARK    2  A    between atoms: C_2  and  C_3
REMARK    3  A    between atoms: C_3  and  C_4
REMARK    4  A    between atoms: C_4  and  C_5
REMARK    5  A    between atoms: C_5  and  C_6
REMARK    6  A    between atoms: C_9  and  C_10
REMARK    7  A    between atoms: C_11  and  C_12
REMARK    8  A    between atoms: N_14  and  C_15
REMARK    9  A    between atoms: C_23  and  N_24
REMARK                            x       y       z     vdW  Elec       q    Type
REMARK                         _______ _______ _______ _____ _____    ______ ____
ROOT
ATOM      1  C   UNL     1       7.749   7.720  17.947  0.00  0.00    +0.000 C 
ATOM      2  O   UNL     1       8.250   6.896  18.712  0.00  0.00    +0.000 OA
ATOM      3  N   UNL     1       6.835   7.446  16.942  0.00  0.00    +0.000 N 
ATOM      4  H   UNL     1       6.700   8.128  16.208  0.00  0.00    +0.000 HD
ENDROOT
BRANCH   3   5
ATOM      5  C   UNL     1       6.226   6.173  16.771  0.00  0.00    +0.000 A 
ATOM      6  C   UNL     1       6.865   5.193  15.977  0.00  0.00    +0.000 A 
ATOM      7  C   UNL     1       6.272   3.967  15.690  0.00  0.00    +0.000 A 
ATOM      8  C   UNL     1       5.013   3.702  16.181  0.00  0.00    +0.000 A 
ATOM      9  C   UNL     1       4.371   4.664  16.966  0.00  0.00    +0.000 A 
ATOM     10  C   UNL     1       2.966   4.443  17.282  0.00  0.00    +0.000 A 
ATOM     11  O   UNL     1       2.377   3.398  17.012  0.00  0.00    +0.000 OA
ATOM     12  C   UNL     1       2.269   5.545  17.911  0.00  0.00    +0.000 A 
ATOM     13  C   UNL     1       2.949   6.591  18.416  0.00  0.00    +0.000 A 
ATOM     14  O   UNL     1       4.328   6.779  18.170  0.00  0.00    +0.000 OA
ATOM     15  C   UNL     1       4.974   5.876  17.334  0.00  0.00    +0.000 A 
BRANCH  13  16
ATOM     16  N   UNL     1       2.235   7.490  19.239  0.00  0.00    +0.000 N 
ATOM     17  C   UNL     1       1.774   8.755  18.939  0.00  0.00    +0.000 A 
ATOM     18  N   UNL     1       1.184   9.289  19.986  0.00  0.00    +0.000 NA
ATOM     19  N   UNL     1       1.275   8.362  20.974  0.00  0.00    +0.000 NA
ATOM     20  N   UNL     1       1.904   7.278  20.551  0.00  0.00    +0.000 NA
ENDBRANCH  13  16
ENDBRANCH   3   5
BRANCH   1  22
ATOM     21  C   UNL     1       9.165   9.460  18.848  0.00  0.00    +0.000 C 
ATOM     22  C   UNL     1       8.133   9.149  18.046  0.00  0.00    +0.000 C 
BRANCH  21  26
ATOM     23  C   UNL     1      10.387  13.457  19.777  0.00  0.00    +0.000 A 
ATOM     24  C   UNL     1       9.081  13.024  20.022  0.00  0.00    +0.000 A 
ATOM     25  C   UNL     1       8.701  11.715  19.726  0.00  0.00    +0.000 A 
ATOM     26  C   UNL     1       9.615  10.821  19.152  0.00  0.00    +0.000 A 
ATOM     27  C   UNL     1      10.925  11.248  18.919  0.00  0.00    +0.000 A 
ATOM     28  C   UNL     1      11.305  12.556  19.220  0.00  0.00    +0.000 A 
BRANCH  23  29
ATOM     29  C   UNL     1      10.816  14.861  20.114  0.00  0.00    +0.000 C 
BRANCH  29  30
ATOM     30  C   UNL     1      11.351  15.649  18.913  0.00  0.00    +0.000 C 
BRANCH  30  31
ATOM     31  C   UNL     1      10.464  15.530  17.670  0.00  0.00    +0.000 C 
BRANCH  31  33
ATOM     32  C   UNL     1      10.834  18.021  17.574  0.00  0.00    +0.000 C 
ATOM     33  C   UNL     1      10.629  16.750  16.765  0.00  0.00    +0.000 C 
ENDBRANCH  31  33
ENDBRANCH  30  31
ENDBRANCH  29  30
ENDBRANCH  23  29
ENDBRANCH  21  26
ENDBRANCH   1  22
TORSDOF 8
ENDMDL
MODEL 6
REMARK VINA RESULT:      -8.1      4.849      9.603
REMARK  Name = 
REMARK  9 active torsions:
REMARK  status: ('A' for Active; 'I' for Inactive)
REMARK    1  A    between atoms: C_1  and  C_2
REMARK    2  A    between atoms: C_2  and  C_3
REMARK    3  A    between atoms: C_3  and  C_4
REMARK    4  A    between atoms: C_4  and  C_5
REMARK    5  A    between atoms: C_5  and  C_6
REMARK    6  A    between atoms: C_9  and  C_10
REMARK    7  A    between atoms: C_11  and  C_12
REMARK    8  A    between atoms: N_14  and  C_15
REMARK    9  A    between atoms: C_23  and  N_24
REMARK                            x       y       z     vdW  Elec       q    Type
REMARK                         _______ _______ _______ _____ _____    ______ ____
ROOT
ATOM      1  C   UNL     1       1.189   9.238  18.674  0.00  0.00    +0.000 C 
ATOM      2  O   UNL     1       0.233   9.848  18.195  0.00  0.00    +0.000 OA
ATOM      3  N   UNL     1       1.563   9.230  20.007  0.00  0.00    +0.000 N 
ATOM      4  H   UNL     1       2.499   8.933  20.248  0.00  0.00    +0.000 HD
ENDROOT
BRANCH   3   5
ATOM      5  C   UNL     1       0.776   9.810  21.039  0.00  0.00    +0.000 A 
ATOM      6  C   UNL     1      -0.004   8.978  21.875  0.00  0.00    +0.000 A 
ATOM      7  C   UNL     1      -0.870   9.493  22.835  0.00  0.00    +0.000 A 
ATOM      8  C   UNL     1      -0.988  10.859  22.967  0.00  0.00    +0.000 A 
ATOM      9  C   UNL     1      -0.223  11.691  22.144  0.00  0.00    +0.000 A 
ATOM     10  C   UNL     1      -0.532  13.115  22.158  0.00  0.00    +0.000 A 
ATOM     11  O   UNL     1      -1.323  13.618  22.953  0.00  0.00    +0.000 OA
ATOM     12  C   UNL     1       0.123  13.922  21.151  0.00  0.00    +0.000 A 
ATOM     13  C   UNL     1       1.152  13.432  20.437  0.00  0.00    +0.000 A 
ATOM     14  O   UNL     1       1.502  12.063  20.468  0.00  0.00    +0.000 OA
ATOM     15  C   UNL     1       0.713  11.201  21.222  0.00  0.00    +0.000 A 
BRANCH  13  16
ATOM     16  N   UNL     1       1.903  14.349  19.669  0.00  0.00    +0.000 N 
ATOM     17  C   UNL     1       3.247  14.648  19.754  0.00  0.00    +0.000 A 
ATOM     18  N   UNL     1       3.564  15.585  18.886  0.00  0.00    +0.000 NA
ATOM     19  N   UNL     1       2.410  15.900  18.244  0.00  0.00    +0.000 NA
ATOM     20  N   UNL     1       1.401  15.176  18.699  0.00  0.00    +0.000 NA
ENDBRANCH  13  16
ENDBRANCH   3   5
BRANCH   1  22
ATOM     21  C   UNL     1       2.573   7.294  18.285  0.00  0.00    +0.000 C 
ATOM     22  C   UNL     1       2.070   8.437  17.790  0.00  0.00    +0.000 C 
BRANCH  21  26
ATOM     23  C   UNL     1       5.456   4.864  16.256  0.00  0.00    +0.000 A 
ATOM     24  C   UNL     1       5.548   6.259  16.243  0.00  0.00    +0.000 A 
ATOM     25  C   UNL     1       4.608   7.036  16.919  0.00  0.00    +0.000 A 
ATOM     26  C   UNL     1       3.542   6.434  17.599  0.00  0.00    +0.000 A 
ATOM     27  C   UNL     1       3.456   5.040  17.625  0.00  0.00    +0.000 A 
ATOM     28  C   UNL     1       4.399   4.262  16.953  0.00  0.00    +0.000 A 
BRANCH  23  29
ATOM     29  C   UNL     1       6.478   4.011  15.549  0.00  0.00    +0.000 C 
BRANCH  29  30
ATOM     30  C   UNL     1       6.484   4.188  14.027  0.00  0.00    +0.000 C 
BRANCH  30  31
ATOM     31  C   UNL     1       5.141   3.846  13.374  0.00  0.00    +0.000 C 
BRANCH  31  33
ATOM     32  C   UNL     1       4.102   3.235  11.161  0.00  0.00    +0.000 C 
ATOM     33  C   UNL     1       5.351   3.163  12.024  0.00  0.00    +0.000 C 
ENDBRANCH  31  33
ENDBRANCH  30  31
ENDBRANCH  29  30
ENDBRANCH  23  29
ENDBRANCH  21  26
ENDBRANCH   1  22
TORSDOF 8
ENDMDL
MODEL 7
REMARK VINA RESULT:      -8.1      4.016      9.688
REMARK  Name = 
REMARK  9 active torsions:
REMARK  status: ('A' for Active; 'I' for Inactive)
REMARK    1  A    between atoms: C_1  and  C_2
REMARK    2  A    between atoms: C_2  and  C_3
REMARK    3  A    between atoms: C_3  and  C_4
REMARK    4  A    between atoms: C_4  and  C_5
REMARK    5  A    between atoms: C_5  and  C_6
REMARK    6  A    between atoms: C_9  and  C_10
REMARK    7  A    between atoms: C_11  and  C_12
REMARK    8  A    between atoms: N_14  and  C_15
REMARK    9  A    between atoms: C_23  and  N_24
REMARK                            x       y       z     vdW  Elec       q    Type
REMARK                         _______ _______ _______ _____ _____    ______ ____
ROOT
ATOM      1  C   UNL     1       9.494  10.642  19.123  0.00  0.00    +0.000 C 
ATOM      2  O   UNL     1      10.045  11.068  20.138  0.00  0.00    +0.000 OA
ATOM      3  N   UNL     1       9.336  11.334  17.934  0.00  0.00    +0.000 N 
ATOM      4  H   UNL     1       8.644  11.011  17.271  0.00  0.00    +0.000 HD
ENDROOT
BRANCH   3   5
ATOM      5  C   UNL     1       9.947  12.592  17.679  0.00  0.00    +0.000 A 
ATOM      6  C   UNL     1      11.326  12.651  17.371  0.00  0.00    +0.000 A 
ATOM      7  C   UNL     1      12.000  13.858  17.212  0.00  0.00    +0.000 A 
ATOM      8  C   UNL     1      11.308  15.037  17.374  0.00  0.00    +0.000 A 
ATOM      9  C   UNL     1       9.945  14.992  17.679  0.00  0.00    +0.000 A 
ATOM     10  C   UNL     1       9.301  16.242  18.058  0.00  0.00    +0.000 A 
ATOM     11  O   UNL     1       9.863  17.333  17.980  0.00  0.00    +0.000 OA
ATOM     12  C   UNL     1       7.951  16.138  18.571  0.00  0.00    +0.000 A 
ATOM     13  C   UNL     1       7.253  14.996  18.444  0.00  0.00    +0.000 A 
ATOM     14  O   UNL     1       7.854  13.791  18.013  0.00  0.00    +0.000 OA
ATOM     15  C   UNL     1       9.224  13.792  17.772  0.00  0.00    +0.000 A 
BRANCH  13  16
ATOM     16  N   UNL     1       5.869  15.047  18.726  0.00  0.00    +0.000 N 
ATOM     17  C   UNL     1       4.810  15.100  17.845  0.00  0.00    +0.000 A 
ATOM     18  N   UNL     1       3.671  15.173  18.501  0.00  0.00    +0.000 NA
ATOM     19  N   UNL     1       4.002  15.178  19.817  0.00  0.00    +0.000 NA
ATOM     20  N   UNL     1       5.314  15.108  19.977  0.00  0.00    +0.000 NA
ENDBRANCH  13  16
ENDBRANCH   3   5
BRANCH   1  22
ATOM     21  C   UNL     1       8.261   8.887  18.008  0.00  0.00    +0.000 C 
ATOM     22  C   UNL     1       8.909   9.280  19.117  0.00  0.00    +0.000 C 
BRANCH  21  26
ATOM     23  C   UNL     1       6.069   5.243  17.510  0.00  0.00    +0.000 A 
ATOM     24  C   UNL     1       5.714   6.402  16.813  0.00  0.00    +0.000 A 
ATOM     25  C   UNL     1       6.446   7.578  16.976  0.00  0.00    +0.000 A 
ATOM     26  C   UNL     1       7.531   7.624  17.862  0.00  0.00    +0.000 A 
ATOM     27  C   UNL     1       7.895   6.464  18.549  0.00  0.00    +0.000 A 
ATOM     28  C   UNL     1       7.166   5.286  18.381  0.00  0.00    +0.000 A 
BRANCH  23  29
ATOM     29  C   UNL     1       5.301   3.959  17.324  0.00  0.00    +0.000 C 
BRANCH  29  30
ATOM     30  C   UNL     1       4.007   3.890  18.143  0.00  0.00    +0.000 C 
BRANCH  30  31
ATOM     31  C   UNL     1       2.760   3.662  17.283  0.00  0.00    +0.000 C 
BRANCH  31  33
ATOM     32  C   UNL     1       1.032   2.570  18.758  0.00  0.00    +0.000 C 
ATOM     33  C   UNL     1       1.489   3.865  18.105  0.00  0.00    +0.000 C 
ENDBRANCH  31  33
ENDBRANCH  30  31
ENDBRANCH  29  30
ENDBRANCH  23  29
ENDBRANCH  21  26
ENDBRANCH   1  22
TORSDOF 8
ENDMDL
MODEL 8
REMARK VINA RESULT:      -8.1      6.152      9.776
REMARK  Name = 
REMARK  9 active torsions:
REMARK  status: ('A' for Active; 'I' for Inactive)
REMARK    1  A    between atoms: C_1  and  C_2
REMARK    2  A    between atoms: C_2  and  C_3
REMARK    3  A    between atoms: C_3  and  C_4
REMARK    4  A    between atoms: C_4  and  C_5
REMARK    5  A    between atoms: C_5  and  C_6
REMARK    6  A    between atoms: C_9  and  C_10
REMARK    7  A    between atoms: C_11  and  C_12
REMARK    8  A    between atoms: N_14  and  C_15
REMARK    9  A    between atoms: C_23  and  N_24
REMARK                            x       y       z     vdW  Elec       q    Type
REMARK                         _______ _______ _______ _____ _____    ______ ____
ROOT
ATOM      1  C   UNL     1       0.214   8.739  21.259  0.00  0.00    +0.000 C 
ATOM      2  O   UNL     1      -0.706   8.289  21.942  0.00  0.00    +0.000 OA
ATOM      3  N   UNL     1       0.321  10.039  20.794  0.00  0.00    +0.000 N 
ATOM      4  H   UNL     1       0.953  10.232  20.029  0.00  0.00    +0.000 HD
ENDROOT
BRANCH   3   5
ATOM      5  C   UNL     1      -0.559  11.082  21.194  0.00  0.00    +0.000 A 
ATOM      6  C   UNL     1      -0.451  11.628  22.493  0.00  0.00    +0.000 A 
ATOM      7  C   UNL     1      -1.346  12.579  22.975  0.00  0.00    +0.000 A 
ATOM      8  C   UNL     1      -2.383  12.992  22.169  0.00  0.00    +0.000 A 
ATOM      9  C   UNL     1      -2.500  12.458  20.882  0.00  0.00    +0.000 A 
ATOM     10  C   UNL     1      -3.722  12.748  20.144  0.00  0.00    +0.000 A 
ATOM     11  O   UNL     1      -4.569  13.545  20.543  0.00  0.00    +0.000 OA
ATOM     12  C   UNL     1      -3.914  12.018  18.910  0.00  0.00    +0.000 A 
ATOM     13  C   UNL     1      -2.903  11.328  18.353  0.00  0.00    +0.000 A 
ATOM     14  O   UNL     1      -1.686  11.097  19.035  0.00  0.00    +0.000 OA
ATOM     15  C   UNL     1      -1.571  11.556  20.343  0.00  0.00    +0.000 A 
BRANCH  13  16
ATOM     16  N   UNL     1      -3.085  10.864  17.031  0.00  0.00    +0.000 N 
ATOM     17  C   UNL     1      -4.082  11.184  16.134  0.00  0.00    +0.000 A 
ATOM     18  N   UNL     1      -3.922  10.515  15.012  0.00  0.00    +0.000 NA
ATOM     19  N   UNL     1      -2.816   9.749  15.194  0.00  0.00    +0.000 NA
ATOM     20  N   UNL     1      -2.300   9.938  16.397  0.00  0.00    +0.000 NA
ENDBRANCH  13  16
ENDBRANCH   3   5
BRANCH   1  22
ATOM     21  C   UNL     1       1.758   7.944  19.577  0.00  0.00    +0.000 C 
ATOM     22  C   UNL     1       1.328   7.851  20.845  0.00  0.00    +0.000 C 
BRANCH  21  26
ATOM     23  C   UNL     1       4.729   5.484  17.718  0.00  0.00    +0.000 A 
ATOM     24  C   UNL     1       4.377   6.726  17.180  0.00  0.00    +0.000 A 
ATOM     25  C   UNL     1       3.417   7.521  17.804  0.00  0.00    +0.000 A 
ATOM     26  C   UNL     1       2.769   7.077  18.964  0.00  0.00    +0.000 A 
ATOM     27  C   UNL     1       3.129   5.843  19.511  0.00  0.00    +0.000 A 
ATOM     28  C   UNL     1       4.093   5.050  18.889  0.00  0.00    +0.000 A 
BRANCH  23  29
ATOM     29  C   UNL     1       5.782   4.625  17.066  0.00  0.00    +0.000 C 
BRANCH  29  30
ATOM     30  C   UNL     1       6.855   5.425  16.319  0.00  0.00    +0.000 C 
BRANCH  30  31
ATOM     31  C   UNL     1       7.099   4.922  14.892  0.00  0.00    +0.000 C 
BRANCH  31  33
ATOM     32  C   UNL     1       6.027   3.645  13.003  0.00  0.00    +0.000 C 
ATOM     33  C   UNL     1       6.069   3.862  14.507  0.00  0.00    +0.000 C 
ENDBRANCH  31  33
ENDBRANCH  30  31
ENDBRANCH  29  30
ENDBRANCH  23  29
ENDBRANCH  21  26
ENDBRANCH   1  22
TORSDOF 8
ENDMDL
MODEL 9
REMARK VINA RESULT:      -8.0      5.031      9.678
REMARK  Name = 
REMARK  9 active torsions:
REMARK  status: ('A' for Active; 'I' for Inactive)
REMARK    1  A    between atoms: C_1  and  C_2
REMARK    2  A    between atoms: C_2  and  C_3
REMARK    3  A    between atoms: C_3  and  C_4
REMARK    4  A    between atoms: C_4  and  C_5
REMARK    5  A    between atoms: C_5  and  C_6
REMARK    6  A    between atoms: C_9  and  C_10
REMARK    7  A    between atoms: C_11  and  C_12
REMARK    8  A    between atoms: N_14  and  C_15
REMARK    9  A    between atoms: C_23  and  N_24
REMARK                            x       y       z     vdW  Elec       q    Type
REMARK                         _______ _______ _______ _____ _____    ______ ____
ROOT
ATOM      1  C   UNL     1       1.125   9.268  18.730  0.00  0.00    +0.000 C 
ATOM      2  O   UNL     1       0.150   9.844  18.249  0.00  0.00    +0.000 OA
ATOM      3  N   UNL     1       1.520   9.307  20.057  0.00  0.00    +0.000 N 
ATOM      4  H   UNL     1       2.465   9.037  20.291  0.00  0.00    +0.000 HD
ENDROOT
BRANCH   3   5
ATOM      5  C   UNL     1       0.736   9.901  21.084  0.00  0.00    +0.000 A 
ATOM      6  C   UNL     1       0.040   9.078  21.997  0.00  0.00    +0.000 A 
ATOM      7  C   UNL     1      -0.821   9.598  22.958  0.00  0.00    +0.000 A 
ATOM      8  C   UNL     1      -1.017  10.960  23.015  0.00  0.00    +0.000 A 
ATOM      9  C   UNL     1      -0.334  11.785  22.116  0.00  0.00    +0.000 A 
ATOM     10  C   UNL     1      -0.728  13.186  22.059  0.00  0.00    +0.000 A 
ATOM     11  O   UNL     1      -1.519  13.689  22.855  0.00  0.00    +0.000 OA
ATOM     12  C   UNL     1      -0.160  13.968  20.982  0.00  0.00    +0.000 A 
ATOM     13  C   UNL     1       0.870  13.496  20.257  0.00  0.00    +0.000 A 
ATOM     14  O   UNL     1       1.304  12.154  20.354  0.00  0.00    +0.000 OA
ATOM     15  C   UNL     1       0.596  11.295  21.187  0.00  0.00    +0.000 A 
BRANCH  13  16
ATOM     16  N   UNL     1       1.536  14.408  19.408  0.00  0.00    +0.000 N 
ATOM     17  C   UNL     1       2.710  14.234  18.707  0.00  0.00    +0.000 A 
ATOM     18  N   UNL     1       3.023  15.334  18.055  0.00  0.00    +0.000 NA
ATOM     19  N   UNL     1       2.044  16.227  18.348  0.00  0.00    +0.000 NA
ATOM     20  N   UNL     1       1.144  15.697  19.160  0.00  0.00    +0.000 NA
ENDBRANCH  13  16
ENDBRANCH   3   5
BRANCH   1  22
ATOM     21  C   UNL     1       2.517   7.325  18.365  0.00  0.00    +0.000 C 
ATOM     22  C   UNL     1       2.009   8.459  17.855  0.00  0.00    +0.000 C 
BRANCH  21  26
ATOM     23  C   UNL     1       5.297   4.716  16.415  0.00  0.00    +0.000 A 
ATOM     24  C   UNL     1       4.160   4.214  17.056  0.00  0.00    +0.000 A 
ATOM     25  C   UNL     1       3.257   5.078  17.676  0.00  0.00    +0.000 A 
ATOM     26  C   UNL     1       3.489   6.460  17.690  0.00  0.00    +0.000 A 
ATOM     27  C   UNL     1       4.617   6.964  17.039  0.00  0.00    +0.000 A 
ATOM     28  C   UNL     1       5.517   6.100  16.415  0.00  0.00    +0.000 A 
BRANCH  23  29
ATOM     29  C   UNL     1       6.267   3.796  15.721  0.00  0.00    +0.000 C 
BRANCH  29  30
ATOM     30  C   UNL     1       6.565   4.192  14.271  0.00  0.00    +0.000 C 
BRANCH  30  31
ATOM     31  C   UNL     1       5.545   3.636  13.272  0.00  0.00    +0.000 C 
BRANCH  31  33
ATOM     32  C   UNL     1       5.753   1.951  11.410  0.00  0.00    +0.000 C 
ATOM     33  C   UNL     1       6.216   3.297  11.942  0.00  0.00    +0.000 C 
ENDBRANCH  31  33
ENDBRANCH  30  31
ENDBRANCH  29  30
ENDBRANCH  23  29
ENDBRANCH  21  26
ENDBRANCH   1  22
TORSDOF 8
ENDMDL
