MODEL 1
REMARK VINA RESULT:      -7.0      0.000      0.000
REMARK  Name = 
REMARK  0 active torsions:
REMARK  status: ('A' for Active; 'I' for Inactive)
REMARK                            x       y       z     vdW  Elec       q    Type
REMARK                         _______ _______ _______ _____ _____    ______ ____
ROOT
ATOM      1  O   UNL     1       2.526   3.350  16.786  0.00  0.00    +0.000 OA
ATOM      2  C   UNL     1       2.929   3.275  17.934  0.00  0.00    +0.000 C 
ATOM      3  N   UNL     1       2.190   2.668  18.906  0.00  0.00    +0.000 N 
ATOM      4  C   UNL     1       2.436   3.038  20.186  0.00  0.00    +0.000 C 
ATOM      5  S   UNL     1       1.426   2.678  21.446  0.00  0.00    +0.000 S 
ATOM      6  S   UNL     1       3.916   3.950  20.249  0.00  0.00    +0.000 S 
ATOM      7  C   UNL     1       4.146   3.919  18.515  0.00  0.00    +0.000 C 
ATOM      8  C   UNL     1       5.229   4.366  17.849  0.00  0.00    +0.000 C 
ATOM      9  C   UNL     1       6.419   4.999  18.548  0.00  0.00    +0.000 C 
ATOM     10  O   UNL     1       6.590   5.225  19.730  0.00  0.00    +0.000 OA
ATOM     11  N   UNL     1       7.328   5.285  17.549  0.00  0.00    +0.000 N 
ATOM     12  C   UNL     1       6.847   4.918  16.301  0.00  0.00    +0.000 A 
ATOM     13  C   UNL     1       7.518   5.077  15.100  0.00  0.00    +0.000 A 
ATOM     14  C   UNL     1       6.872   4.653  13.942  0.00  0.00    +0.000 A 
ATOM     15  C   UNL     1       5.597   4.081  14.014  0.00  0.00    +0.000 A 
ATOM     16  C   UNL     1       4.949   3.921  15.246  0.00  0.00    +0.000 A 
ATOM     17  C   UNL     1       5.570   4.351  16.406  0.00  0.00    +0.000 A 
ATOM     18  H   UNL     1       1.315   2.234  18.657  0.00  0.00    +0.000 HD
ATOM     19  H   UNL     1       8.223   5.716  17.734  0.00  0.00    +0.000 HD
ENDROOT
TORSDOF 0
ENDMDL
MODEL 2
REMARK VINA RESULT:      -6.6      1.219      1.328
REMARK  Name = 
REMARK  0 active torsions:
REMARK  status: ('A' for Active; 'I' for Inactive)
REMARK                            x       y       z     vdW  Elec       q    Type
REMARK                         _______ _______ _______ _____ _____    ______ ____
ROOT
ATOM      1  O   UNL     1       2.828   3.453  16.336  0.00  0.00    +0.000 OA
ATOM      2  C   UNL     1       3.321   3.759  17.407  0.00  0.00    +0.000 C 
ATOM      3  N   UNL     1       2.726   3.418  18.586  0.00  0.00    +0.000 N 
ATOM      4  C   UNL     1       3.026   4.175  19.669  0.00  0.00    +0.000 C 
ATOM      5  S   UNL     1       2.157   4.134  21.075  0.00  0.00    +0.000 S 
ATOM      6  S   UNL     1       4.401   5.178  19.307  0.00  0.00    +0.000 S 
ATOM      7  C   UNL     1       4.502   4.643  17.645  0.00  0.00    +0.000 C 
ATOM      8  C   UNL     1       5.479   4.952  16.769  0.00  0.00    +0.000 C 
ATOM      9  C   UNL     1       6.644   5.858  17.126  0.00  0.00    +0.000 C 
ATOM     10  O   UNL     1       6.878   6.444  18.165  0.00  0.00    +0.000 OA
ATOM     11  N   UNL     1       7.441   5.901  15.997  0.00  0.00    +0.000 N 
ATOM     12  C   UNL     1       6.909   5.138  14.970  0.00  0.00    +0.000 A 
ATOM     13  C   UNL     1       7.468   4.979  13.712  0.00  0.00    +0.000 A 
ATOM     14  C   UNL     1       6.785   4.175  12.802  0.00  0.00    +0.000 A 
ATOM     15  C   UNL     1       5.587   3.553  13.170  0.00  0.00    +0.000 A 
ATOM     16  C   UNL     1       5.054   3.722  14.455  0.00  0.00    +0.000 A 
ATOM     17  C   UNL     1       5.711   4.530  15.367  0.00  0.00    +0.000 A 
ATOM     18  H   UNL     1       1.885   2.862  18.566  0.00  0.00    +0.000 HD
ATOM     19  H   UNL     1       8.296   6.437  15.955  0.00  0.00    +0.000 HD
ENDROOT
TORSDOF 0
ENDMDL
MODEL 3
REMARK VINA RESULT:      -6.5      3.082      5.889
REMARK  Name = 
REMARK  0 active torsions:
REMARK  status: ('A' for Active; 'I' for Inactive)
REMARK                            x       y       z     vdW  Elec       q    Type
REMARK                         _______ _______ _______ _____ _____    ______ ____
ROOT
ATOM      1  O   UNL     1       4.405   7.215  16.610  0.00  0.00    +0.000 OA
ATOM      2  C   UNL     1       4.995   6.172  16.391  0.00  0.00    +0.000 C 
ATOM      3  N   UNL     1       6.082   6.130  15.568  0.00  0.00    +0.000 N 
ATOM      4  C   UNL     1       6.371   4.940  14.990  0.00  0.00    +0.000 C 
ATOM      5  S   UNL     1       7.417   4.777  13.720  0.00  0.00    +0.000 S 
ATOM      6  S   UNL     1       5.452   3.683  15.767  0.00  0.00    +0.000 S 
ATOM      7  C   UNL     1       4.593   4.794  16.810  0.00  0.00    +0.000 C 
ATOM      8  C   UNL     1       3.758   4.458  17.813  0.00  0.00    +0.000 C 
ATOM      9  C   UNL     1       3.428   3.016  18.158  0.00  0.00    +0.000 C 
ATOM     10  O   UNL     1       3.800   1.990  17.624  0.00  0.00    +0.000 OA
ATOM     11  N   UNL     1       2.584   3.079  19.250  0.00  0.00    +0.000 N 
ATOM     12  C   UNL     1       2.335   4.390  19.626  0.00  0.00    +0.000 A 
ATOM     13  C   UNL     1       1.528   4.785  20.680  0.00  0.00    +0.000 A 
ATOM     14  C   UNL     1       1.390   6.153  20.906  0.00  0.00    +0.000 A 
ATOM     15  C   UNL     1       2.060   7.074  20.092  0.00  0.00    +0.000 A 
ATOM     16  C   UNL     1       2.881   6.642  19.042  0.00  0.00    +0.000 A 
ATOM     17  C   UNL     1       3.016   5.287  18.794  0.00  0.00    +0.000 A 
ATOM     18  H   UNL     1       6.428   6.990  15.173  0.00  0.00    +0.000 HD
ATOM     19  H   UNL     1       2.206   2.254  19.693  0.00  0.00    +0.000 HD
ENDROOT
TORSDOF 0
ENDMDL
MODEL 4
REMARK VINA RESULT:      -6.3      1.874      1.949
REMARK  Name = 
REMARK  0 active torsions:
REMARK  status: ('A' for Active; 'I' for Inactive)
REMARK                            x       y       z     vdW  Elec       q    Type
REMARK                         _______ _______ _______ _____ _____    ______ ____
ROOT
ATOM      1  O   UNL     1       3.759   1.938  17.842  0.00  0.00    +0.000 OA
ATOM      2  C   UNL     1       3.450   2.702  18.738  0.00  0.00    +0.000 C 
ATOM      3  N   UNL     1       3.009   2.242  19.944  0.00  0.00    +0.000 N 
ATOM      4  C   UNL     1       2.242   3.081  20.680  0.00  0.00    +0.000 C 
ATOM      5  S   UNL     1       1.345   2.589  21.979  0.00  0.00    +0.000 S 
ATOM      6  S   UNL     1       2.339   4.686  20.012  0.00  0.00    +0.000 S 
ATOM      7  C   UNL     1       3.340   4.192  18.666  0.00  0.00    +0.000 C 
ATOM      8  C   UNL     1       3.919   5.009  17.764  0.00  0.00    +0.000 C 
ATOM      9  C   UNL     1       3.745   6.518  17.794  0.00  0.00    +0.000 C 
ATOM     10  O   UNL     1       3.088   7.205  18.551  0.00  0.00    +0.000 OA
ATOM     11  N   UNL     1       4.511   7.000  16.751  0.00  0.00    +0.000 N 
ATOM     12  C   UNL     1       5.138   5.974  16.061  0.00  0.00    +0.000 A 
ATOM     13  C   UNL     1       5.971   6.131  14.965  0.00  0.00    +0.000 A 
ATOM     14  C   UNL     1       6.508   4.979  14.397  0.00  0.00    +0.000 A 
ATOM     15  C   UNL     1       6.212   3.722  14.935  0.00  0.00    +0.000 A 
ATOM     16  C   UNL     1       5.377   3.596  16.053  0.00  0.00    +0.000 A 
ATOM     17  C   UNL     1       4.822   4.730  16.622  0.00  0.00    +0.000 A 
ATOM     18  H   UNL     1       2.983   1.247  20.107  0.00  0.00    +0.000 HD
ATOM     19  H   UNL     1       4.581   7.986  16.537  0.00  0.00    +0.000 HD
ENDROOT
TORSDOF 0
ENDMDL
MODEL 5
REMARK VINA RESULT:      -6.2      3.213      3.548
REMARK  Name = 
REMARK  0 active torsions:
REMARK  status: ('A' for Active; 'I' for Inactive)
REMARK                            x       y       z     vdW  Elec       q    Type
REMARK                         _______ _______ _______ _____ _____    ______ ____
ROOT
ATOM      1  O   UNL     1       3.528   8.269  17.744  0.00  0.00    +0.000 OA
ATOM      2  C   UNL     1       2.826   7.663  18.533  0.00  0.00    +0.000 C 
ATOM      3  N   UNL     1       1.810   8.282  19.201  0.00  0.00    +0.000 N 
ATOM      4  C   UNL     1       1.414   7.726  20.371  0.00  0.00    +0.000 C 
ATOM      5  S   UNL     1       0.459   8.508  21.472  0.00  0.00    +0.000 S 
ATOM      6  S   UNL     1       2.098   6.132  20.512  0.00  0.00    +0.000 S 
ATOM      7  C   UNL     1       3.010   6.264  19.026  0.00  0.00    +0.000 C 
ATOM      8  C   UNL     1       3.713   5.278  18.435  0.00  0.00    +0.000 C 
ATOM      9  C   UNL     1       3.824   3.882  19.024  0.00  0.00    +0.000 C 
ATOM     10  O   UNL     1       3.363   3.442  20.059  0.00  0.00    +0.000 OA
ATOM     11  N   UNL     1       4.580   3.157  18.123  0.00  0.00    +0.000 N 
ATOM     12  C   UNL     1       4.968   3.934  17.042  0.00  0.00    +0.000 A 
ATOM     13  C   UNL     1       5.735   3.501  15.973  0.00  0.00    +0.000 A 
ATOM     14  C   UNL     1       6.031   4.429  14.978  0.00  0.00    +0.000 A 
ATOM     15  C   UNL     1       5.554   5.741  15.070  0.00  0.00    +0.000 A 
ATOM     16  C   UNL     1       4.768   6.146  16.158  0.00  0.00    +0.000 A 
ATOM     17  C   UNL     1       4.477   5.241  17.164  0.00  0.00    +0.000 A 
ATOM     18  H   UNL     1       1.611   9.250  19.000  0.00  0.00    +0.000 HD
ATOM     19  H   UNL     1       4.811   2.184  18.266  0.00  0.00    +0.000 HD
ENDROOT
TORSDOF 0
ENDMDL
MODEL 6
REMARK VINA RESULT:      -6.1      8.358      9.052
REMARK  Name = 
REMARK  0 active torsions:
REMARK  status: ('A' for Active; 'I' for Inactive)
REMARK                            x       y       z     vdW  Elec       q    Type
REMARK                         _______ _______ _______ _____ _____    ______ ____
ROOT
ATOM      1  O   UNL     1      -0.257  12.236  18.498  0.00  0.00    +0.000 OA
ATOM      2  C   UNL     1      -0.824  12.240  19.576  0.00  0.00    +0.000 C 
ATOM      3  N   UNL     1      -1.835  13.116  19.844  0.00  0.00    +0.000 N 
ATOM      4  C   UNL     1      -2.070  13.403  21.147  0.00  0.00    +0.000 C 
ATOM      5  S   UNL     1      -3.000  14.678  21.643  0.00  0.00    +0.000 S 
ATOM      6  S   UNL     1      -1.222  12.263  22.152  0.00  0.00    +0.000 S 
ATOM      7  C   UNL     1      -0.459  11.459  20.798  0.00  0.00    +0.000 C 
ATOM      8  C   UNL     1       0.285  10.337  20.857  0.00  0.00    +0.000 C 
ATOM      9  C   UNL     1       0.584   9.619  22.160  0.00  0.00    +0.000 C 
ATOM     10  O   UNL     1       0.262   9.910  23.295  0.00  0.00    +0.000 OA
ATOM     11  N   UNL     1       1.328   8.508  21.810  0.00  0.00    +0.000 N 
ATOM     12  C   UNL     1       1.542   8.449  20.442  0.00  0.00    +0.000 A 
ATOM     13  C   UNL     1       2.252   7.461  19.780  0.00  0.00    +0.000 A 
ATOM     14  C   UNL     1       2.368   7.571  18.396  0.00  0.00    +0.000 A 
ATOM     15  C   UNL     1       1.772   8.641  17.720  0.00  0.00    +0.000 A 
ATOM     16  C   UNL     1       1.047   9.618  18.417  0.00  0.00    +0.000 A 
ATOM     17  C   UNL     1       0.935   9.533  19.794  0.00  0.00    +0.000 A 
ATOM     18  H   UNL     1      -2.146  13.741  19.117  0.00  0.00    +0.000 HD
ATOM     19  H   UNL     1       1.667   7.843  22.492  0.00  0.00    +0.000 HD
ENDROOT
TORSDOF 0
ENDMDL
MODEL 7
REMARK VINA RESULT:      -6.0      3.123      5.676
REMARK  Name = 
REMARK  0 active torsions:
REMARK  status: ('A' for Active; 'I' for Inactive)
REMARK                            x       y       z     vdW  Elec       q    Type
REMARK                         _______ _______ _______ _____ _____    ______ ____
ROOT
ATOM      1  O   UNL     1       4.958   2.614  17.195  0.00  0.00    +0.000 OA
ATOM      2  C   UNL     1       5.012   3.637  16.536  0.00  0.00    +0.000 C 
ATOM      3  N   UNL     1       5.659   3.676  15.336  0.00  0.00    +0.000 N 
ATOM      4  C   UNL     1       6.101   4.885  14.914  0.00  0.00    +0.000 C 
ATOM      5  S   UNL     1       7.187   5.076  13.682  0.00  0.00    +0.000 S 
ATOM      6  S   UNL     1       5.380   6.135  15.888  0.00  0.00    +0.000 S 
ATOM      7  C   UNL     1       4.559   5.004  16.940  0.00  0.00    +0.000 C 
ATOM      8  C   UNL     1       3.670   5.316  17.903  0.00  0.00    +0.000 C 
ATOM      9  C   UNL     1       3.274   6.748  18.221  0.00  0.00    +0.000 C 
ATOM     10  O   UNL     1       3.671   7.786  17.731  0.00  0.00    +0.000 OA
ATOM     11  N   UNL     1       2.327   6.657  19.223  0.00  0.00    +0.000 N 
ATOM     12  C   UNL     1       2.087   5.340  19.580  0.00  0.00    +0.000 A 
ATOM     13  C   UNL     1       1.195   4.918  20.553  0.00  0.00    +0.000 A 
ATOM     14  C   UNL     1       1.091   3.548  20.779  0.00  0.00    +0.000 A 
ATOM     15  C   UNL     1       1.861   2.649  20.032  0.00  0.00    +0.000 A 
ATOM     16  C   UNL     1       2.744   3.105  19.045  0.00  0.00    +0.000 A 
ATOM     17  C   UNL     1       2.872   4.465  18.817  0.00  0.00    +0.000 A 
ATOM     18  H   UNL     1       6.060   2.827  14.969  0.00  0.00    +0.000 HD
ATOM     19  H   UNL     1       1.886   7.471  19.630  0.00  0.00    +0.000 HD
ENDROOT
TORSDOF 0
ENDMDL
MODEL 8
REMARK VINA RESULT:      -6.0      7.977      8.704
REMARK  Name = 
REMARK  0 active torsions:
REMARK  status: ('A' for Active; 'I' for Inactive)
REMARK                            x       y       z     vdW  Elec       q    Type
REMARK                         _______ _______ _______ _____ _____    ______ ____
ROOT
ATOM      1  O   UNL     1      -0.524   8.949  22.558  0.00  0.00    +0.000 OA
ATOM      2  C   UNL     1      -0.708  10.130  22.319  0.00  0.00    +0.000 C 
ATOM      3  N   UNL     1      -1.231  10.971  23.256  0.00  0.00    +0.000 N 
ATOM      4  C   UNL     1      -1.852  12.087  22.803  0.00  0.00    +0.000 C 
ATOM      5  S   UNL     1      -2.830  13.029  23.746  0.00  0.00    +0.000 S 
ATOM      6  S   UNL     1      -1.479  12.309  21.117  0.00  0.00    +0.000 S 
ATOM      7  C   UNL     1      -0.564  10.823  21.002  0.00  0.00    +0.000 C 
ATOM      8  C   UNL     1       0.152  10.412  19.938  0.00  0.00    +0.000 C 
ATOM      9  C   UNL     1       0.235  11.208  18.647  0.00  0.00    +0.000 C 
ATOM     10  O   UNL     1      -0.303  12.257  18.350  0.00  0.00    +0.000 OA
ATOM     11  N   UNL     1       1.081  10.492  17.822  0.00  0.00    +0.000 N 
ATOM     12  C   UNL     1       1.532   9.334  18.437  0.00  0.00    +0.000 A 
ATOM     13  C   UNL     1       2.389   8.404  17.872  0.00  0.00    +0.000 A 
ATOM     14  C   UNL     1       2.729   7.293  18.641  0.00  0.00    +0.000 A 
ATOM     15  C   UNL     1       2.221   7.149  19.936  0.00  0.00    +0.000 A 
ATOM     16  C   UNL     1       1.367   8.115  20.486  0.00  0.00    +0.000 A 
ATOM     17  C   UNL     1       1.005   9.217  19.730  0.00  0.00    +0.000 A 
ATOM     18  H   UNL     1      -1.425  10.615  24.179  0.00  0.00    +0.000 HD
ATOM     19  H   UNL     1       1.318  10.797  16.889  0.00  0.00    +0.000 HD
ENDROOT
TORSDOF 0
ENDMDL
MODEL 9
REMARK VINA RESULT:      -6.0      4.156      4.705
REMARK  Name = 
REMARK  0 active torsions:
REMARK  status: ('A' for Active; 'I' for Inactive)
REMARK                            x       y       z     vdW  Elec       q    Type
REMARK                         _______ _______ _______ _____ _____    ______ ____
ROOT
ATOM      1  O   UNL     1       3.047   8.987  17.796  0.00  0.00    +0.000 OA
ATOM      2  C   UNL     1       2.238   8.647  18.641  0.00  0.00    +0.000 C 
ATOM      3  N   UNL     1       1.232   9.479  19.037  0.00  0.00    +0.000 N 
ATOM      4  C   UNL     1       0.703   9.264  20.265  0.00  0.00    +0.000 C 
ATOM      5  S   UNL     1      -0.262  10.358  21.043  0.00  0.00    +0.000 S 
ATOM      6  S   UNL     1       1.234   7.716  20.858  0.00  0.00    +0.000 S 
ATOM      7  C   UNL     1       2.264   7.409  19.479  0.00  0.00    +0.000 C 
ATOM      8  C   UNL     1       2.922   6.262  19.218  0.00  0.00    +0.000 C 
ATOM      9  C   UNL     1       2.867   5.057  20.141  0.00  0.00    +0.000 C 
ATOM     10  O   UNL     1       2.294   4.923  21.204  0.00  0.00    +0.000 OA
ATOM     11  N   UNL     1       3.624   4.081  19.522  0.00  0.00    +0.000 N 
ATOM     12  C   UNL     1       4.158   4.532  18.325  0.00  0.00    +0.000 A 
ATOM     13  C   UNL     1       4.963   3.794  17.473  0.00  0.00    +0.000 A 
ATOM     14  C   UNL     1       5.413   4.419  16.312  0.00  0.00    +0.000 A 
ATOM     15  C   UNL     1       5.044   5.739  16.033  0.00  0.00    +0.000 A 
ATOM     16  C   UNL     1       4.217   6.456  16.908  0.00  0.00    +0.000 A 
ATOM     17  C   UNL     1       3.773   5.856  18.074  0.00  0.00    +0.000 A 
ATOM     18  H   UNL     1       1.133  10.375  18.585  0.00  0.00    +0.000 HD
ATOM     19  H   UNL     1       3.759   3.163  19.922  0.00  0.00    +0.000 HD
ENDROOT
TORSDOF 0
ENDMDL
