MODEL 1
REMARK VINA RESULT:      -8.2      0.000      0.000
REMARK  Name = 
REMARK  4 active torsions:
REMARK  status: ('A' for Active; 'I' for Inactive)
REMARK    1  A    between atoms: C_7  and  C_8
REMARK    2  A    between atoms: C_9  and  C_10
REMARK    3  A    between atoms: C_13  and  C_14
REMARK    4  A    between atoms: C_14  and  C_15
REMARK                            x       y       z     vdW  Elec       q    Type
REMARK                         _______ _______ _______ _____ _____    ______ ____
ROOT
ATOM      1  C   UNL     1       1.155   3.538  20.754  0.00  0.00    +0.000 C 
ATOM      2  C   UNL     1       1.803   3.194  19.639  0.00  0.00    +0.000 C 
ATOM      3  C   UNL     1       1.858   1.781  19.071  0.00  0.00    +0.000 C 
ATOM      4  C   UNL     1       3.148   1.839  18.239  0.00  0.00    +0.000 C 
ATOM      5  N   UNL     1       3.390   3.268  18.106  0.00  0.00    +0.000 N 
ATOM      6  C   UNL     1       2.631   4.079  18.910  0.00  0.00    +0.000 A 
ATOM      7  C   UNL     1       2.994   5.384  18.642  0.00  0.00    +0.000 A 
ATOM      8  C   UNL     1       4.010   5.320  17.611  0.00  0.00    +0.000 A 
ATOM      9  C   UNL     1       4.774   6.226  16.855  0.00  0.00    +0.000 A 
ATOM     10  N   UNL     1       4.677   7.605  16.947  0.00  0.00    +0.000 N 
ATOM     11  N   UNL     1       5.674   5.746  15.969  0.00  0.00    +0.000 NA
ATOM     12  C   UNL     1       5.788   4.413  15.819  0.00  0.00    +0.000 A 
ATOM     13  N   UNL     1       5.106   3.450  16.454  0.00  0.00    +0.000 NA
ATOM     14  C   UNL     1       4.235   3.973  17.330  0.00  0.00    +0.000 A 
ATOM     15  H   UNL     1       4.346   7.958  17.833  0.00  0.00    +0.000 HD
ATOM     16  H   UNL     1       5.491   8.051  16.543  0.00  0.00    +0.000 HD
ENDROOT
BRANCH   7  17
ATOM     17  C   UNL     1       2.456   6.571  19.249  0.00  0.00    +0.000 C 
ATOM     18  C   UNL     1       1.978   7.534  19.796  0.00  0.00    +0.000 C 
BRANCH  18  19
ATOM     19  C   UNL     1       1.354   8.661  20.440  0.00  0.00    +0.000 A 
ATOM     20  C   UNL     1       1.057   8.634  21.806  0.00  0.00    +0.000 A 
ATOM     21  C   UNL     1       0.386   9.709  22.414  0.00  0.00    +0.000 A 
ATOM     22  C   UNL     1       0.004  10.833  21.669  0.00  0.00    +0.000 A 
ATOM     23  C   UNL     1       0.335  10.865  20.306  0.00  0.00    +0.000 A 
ATOM     24  C   UNL     1       1.001   9.791  19.698  0.00  0.00    +0.000 A 
BRANCH  22  25
ATOM     25  C   UNL     1      -0.822  11.944  22.279  0.00  0.00    +0.000 C 
ATOM     26  C   UNL     1      -1.905  11.490  23.249  0.00  0.00    +0.000 C 
ENDBRANCH  22  25
ENDBRANCH  18  19
ENDBRANCH   7  17
TORSDOF 3
ENDMDL
MODEL 2
REMARK VINA RESULT:      -8.1      0.980      1.530
REMARK  Name = 
REMARK  4 active torsions:
REMARK  status: ('A' for Active; 'I' for Inactive)
REMARK    1  A    between atoms: C_7  and  C_8
REMARK    2  A    between atoms: C_9  and  C_10
REMARK    3  A    between atoms: C_13  and  C_14
REMARK    4  A    between atoms: C_14  and  C_15
REMARK                            x       y       z     vdW  Elec       q    Type
REMARK                         _______ _______ _______ _____ _____    ______ ____
ROOT
ATOM      1  C   UNL     1       1.381   3.864  20.076  0.00  0.00    +0.000 C 
ATOM      2  C   UNL     1       2.098   3.375  19.062  0.00  0.00    +0.000 C 
ATOM      3  C   UNL     1       2.198   1.897  18.707  0.00  0.00    +0.000 C 
ATOM      4  C   UNL     1       3.536   1.856  17.955  0.00  0.00    +0.000 C 
ATOM      5  N   UNL     1       3.775   3.255  17.632  0.00  0.00    +0.000 N 
ATOM      6  C   UNL     1       2.963   4.161  18.265  0.00  0.00    +0.000 A 
ATOM      7  C   UNL     1       3.331   5.420  17.835  0.00  0.00    +0.000 A 
ATOM      8  C   UNL     1       4.409   5.226  16.886  0.00  0.00    +0.000 A 
ATOM      9  C   UNL     1       5.211   6.027  16.055  0.00  0.00    +0.000 A 
ATOM     10  N   UNL     1       5.098   7.403  15.942  0.00  0.00    +0.000 N 
ATOM     11  N   UNL     1       6.167   5.440  15.301  0.00  0.00    +0.000 NA
ATOM     12  C   UNL     1       6.300   4.101  15.351  0.00  0.00    +0.000 A 
ATOM     13  N   UNL     1       5.588   3.228  16.077  0.00  0.00    +0.000 NA
ATOM     14  C   UNL     1       4.661   3.856  16.815  0.00  0.00    +0.000 A 
ATOM     15  H   UNL     1       4.711   7.874  16.747  0.00  0.00    +0.000 HD
ATOM     16  H   UNL     1       5.932   7.800  15.527  0.00  0.00    +0.000 HD
ENDROOT
BRANCH   7  17
ATOM     17  C   UNL     1       2.748   6.672  18.232  0.00  0.00    +0.000 C 
ATOM     18  C   UNL     1       2.249   7.701  18.616  0.00  0.00    +0.000 C 
BRANCH  18  19
ATOM     19  C   UNL     1       1.604   8.899  19.088  0.00  0.00    +0.000 A 
ATOM     20  C   UNL     1       1.518  10.035  18.278  0.00  0.00    +0.000 A 
ATOM     21  C   UNL     1       0.948  11.223  18.769  0.00  0.00    +0.000 A 
ATOM     22  C   UNL     1       0.450  11.295  20.077  0.00  0.00    +0.000 A 
ATOM     23  C   UNL     1       0.511  10.140  20.872  0.00  0.00    +0.000 A 
ATOM     24  C   UNL     1       1.082   8.956  20.383  0.00  0.00    +0.000 A 
BRANCH  22  25
ATOM     25  C   UNL     1      -0.056  12.596  20.661  0.00  0.00    +0.000 C 
ATOM     26  C   UNL     1      -0.545  12.515  22.101  0.00  0.00    +0.000 C 
ENDBRANCH  22  25
ENDBRANCH  18  19
ENDBRANCH   7  17
TORSDOF 3
ENDMDL
MODEL 3
REMARK VINA RESULT:      -8.1      1.209      1.345
REMARK  Name = 
REMARK  4 active torsions:
REMARK  status: ('A' for Active; 'I' for Inactive)
REMARK    1  A    between atoms: C_7  and  C_8
REMARK    2  A    between atoms: C_9  and  C_10
REMARK    3  A    between atoms: C_13  and  C_14
REMARK    4  A    between atoms: C_14  and  C_15
REMARK                            x       y       z     vdW  Elec       q    Type
REMARK                         _______ _______ _______ _____ _____    ______ ____
ROOT
ATOM      1  C   UNL     1       1.187   3.932  19.940  0.00  0.00    +0.000 C 
ATOM      2  C   UNL     1       1.937   3.438  18.952  0.00  0.00    +0.000 C 
ATOM      3  C   UNL     1       2.009   1.964  18.575  0.00  0.00    +0.000 C 
ATOM      4  C   UNL     1       3.379   1.894  17.885  0.00  0.00    +0.000 C 
ATOM      5  N   UNL     1       3.676   3.291  17.601  0.00  0.00    +0.000 N 
ATOM      6  C   UNL     1       2.862   4.210  18.211  0.00  0.00    +0.000 A 
ATOM      7  C   UNL     1       3.289   5.464  17.823  0.00  0.00    +0.000 A 
ATOM      8  C   UNL     1       4.404   5.253  16.922  0.00  0.00    +0.000 A 
ATOM      9  C   UNL     1       5.269   6.042  16.145  0.00  0.00    +0.000 A 
ATOM     10  N   UNL     1       5.204   7.424  16.052  0.00  0.00    +0.000 N 
ATOM     11  N   UNL     1       6.242   5.439  15.427  0.00  0.00    +0.000 NA
ATOM     12  C   UNL     1       6.332   4.096  15.458  0.00  0.00    +0.000 A 
ATOM     13  N   UNL     1       5.559   3.234  16.132  0.00  0.00    +0.000 NA
ATOM     14  C   UNL     1       4.618   3.877  16.837  0.00  0.00    +0.000 A 
ATOM     15  H   UNL     1       4.793   7.892  16.847  0.00  0.00    +0.000 HD
ATOM     16  H   UNL     1       6.068   7.801  15.685  0.00  0.00    +0.000 HD
ENDROOT
BRANCH   7  17
ATOM     17  C   UNL     1       2.726   6.727  18.215  0.00  0.00    +0.000 C 
ATOM     18  C   UNL     1       2.241   7.764  18.595  0.00  0.00    +0.000 C 
BRANCH  18  19
ATOM     19  C   UNL     1       1.611   8.974  19.058  0.00  0.00    +0.000 A 
ATOM     20  C   UNL     1       1.020   9.036  20.324  0.00  0.00    +0.000 A 
ATOM     21  C   UNL     1       0.347  10.197  20.743  0.00  0.00    +0.000 A 
ATOM     22  C   UNL     1       0.258  11.319  19.906  0.00  0.00    +0.000 A 
ATOM     23  C   UNL     1       0.881  11.258  18.651  0.00  0.00    +0.000 A 
ATOM     24  C   UNL     1       1.550  10.098  18.232  0.00  0.00    +0.000 A 
BRANCH  22  25
ATOM     25  C   UNL     1      -0.563  12.530  20.292  0.00  0.00    +0.000 C 
ATOM     26  C   UNL     1      -2.048  12.439  19.967  0.00  0.00    +0.000 C 
ENDBRANCH  22  25
ENDBRANCH  18  19
ENDBRANCH   7  17
TORSDOF 3
ENDMDL
MODEL 4
REMARK VINA RESULT:      -8.0      0.762      1.238
REMARK  Name = 
REMARK  4 active torsions:
REMARK  status: ('A' for Active; 'I' for Inactive)
REMARK    1  A    between atoms: C_7  and  C_8
REMARK    2  A    between atoms: C_9  and  C_10
REMARK    3  A    between atoms: C_13  and  C_14
REMARK    4  A    between atoms: C_14  and  C_15
REMARK                            x       y       z     vdW  Elec       q    Type
REMARK                         _______ _______ _______ _____ _____    ______ ____
ROOT
ATOM      1  C   UNL     1       1.341   3.424  21.159  0.00  0.00    +0.000 C 
ATOM      2  C   UNL     1       1.933   3.243  19.977  0.00  0.00    +0.000 C 
ATOM      3  C   UNL     1       2.141   1.887  19.313  0.00  0.00    +0.000 C 
ATOM      4  C   UNL     1       3.332   2.182  18.390  0.00  0.00    +0.000 C 
ATOM      5  N   UNL     1       3.353   3.636  18.334  0.00  0.00    +0.000 N 
ATOM      6  C   UNL     1       2.558   4.280  19.247  0.00  0.00    +0.000 A 
ATOM      7  C   UNL     1       2.705   5.637  19.041  0.00  0.00    +0.000 A 
ATOM      8  C   UNL     1       3.626   5.782  17.932  0.00  0.00    +0.000 A 
ATOM      9  C   UNL     1       4.185   6.832  17.182  0.00  0.00    +0.000 A 
ATOM     10  N   UNL     1       3.898   8.175  17.374  0.00  0.00    +0.000 N 
ATOM     11  N   UNL     1       5.064   6.541  16.198  0.00  0.00    +0.000 NA
ATOM     12  C   UNL     1       5.355   5.250  15.951  0.00  0.00    +0.000 A 
ATOM     13  N   UNL     1       4.876   4.163  16.571  0.00  0.00    +0.000 NA
ATOM     14  C   UNL     1       4.018   4.501  17.545  0.00  0.00    +0.000 A 
ATOM     15  H   UNL     1       3.598   8.425  18.305  0.00  0.00    +0.000 HD
ATOM     16  H   UNL     1       4.601   8.758  16.939  0.00  0.00    +0.000 HD
ENDROOT
BRANCH   7  17
ATOM     17  C   UNL     1       2.056   6.696  19.765  0.00  0.00    +0.000 C 
ATOM     18  C   UNL     1       1.463   7.571  20.346  0.00  0.00    +0.000 C 
BRANCH  18  19
ATOM     19  C   UNL     1       0.741   8.639  20.988  0.00  0.00    +0.000 A 
ATOM     20  C   UNL     1       0.154   9.662  20.236  0.00  0.00    +0.000 A 
ATOM     21  C   UNL     1      -0.490  10.738  20.872  0.00  0.00    +0.000 A 
ATOM     22  C   UNL     1      -0.564  10.807  22.270  0.00  0.00    +0.000 A 
ATOM     23  C   UNL     1      -0.001   9.760  23.014  0.00  0.00    +0.000 A 
ATOM     24  C   UNL     1       0.645   8.689  22.380  0.00  0.00    +0.000 A 
BRANCH  22  25
ATOM     25  C   UNL     1      -1.147  12.014  22.972  0.00  0.00    +0.000 C 
ATOM     26  C   UNL     1      -2.625  12.270  22.707  0.00  0.00    +0.000 C 
ENDBRANCH  22  25
ENDBRANCH  18  19
ENDBRANCH   7  17
TORSDOF 3
ENDMDL
MODEL 5
REMARK VINA RESULT:      -7.9      3.522      8.268
REMARK  Name = 
REMARK  4 active torsions:
REMARK  status: ('A' for Active; 'I' for Inactive)
REMARK    1  A    between atoms: C_7  and  C_8
REMARK    2  A    between atoms: C_9  and  C_10
REMARK    3  A    between atoms: C_13  and  C_14
REMARK    4  A    between atoms: C_14  and  C_15
REMARK                            x       y       z     vdW  Elec       q    Type
REMARK                         _______ _______ _______ _____ _____    ______ ____
ROOT
ATOM      1  C   UNL     1      -0.461   8.197  21.878  0.00  0.00    +0.000 C 
ATOM      2  C   UNL     1      -0.326   9.521  21.976  0.00  0.00    +0.000 C 
ATOM      3  C   UNL     1      -0.880  10.364  23.117  0.00  0.00    +0.000 C 
ATOM      4  C   UNL     1      -0.993  11.742  22.448  0.00  0.00    +0.000 C 
ATOM      5  N   UNL     1      -0.156  11.604  21.266  0.00  0.00    +0.000 N 
ATOM      6  C   UNL     1       0.241  10.327  20.961  0.00  0.00    +0.000 A 
ATOM      7  C   UNL     1       1.022  10.395  19.825  0.00  0.00    +0.000 A 
ATOM      8  C   UNL     1       1.093  11.797  19.465  0.00  0.00    +0.000 A 
ATOM      9  C   UNL     1       1.720  12.581  18.481  0.00  0.00    +0.000 A 
ATOM     10  N   UNL     1       2.563  12.084  17.499  0.00  0.00    +0.000 N 
ATOM     11  N   UNL     1       1.507  13.915  18.469  0.00  0.00    +0.000 NA
ATOM     12  C   UNL     1       0.719  14.453  19.419  0.00  0.00    +0.000 A 
ATOM     13  N   UNL     1       0.088  13.824  20.420  0.00  0.00    +0.000 NA
ATOM     14  C   UNL     1       0.320  12.504  20.385  0.00  0.00    +0.000 A 
ATOM     15  H   UNL     1       2.411  11.119  17.246  0.00  0.00    +0.000 HD
ATOM     16  H   UNL     1       2.670  12.752  16.745  0.00  0.00    +0.000 HD
ENDROOT
BRANCH   7  17
ATOM     17  C   UNL     1       1.657   9.298  19.148  0.00  0.00    +0.000 C 
ATOM     18  C   UNL     1       2.178   8.345  18.624  0.00  0.00    +0.000 C 
BRANCH  18  19
ATOM     19  C   UNL     1       2.836   7.201  18.045  0.00  0.00    +0.000 A 
ATOM     20  C   UNL     1       2.334   5.911  18.238  0.00  0.00    +0.000 A 
ATOM     21  C   UNL     1       3.018   4.793  17.728  0.00  0.00    +0.000 A 
ATOM     22  C   UNL     1       4.213   4.946  17.012  0.00  0.00    +0.000 A 
ATOM     23  C   UNL     1       4.692   6.247  16.797  0.00  0.00    +0.000 A 
ATOM     24  C   UNL     1       4.011   7.362  17.308  0.00  0.00    +0.000 A 
BRANCH  22  25
ATOM     25  C   UNL     1       5.024   3.751  16.561  0.00  0.00    +0.000 C 
ATOM     26  C   UNL     1       5.881   3.978  15.322  0.00  0.00    +0.000 C 
ENDBRANCH  22  25
ENDBRANCH  18  19
ENDBRANCH   7  17
TORSDOF 3
ENDMDL
MODEL 6
REMARK VINA RESULT:      -7.8      1.189      3.447
REMARK  Name = 
REMARK  4 active torsions:
REMARK  status: ('A' for Active; 'I' for Inactive)
REMARK    1  A    between atoms: C_7  and  C_8
REMARK    2  A    between atoms: C_9  and  C_10
REMARK    3  A    between atoms: C_13  and  C_14
REMARK    4  A    between atoms: C_14  and  C_15
REMARK                            x       y       z     vdW  Elec       q    Type
REMARK                         _______ _______ _______ _____ _____    ______ ____
ROOT
ATOM      1  C   UNL     1       4.966   7.616  17.068  0.00  0.00    +0.000 C 
ATOM      2  C   UNL     1       5.007   6.289  17.200  0.00  0.00    +0.000 C 
ATOM      3  C   UNL     1       6.052   5.387  16.555  0.00  0.00    +0.000 C 
ATOM      4  C   UNL     1       5.305   4.046  16.505  0.00  0.00    +0.000 C 
ATOM      5  N   UNL     1       4.207   4.246  17.440  0.00  0.00    +0.000 N 
ATOM      6  C   UNL     1       4.004   5.537  17.855  0.00  0.00    +0.000 A 
ATOM      7  C   UNL     1       2.937   5.527  18.730  0.00  0.00    +0.000 A 
ATOM      8  C   UNL     1       2.512   4.146  18.838  0.00  0.00    +0.000 A 
ATOM      9  C   UNL     1       1.546   3.414  19.551  0.00  0.00    +0.000 A 
ATOM     10  N   UNL     1       0.666   3.961  20.472  0.00  0.00    +0.000 N 
ATOM     11  N   UNL     1       1.447   2.083  19.345  0.00  0.00    +0.000 NA
ATOM     12  C   UNL     1       2.297   1.496  18.482  0.00  0.00    +0.000 A 
ATOM     13  N   UNL     1       3.272   2.072  17.764  0.00  0.00    +0.000 NA
ATOM     14  C   UNL     1       3.325   3.392  17.993  0.00  0.00    +0.000 A 
ATOM     15  H   UNL     1       0.451   4.939  20.338  0.00  0.00    +0.000 HD
ATOM     16  H   UNL     1      -0.109   3.334  20.645  0.00  0.00    +0.000 HD
ENDROOT
BRANCH   7  17
ATOM     17  C   UNL     1       2.374   6.658  19.416  0.00  0.00    +0.000 C 
ATOM     18  C   UNL     1       1.865   7.570  20.019  0.00  0.00    +0.000 C 
BRANCH  18  19
ATOM     19  C   UNL     1       1.206   8.645  20.715  0.00  0.00    +0.000 A 
ATOM     20  C   UNL     1       1.067   8.621  22.107  0.00  0.00    +0.000 A 
ATOM     21  C   UNL     1       0.362   9.639  22.773  0.00  0.00    +0.000 A 
ATOM     22  C   UNL     1      -0.212  10.702  22.062  0.00  0.00    +0.000 A 
ATOM     23  C   UNL     1      -0.039  10.734  20.670  0.00  0.00    +0.000 A 
ATOM     24  C   UNL     1       0.661   9.717  20.004  0.00  0.00    +0.000 A 
BRANCH  22  25
ATOM     25  C   UNL     1      -1.073  11.739  22.748  0.00  0.00    +0.000 C 
ATOM     26  C   UNL     1      -0.883  13.168  22.257  0.00  0.00    +0.000 C 
ENDBRANCH  22  25
ENDBRANCH  18  19
ENDBRANCH   7  17
TORSDOF 3
ENDMDL
MODEL 7
REMARK VINA RESULT:      -7.8      1.126      3.549
REMARK  Name = 
REMARK  4 active torsions:
REMARK  status: ('A' for Active; 'I' for Inactive)
REMARK    1  A    between atoms: C_7  and  C_8
REMARK    2  A    between atoms: C_9  and  C_10
REMARK    3  A    between atoms: C_13  and  C_14
REMARK    4  A    between atoms: C_14  and  C_15
REMARK                            x       y       z     vdW  Elec       q    Type
REMARK                         _______ _______ _______ _____ _____    ______ ____
ROOT
ATOM      1  C   UNL     1       4.996   7.674  17.073  0.00  0.00    +0.000 C 
ATOM      2  C   UNL     1       5.099   6.353  17.231  0.00  0.00    +0.000 C 
ATOM      3  C   UNL     1       6.193   5.491  16.612  0.00  0.00    +0.000 C 
ATOM      4  C   UNL     1       5.512   4.115  16.582  0.00  0.00    +0.000 C 
ATOM      5  N   UNL     1       4.398   4.278  17.503  0.00  0.00    +0.000 N 
ATOM      6  C   UNL     1       4.128   5.565  17.892  0.00  0.00    +0.000 A 
ATOM      7  C   UNL     1       3.055   5.521  18.758  0.00  0.00    +0.000 A 
ATOM      8  C   UNL     1       2.696   4.123  18.889  0.00  0.00    +0.000 A 
ATOM      9  C   UNL     1       1.760   3.359  19.608  0.00  0.00    +0.000 A 
ATOM     10  N   UNL     1       0.846   3.880  20.511  0.00  0.00    +0.000 N 
ATOM     11  N   UNL     1       1.728   2.021  19.427  0.00  0.00    +0.000 NA
ATOM     12  C   UNL     1       2.613   1.459  18.582  0.00  0.00    +0.000 A 
ATOM     13  N   UNL     1       3.565   2.068  17.862  0.00  0.00    +0.000 NA
ATOM     14  C   UNL     1       3.552   3.393  18.065  0.00  0.00    +0.000 A 
ATOM     15  H   UNL     1       0.586   4.843  20.356  0.00  0.00    +0.000 HD
ATOM     16  H   UNL     1       0.101   3.219  20.690  0.00  0.00    +0.000 HD
ENDROOT
BRANCH   7  17
ATOM     17  C   UNL     1       2.431   6.636  19.417  0.00  0.00    +0.000 C 
ATOM     18  C   UNL     1       1.857   7.553  19.950  0.00  0.00    +0.000 C 
BRANCH  18  19
ATOM     19  C   UNL     1       1.152   8.666  20.533  0.00  0.00    +0.000 A 
ATOM     20  C   UNL     1       0.805   9.780  19.762  0.00  0.00    +0.000 A 
ATOM     21  C   UNL     1       0.179  10.891  20.353  0.00  0.00    +0.000 A 
ATOM     22  C   UNL     1      -0.118  10.907  21.723  0.00  0.00    +0.000 A 
ATOM     23  C   UNL     1       0.205   9.772  22.481  0.00  0.00    +0.000 A 
ATOM     24  C   UNL     1       0.833   8.664  21.893  0.00  0.00    +0.000 A 
BRANCH  22  25
ATOM     25  C   UNL     1      -0.681  12.139  22.396  0.00  0.00    +0.000 C 
ATOM     26  C   UNL     1      -2.034  11.949  23.070  0.00  0.00    +0.000 C 
ENDBRANCH  22  25
ENDBRANCH  18  19
ENDBRANCH   7  17
TORSDOF 3
ENDMDL
MODEL 8
REMARK VINA RESULT:      -7.7      1.326      3.537
REMARK  Name = 
REMARK  4 active torsions:
REMARK  status: ('A' for Active; 'I' for Inactive)
REMARK    1  A    between atoms: C_7  and  C_8
REMARK    2  A    between atoms: C_9  and  C_10
REMARK    3  A    between atoms: C_13  and  C_14
REMARK    4  A    between atoms: C_14  and  C_15
REMARK                            x       y       z     vdW  Elec       q    Type
REMARK                         _______ _______ _______ _____ _____    ______ ____
ROOT
ATOM      1  C   UNL     1       5.062   7.106  15.706  0.00  0.00    +0.000 C 
ATOM      2  C   UNL     1       5.168   5.859  16.169  0.00  0.00    +0.000 C 
ATOM      3  C   UNL     1       6.218   4.853  15.715  0.00  0.00    +0.000 C 
ATOM      4  C   UNL     1       5.530   3.523  16.052  0.00  0.00    +0.000 C 
ATOM      5  N   UNL     1       4.472   3.922  16.968  0.00  0.00    +0.000 N 
ATOM      6  C   UNL     1       4.232   5.270  17.052  0.00  0.00    +0.000 A 
ATOM      7  C   UNL     1       3.211   5.454  17.962  0.00  0.00    +0.000 A 
ATOM      8  C   UNL     1       2.853   4.134  18.443  0.00  0.00    +0.000 A 
ATOM      9  C   UNL     1       1.956   3.581  19.373  0.00  0.00    +0.000 A 
ATOM     10  N   UNL     1       1.100   4.319  20.175  0.00  0.00    +0.000 N 
ATOM     11  N   UNL     1       1.906   2.239  19.519  0.00  0.00    +0.000 NA
ATOM     12  C   UNL     1       2.738   1.476  18.786  0.00  0.00    +0.000 A 
ATOM     13  N   UNL     1       3.650   1.878  17.889  0.00  0.00    +0.000 NA
ATOM     14  C   UNL     1       3.656   3.213  17.771  0.00  0.00    +0.000 A 
ATOM     15  H   UNL     1       0.836   5.223  19.810  0.00  0.00    +0.000 HD
ATOM     16  H   UNL     1       0.363   3.735  20.548  0.00  0.00    +0.000 HD
ENDROOT
BRANCH   7  17
ATOM     17  C   UNL     1       2.633   6.705  18.370  0.00  0.00    +0.000 C 
ATOM     18  C   UNL     1       2.143   7.734  18.765  0.00  0.00    +0.000 C 
BRANCH  18  19
ATOM     19  C   UNL     1       1.512   8.932  19.255  0.00  0.00    +0.000 A 
ATOM     20  C   UNL     1       1.068   9.020  20.578  0.00  0.00    +0.000 A 
ATOM     21  C   UNL     1       0.391  10.167  21.030  0.00  0.00    +0.000 A 
ATOM     22  C   UNL     1       0.151  11.247  20.170  0.00  0.00    +0.000 A 
ATOM     23  C   UNL     1       0.629  11.162  18.854  0.00  0.00    +0.000 A 
ATOM     24  C   UNL     1       1.301  10.018  18.401  0.00  0.00    +0.000 A 
BRANCH  22  25
ATOM     25  C   UNL     1      -0.679  12.435  20.605  0.00  0.00    +0.000 C 
ATOM     26  C   UNL     1      -0.930  12.539  22.103  0.00  0.00    +0.000 C 
ENDBRANCH  22  25
ENDBRANCH  18  19
ENDBRANCH   7  17
TORSDOF 3
ENDMDL
MODEL 9
REMARK VINA RESULT:      -7.7      1.459      3.715
REMARK  Name = 
REMARK  4 active torsions:
REMARK  status: ('A' for Active; 'I' for Inactive)
REMARK    1  A    between atoms: C_7  and  C_8
REMARK    2  A    between atoms: C_9  and  C_10
REMARK    3  A    between atoms: C_13  and  C_14
REMARK    4  A    between atoms: C_14  and  C_15
REMARK                            x       y       z     vdW  Elec       q    Type
REMARK                         _______ _______ _______ _____ _____    ______ ____
ROOT
ATOM      1  C   UNL     1       5.092   7.064  15.621  0.00  0.00    +0.000 C 
ATOM      2  C   UNL     1       5.194   5.826  16.110  0.00  0.00    +0.000 C 
ATOM      3  C   UNL     1       6.230   4.803  15.663  0.00  0.00    +0.000 C 
ATOM      4  C   UNL     1       5.535   3.486  16.039  0.00  0.00    +0.000 C 
ATOM      5  N   UNL     1       4.494   3.914  16.961  0.00  0.00    +0.000 N 
ATOM      6  C   UNL     1       4.267   5.265  17.019  0.00  0.00    +0.000 A 
ATOM      7  C   UNL     1       3.261   5.477  17.940  0.00  0.00    +0.000 A 
ATOM      8  C   UNL     1       2.899   4.172  18.454  0.00  0.00    +0.000 A 
ATOM      9  C   UNL     1       2.012   3.647  19.410  0.00  0.00    +0.000 A 
ATOM     10  N   UNL     1       1.173   4.410  20.208  0.00  0.00    +0.000 N 
ATOM     11  N   UNL     1       1.953   2.309  19.587  0.00  0.00    +0.000 NA
ATOM     12  C   UNL     1       2.768   1.523  18.858  0.00  0.00    +0.000 A 
ATOM     13  N   UNL     1       3.669   1.897  17.940  0.00  0.00    +0.000 NA
ATOM     14  C   UNL     1       3.684   3.230  17.791  0.00  0.00    +0.000 A 
ATOM     15  H   UNL     1       0.912   5.308  19.826  0.00  0.00    +0.000 HD
ATOM     16  H   UNL     1       0.437   3.840  20.604  0.00  0.00    +0.000 HD
ENDROOT
BRANCH   7  17
ATOM     17  C   UNL     1       2.699   6.742  18.328  0.00  0.00    +0.000 C 
ATOM     18  C   UNL     1       2.197   7.776  18.693  0.00  0.00    +0.000 C 
BRANCH  18  19
ATOM     19  C   UNL     1       1.544   8.988  19.118  0.00  0.00    +0.000 A 
ATOM     20  C   UNL     1       1.519  10.117  18.293  0.00  0.00    +0.000 A 
ATOM     21  C   UNL     1       0.940  11.317  18.741  0.00  0.00    +0.000 A 
ATOM     22  C   UNL     1       0.371  11.409  20.019  0.00  0.00    +0.000 A 
ATOM     23  C   UNL     1       0.371  10.262  20.826  0.00  0.00    +0.000 A 
ATOM     24  C   UNL     1       0.952   9.065  20.381  0.00  0.00    +0.000 A 
BRANCH  22  25
ATOM     25  C   UNL     1      -0.148  12.722  20.561  0.00  0.00    +0.000 C 
ATOM     26  C   UNL     1      -1.640  12.755  20.867  0.00  0.00    +0.000 C 
ENDBRANCH  22  25
ENDBRANCH  18  19
ENDBRANCH   7  17
TORSDOF 3
ENDMDL
