MODEL 1
REMARK VINA RESULT:      -8.0      0.000      0.000
REMARK  Name = 
REMARK  12 active torsions:
REMARK  status: ('A' for Active; 'I' for Inactive)
REMARK    1  A    between atoms: C_1  and  O_2
REMARK    2  A    between atoms: O_2  and  C_3
REMARK    3  A    between atoms: C_11  and  O_12
REMARK    4  A    between atoms: O_12  and  C_13
REMARK    5  A    between atoms: C_13  and  C_14
REMARK    6  A    between atoms: C_14  and  O_15
REMARK    7  A    between atoms: O_15  and  C_16
REMARK    8  A    between atoms: C_16  and  C_18
REMARK    9  A    between atoms: C_18  and  C_19
REMARK   10  A    between atoms: C_18  and  N_20
REMARK   11  A    between atoms: C_25  and  O_26
REMARK   12  A    between atoms: O_26  and  C_27
REMARK                            x       y       z     vdW  Elec       q    Type
REMARK                         _______ _______ _______ _____ _____    ______ ____
ROOT
ATOM      1  C   UNL     1      -4.166  11.459  16.875  0.00  0.00    +0.000 A 
ATOM      2  C   UNL     1      -3.708  11.837  18.139  0.00  0.00    +0.000 A 
ATOM      3  C   UNL     1      -2.509  11.367  18.723  0.00  0.00    +0.000 A 
ATOM      4  C   UNL     1      -2.158  11.729  20.051  0.00  0.00    +0.000 A 
ATOM      5  C   UNL     1      -0.999  11.205  20.647  0.00  0.00    +0.000 A 
ATOM      6  C   UNL     1      -0.148  10.325  19.912  0.00  0.00    +0.000 A 
ATOM      7  C   UNL     1       0.984   9.740  20.526  0.00  0.00    +0.000 A 
ATOM      8  C   UNL     1       1.872   8.914  19.850  0.00  0.00    +0.000 A 
ATOM      9  C   UNL     1       1.702   8.679  18.500  0.00  0.00    +0.000 A 
ATOM     10  C   UNL     1       0.560   9.193  17.864  0.00  0.00    +0.000 A 
ATOM     11  C   UNL     1      -0.425  10.005  18.549  0.00  0.00    +0.000 A 
ATOM     12  C   UNL     1      -1.669  10.503  17.964  0.00  0.00    +0.000 A 
ATOM     13  C   UNL     1      -2.141  10.163  16.653  0.00  0.00    +0.000 A 
ATOM     14  C   UNL     1      -3.371  10.611  16.109  0.00  0.00    +0.000 A 
ATOM     15  C   UNL     1      -0.618  11.587  22.079  0.00  0.00    +0.000 C 
ATOM     16  N   UNL     1      -1.518  12.418  22.867  0.00  0.00    +0.000 NA
ATOM     17  C   UNL     1      -0.976  13.700  23.279  0.00  0.00    +0.000 C 
ATOM     18  C   UNL     1      -2.185  14.502  23.725  0.00  0.00    +0.000 C 
ATOM     19  C   UNL     1      -3.394  13.832  23.082  0.00  0.00    +0.000 C 
ATOM     20  C   UNL     1      -2.865  12.589  22.360  0.00  0.00    +0.000 C 
ATOM     21  C   UNL     1      -2.982  12.730  20.841  0.00  0.00    +0.000 C 
ENDROOT
BRANCH   1  23
ATOM     22  C   UNL     1      -6.399  12.050  17.590  0.00  0.00    +0.000 C 
ATOM     23  O   UNL     1      -5.387  12.012  16.596  0.00  0.00    +0.000 OA
ENDBRANCH   1  23
BRANCH  14  24
ATOM     24  O   UNL     1      -3.839  10.276  14.866  0.00  0.00    +0.000 OA
ATOM     25  C   UNL     1      -2.917   9.899  13.855  0.00  0.00    +0.000 C 
ENDBRANCH  14  24
BRANCH   9  26
ATOM     26  O   UNL     1       2.673   7.881  17.958  0.00  0.00    +0.000 OA
BRANCH  26  27
ATOM     27  C   UNL     1       2.576   6.475  18.201  0.00  0.00    +0.000 C 
BRANCH  27  28
ATOM     28  C   UNL     1       3.837   5.778  17.657  0.00  0.00    +0.000 C 
BRANCH  28  29
ATOM     29  O   UNL     1       5.042   6.137  18.372  0.00  0.00    +0.000 OA
BRANCH  29  30
ATOM     30  C   UNL     1       5.879   5.102  18.677  0.00  0.00    +0.000 C 
ATOM     31  O   UNL     1       5.526   4.095  19.286  0.00  0.00    +0.000 OA
BRANCH  30  32
ATOM     32  C   UNL     1       7.329   5.379  18.254  0.00  0.00    +0.000 C 
ATOM     33  C   UNL     1       7.580   6.852  17.967  0.00  0.00    +0.000 C 
BRANCH  32  34
ATOM     34  N   UNL     1       7.662   4.601  17.032  0.00  0.00    +0.000 NA
ATOM     35  H   UNL     1       6.973   3.854  16.929  0.00  0.00    +0.000 HD
ATOM     36  H   UNL     1       8.541   4.107  17.201  0.00  0.00    +0.000 HD
ENDBRANCH  32  34
ENDBRANCH  30  32
ENDBRANCH  29  30
ENDBRANCH  28  29
ENDBRANCH  27  28
ENDBRANCH  26  27
ENDBRANCH   9  26
TORSDOF 9
ENDMDL
MODEL 2
REMARK VINA RESULT:      -8.0      0.913      1.171
REMARK  Name = 
REMARK  12 active torsions:
REMARK  status: ('A' for Active; 'I' for Inactive)
REMARK    1  A    between atoms: C_1  and  O_2
REMARK    2  A    between atoms: O_2  and  C_3
REMARK    3  A    between atoms: C_11  and  O_12
REMARK    4  A    between atoms: O_12  and  C_13
REMARK    5  A    between atoms: C_13  and  C_14
REMARK    6  A    between atoms: C_14  and  O_15
REMARK    7  A    between atoms: O_15  and  C_16
REMARK    8  A    between atoms: C_16  and  C_18
REMARK    9  A    between atoms: C_18  and  C_19
REMARK   10  A    between atoms: C_18  and  N_20
REMARK   11  A    between atoms: C_25  and  O_26
REMARK   12  A    between atoms: O_26  and  C_27
REMARK                            x       y       z     vdW  Elec       q    Type
REMARK                         _______ _______ _______ _____ _____    ______ ____
ROOT
ATOM      1  C   UNL     1      -4.307  11.520  16.955  0.00  0.00    +0.000 A 
ATOM      2  C   UNL     1      -3.833  11.884  18.217  0.00  0.00    +0.000 A 
ATOM      3  C   UNL     1      -2.611  11.433  18.767  0.00  0.00    +0.000 A 
ATOM      4  C   UNL     1      -2.242  11.777  20.095  0.00  0.00    +0.000 A 
ATOM      5  C   UNL     1      -1.058  11.270  20.657  0.00  0.00    +0.000 A 
ATOM      6  C   UNL     1      -0.201  10.426  19.887  0.00  0.00    +0.000 A 
ATOM      7  C   UNL     1       0.957   9.858  20.466  0.00  0.00    +0.000 A 
ATOM      8  C   UNL     1       1.852   9.068  19.755  0.00  0.00    +0.000 A 
ATOM      9  C   UNL     1       1.660   8.857  18.405  0.00  0.00    +0.000 A 
ATOM     10  C   UNL     1       0.493   9.354  17.802  0.00  0.00    +0.000 A 
ATOM     11  C   UNL     1      -0.498  10.128  18.524  0.00  0.00    +0.000 A 
ATOM     12  C   UNL     1      -1.765  10.605  17.974  0.00  0.00    +0.000 A 
ATOM     13  C   UNL     1      -2.256  10.280  16.665  0.00  0.00    +0.000 A 
ATOM     14  C   UNL     1      -3.507  10.708  16.156  0.00  0.00    +0.000 A 
ATOM     15  C   UNL     1      -0.658  11.633  22.088  0.00  0.00    +0.000 C 
ATOM     16  N   UNL     1      -1.562  12.425  22.911  0.00  0.00    +0.000 NA
ATOM     17  C   UNL     1      -1.044  13.711  23.339  0.00  0.00    +0.000 C 
ATOM     18  C   UNL     1      -2.263  14.474  23.825  0.00  0.00    +0.000 C 
ATOM     19  C   UNL     1      -3.467  13.787  23.192  0.00  0.00    +0.000 C 
ATOM     20  C   UNL     1      -2.923  12.572  22.435  0.00  0.00    +0.000 C 
ATOM     21  C   UNL     1      -3.074  12.741  20.922  0.00  0.00    +0.000 C 
ENDROOT
BRANCH   1  23
ATOM     22  C   UNL     1      -6.428  12.329  17.787  0.00  0.00    +0.000 C 
ATOM     23  O   UNL     1      -5.547  12.048  16.711  0.00  0.00    +0.000 OA
ENDBRANCH   1  23
BRANCH  14  24
ATOM     24  O   UNL     1      -3.991  10.386  14.916  0.00  0.00    +0.000 OA
ATOM     25  C   UNL     1      -3.086   9.987  13.898  0.00  0.00    +0.000 C 
ENDBRANCH  14  24
BRANCH   9  26
ATOM     26  O   UNL     1       2.639   8.094  17.827  0.00  0.00    +0.000 OA
BRANCH  26  27
ATOM     27  C   UNL     1       2.653   6.699  18.140  0.00  0.00    +0.000 C 
BRANCH  27  28
ATOM     28  C   UNL     1       4.109   6.203  18.182  0.00  0.00    +0.000 C 
BRANCH  28  29
ATOM     29  O   UNL     1       4.690   6.019  16.871  0.00  0.00    +0.000 OA
BRANCH  29  30
ATOM     30  C   UNL     1       6.042   6.197  16.791  0.00  0.00    +0.000 C 
ATOM     31  O   UNL     1       6.590   7.295  16.843  0.00  0.00    +0.000 OA
BRANCH  30  32
ATOM     32  C   UNL     1       6.790   4.880  16.539  0.00  0.00    +0.000 C 
ATOM     33  C   UNL     1       5.948   3.869  15.776  0.00  0.00    +0.000 C 
BRANCH  32  34
ATOM     34  N   UNL     1       7.197   4.268  17.831  0.00  0.00    +0.000 NA
ATOM     35  H   UNL     1       6.857   4.863  18.589  0.00  0.00    +0.000 HD
ATOM     36  H   UNL     1       8.216   4.332  17.904  0.00  0.00    +0.000 HD
ENDBRANCH  32  34
ENDBRANCH  30  32
ENDBRANCH  29  30
ENDBRANCH  28  29
ENDBRANCH  27  28
ENDBRANCH  26  27
ENDBRANCH   9  26
TORSDOF 9
ENDMDL
MODEL 3
REMARK VINA RESULT:      -7.6      1.634      2.099
REMARK  Name = 
REMARK  12 active torsions:
REMARK  status: ('A' for Active; 'I' for Inactive)
REMARK    1  A    between atoms: C_1  and  O_2
REMARK    2  A    between atoms: O_2  and  C_3
REMARK    3  A    between atoms: C_11  and  O_12
REMARK    4  A    between atoms: O_12  and  C_13
REMARK    5  A    between atoms: C_13  and  C_14
REMARK    6  A    between atoms: C_14  and  O_15
REMARK    7  A    between atoms: O_15  and  C_16
REMARK    8  A    between atoms: C_16  and  C_18
REMARK    9  A    between atoms: C_18  and  C_19
REMARK   10  A    between atoms: C_18  and  N_20
REMARK   11  A    between atoms: C_25  and  O_26
REMARK   12  A    between atoms: O_26  and  C_27
REMARK                            x       y       z     vdW  Elec       q    Type
REMARK                         _______ _______ _______ _____ _____    ______ ____
ROOT
ATOM      1  C   UNL     1      -4.481  11.648  17.048  0.00  0.00    +0.000 A 
ATOM      2  C   UNL     1      -3.996  11.994  18.311  0.00  0.00    +0.000 A 
ATOM      3  C   UNL     1      -2.760  11.548  18.836  0.00  0.00    +0.000 A 
ATOM      4  C   UNL     1      -2.379  11.871  20.166  0.00  0.00    +0.000 A 
ATOM      5  C   UNL     1      -1.181  11.369  20.702  0.00  0.00    +0.000 A 
ATOM      6  C   UNL     1      -0.324  10.551  19.905  0.00  0.00    +0.000 A 
ATOM      7  C   UNL     1       0.849   9.987  20.458  0.00  0.00    +0.000 A 
ATOM      8  C   UNL     1       1.744   9.222  19.720  0.00  0.00    +0.000 A 
ATOM      9  C   UNL     1       1.537   9.034  18.369  0.00  0.00    +0.000 A 
ATOM     10  C   UNL     1       0.356   9.528  17.791  0.00  0.00    +0.000 A 
ATOM     11  C   UNL     1      -0.635  10.275  18.540  0.00  0.00    +0.000 A 
ATOM     12  C   UNL     1      -1.916  10.747  18.017  0.00  0.00    +0.000 A 
ATOM     13  C   UNL     1      -2.419  10.441  16.708  0.00  0.00    +0.000 A 
ATOM     14  C   UNL     1      -3.682  10.862  16.224  0.00  0.00    +0.000 A 
ATOM     15  C   UNL     1      -0.767  11.709  22.135  0.00  0.00    +0.000 C 
ATOM     16  N   UNL     1      -1.670  12.474  22.985  0.00  0.00    +0.000 NA
ATOM     17  C   UNL     1      -1.162  13.758  23.431  0.00  0.00    +0.000 C 
ATOM     18  C   UNL     1      -2.384  14.495  23.947  0.00  0.00    +0.000 C 
ATOM     19  C   UNL     1      -3.588  13.805  23.317  0.00  0.00    +0.000 C 
ATOM     20  C   UNL     1      -3.038  12.612  22.529  0.00  0.00    +0.000 C 
ATOM     21  C   UNL     1      -3.212  12.808  21.022  0.00  0.00    +0.000 C 
ENDROOT
BRANCH   1  23
ATOM     22  C   UNL     1      -6.746  12.016  17.811  0.00  0.00    +0.000 C 
ATOM     23  O   UNL     1      -5.731  12.165  16.831  0.00  0.00    +0.000 OA
ENDBRANCH   1  23
BRANCH  14  24
ATOM     24  O   UNL     1      -4.179  10.558  14.984  0.00  0.00    +0.000 OA
ATOM     25  C   UNL     1      -3.308  10.027  13.997  0.00  0.00    +0.000 C 
ENDBRANCH  14  24
BRANCH   9  26
ATOM     26  O   UNL     1       2.517   8.295  17.764  0.00  0.00    +0.000 OA
BRANCH  26  27
ATOM     27  C   UNL     1       3.169   7.298  18.555  0.00  0.00    +0.000 C 
BRANCH  27  28
ATOM     28  C   UNL     1       3.035   5.931  17.860  0.00  0.00    +0.000 C 
BRANCH  28  29
ATOM     29  O   UNL     1       2.526   4.894  18.730  0.00  0.00    +0.000 OA
BRANCH  29  30
ATOM     30  C   UNL     1       2.013   3.794  18.104  0.00  0.00    +0.000 C 
ATOM     31  O   UNL     1       1.096   3.838  17.288  0.00  0.00    +0.000 OA
BRANCH  30  32
ATOM     32  C   UNL     1       2.650   2.488  18.602  0.00  0.00    +0.000 C 
ATOM     33  C   UNL     1       2.879   2.489  20.106  0.00  0.00    +0.000 C 
BRANCH  32  34
ATOM     34  N   UNL     1       3.958   2.269  17.930  0.00  0.00    +0.000 NA
ATOM     35  H   UNL     1       4.349   1.388  18.268  0.00  0.00    +0.000 HD
ATOM     36  H   UNL     1       4.611   2.978  18.272  0.00  0.00    +0.000 HD
ENDBRANCH  32  34
ENDBRANCH  30  32
ENDBRANCH  29  30
ENDBRANCH  28  29
ENDBRANCH  27  28
ENDBRANCH  26  27
ENDBRANCH   9  26
TORSDOF 9
ENDMDL
MODEL 4
REMARK VINA RESULT:      -7.4      2.013      2.416
REMARK  Name = 
REMARK  12 active torsions:
REMARK  status: ('A' for Active; 'I' for Inactive)
REMARK    1  A    between atoms: C_1  and  O_2
REMARK    2  A    between atoms: O_2  and  C_3
REMARK    3  A    between atoms: C_11  and  O_12
REMARK    4  A    between atoms: O_12  and  C_13
REMARK    5  A    between atoms: C_13  and  C_14
REMARK    6  A    between atoms: C_14  and  O_15
REMARK    7  A    between atoms: O_15  and  C_16
REMARK    8  A    between atoms: C_16  and  C_18
REMARK    9  A    between atoms: C_18  and  C_19
REMARK   10  A    between atoms: C_18  and  N_20
REMARK   11  A    between atoms: C_25  and  O_26
REMARK   12  A    between atoms: O_26  and  C_27
REMARK                            x       y       z     vdW  Elec       q    Type
REMARK                         _______ _______ _______ _____ _____    ______ ____
ROOT
ATOM      1  C   UNL     1      -4.154  11.588  17.374  0.00  0.00    +0.000 A 
ATOM      2  C   UNL     1      -3.777  12.164  18.589  0.00  0.00    +0.000 A 
ATOM      3  C   UNL     1      -2.671  11.737  19.361  0.00  0.00    +0.000 A 
ATOM      4  C   UNL     1      -2.408  12.315  20.631  0.00  0.00    +0.000 A 
ATOM      5  C   UNL     1      -1.347  11.841  21.421  0.00  0.00    +0.000 A 
ATOM      6  C   UNL     1      -0.507  10.790  20.940  0.00  0.00    +0.000 A 
ATOM      7  C   UNL     1       0.520  10.262  21.755  0.00  0.00    +0.000 A 
ATOM      8  C   UNL     1       1.396   9.273  21.326  0.00  0.00    +0.000 A 
ATOM      9  C   UNL     1       1.323   8.805  20.030  0.00  0.00    +0.000 A 
ATOM     10  C   UNL     1       0.282   9.261  19.204  0.00  0.00    +0.000 A 
ATOM     11  C   UNL     1      -0.691  10.243  19.636  0.00  0.00    +0.000 A 
ATOM     12  C   UNL     1      -1.839  10.699  18.853  0.00  0.00    +0.000 A 
ATOM     13  C   UNL     1      -2.223  10.153  17.583  0.00  0.00    +0.000 A 
ATOM     14  C   UNL     1      -3.365  10.567  16.852  0.00  0.00    +0.000 A 
ATOM     15  C   UNL     1      -1.061  12.456  22.792  0.00  0.00    +0.000 C 
ATOM     16  N   UNL     1      -1.957  13.471  23.329  0.00  0.00    +0.000 NA
ATOM     17  C   UNL     1      -1.355  14.771  23.558  0.00  0.00    +0.000 C 
ATOM     18  C   UNL     1      -2.532  15.713  23.734  0.00  0.00    +0.000 C 
ATOM     19  C   UNL     1      -3.729  15.011  23.106  0.00  0.00    +0.000 C 
ATOM     20  C   UNL     1      -3.239  13.626  22.671  0.00  0.00    +0.000 C 
ATOM     21  C   UNL     1      -3.215  13.493  21.147  0.00  0.00    +0.000 C 
ENDROOT
BRANCH   1  23
ATOM     22  C   UNL     1      -6.513  12.058  17.613  0.00  0.00    +0.000 C 
ATOM     23  O   UNL     1      -5.300  12.154  16.883  0.00  0.00    +0.000 OA
ENDBRANCH   1  23
BRANCH  14  24
ATOM     24  O   UNL     1      -3.750  10.038  15.648  0.00  0.00    +0.000 OA
ATOM     25  C   UNL     1      -2.914  10.212  14.514  0.00  0.00    +0.000 C 
ENDBRANCH  14  24
BRANCH   9  26
ATOM     26  O   UNL     1       2.272   7.863  19.735  0.00  0.00    +0.000 OA
BRANCH  26  27
ATOM     27  C   UNL     1       2.467   7.539  18.356  0.00  0.00    +0.000 C 
BRANCH  27  28
ATOM     28  C   UNL     1       2.938   6.078  18.240  0.00  0.00    +0.000 C 
BRANCH  28  29
ATOM     29  O   UNL     1       2.125   5.152  18.996  0.00  0.00    +0.000 OA
BRANCH  29  30
ATOM     30  C   UNL     1       1.696   4.048  18.316  0.00  0.00    +0.000 C 
ATOM     31  O   UNL     1       1.036   4.098  17.281  0.00  0.00    +0.000 OA
BRANCH  30  32
ATOM     32  C   UNL     1       2.052   2.741  19.039  0.00  0.00    +0.000 C 
ATOM     33  C   UNL     1       3.322   2.862  19.867  0.00  0.00    +0.000 C 
BRANCH  32  34
ATOM     34  N   UNL     1       2.240   1.646  18.052  0.00  0.00    +0.000 NA
ATOM     35  H   UNL     1       1.778   0.808  18.410  0.00  0.00    +0.000 HD
ATOM     36  H   UNL     1       3.232   1.398  18.040  0.00  0.00    +0.000 HD
ENDBRANCH  32  34
ENDBRANCH  30  32
ENDBRANCH  29  30
ENDBRANCH  28  29
ENDBRANCH  27  28
ENDBRANCH  26  27
ENDBRANCH   9  26
TORSDOF 9
ENDMDL
MODEL 5
REMARK VINA RESULT:      -7.3      1.661      1.948
REMARK  Name = 
REMARK  12 active torsions:
REMARK  status: ('A' for Active; 'I' for Inactive)
REMARK    1  A    between atoms: C_1  and  O_2
REMARK    2  A    between atoms: O_2  and  C_3
REMARK    3  A    between atoms: C_11  and  O_12
REMARK    4  A    between atoms: O_12  and  C_13
REMARK    5  A    between atoms: C_13  and  C_14
REMARK    6  A    between atoms: C_14  and  O_15
REMARK    7  A    between atoms: O_15  and  C_16
REMARK    8  A    between atoms: C_16  and  C_18
REMARK    9  A    between atoms: C_18  and  C_19
REMARK   10  A    between atoms: C_18  and  N_20
REMARK   11  A    between atoms: C_25  and  O_26
REMARK   12  A    between atoms: O_26  and  C_27
REMARK                            x       y       z     vdW  Elec       q    Type
REMARK                         _______ _______ _______ _____ _____    ______ ____
ROOT
ATOM      1  C   UNL     1      -4.700  11.860  17.312  0.00  0.00    +0.000 A 
ATOM      2  C   UNL     1      -4.368  12.285  18.600  0.00  0.00    +0.000 A 
ATOM      3  C   UNL     1      -3.186  11.910  19.281  0.00  0.00    +0.000 A 
ATOM      4  C   UNL     1      -2.965  12.311  20.625  0.00  0.00    +0.000 A 
ATOM      5  C   UNL     1      -1.820  11.880  21.315  0.00  0.00    +0.000 A 
ATOM      6  C   UNL     1      -0.854  11.056  20.660  0.00  0.00    +0.000 A 
ATOM      7  C   UNL     1       0.266  10.563  21.368  0.00  0.00    +0.000 A 
ATOM      8  C   UNL     1       1.261   9.796  20.774  0.00  0.00    +0.000 A 
ATOM      9  C   UNL     1       1.212   9.534  19.420  0.00  0.00    +0.000 A 
ATOM     10  C   UNL     1       0.088   9.956  18.691  0.00  0.00    +0.000 A 
ATOM     11  C   UNL     1      -1.003  10.702  19.287  0.00  0.00    +0.000 A 
ATOM     12  C   UNL     1      -2.231  11.101  18.601  0.00  0.00    +0.000 A 
ATOM     13  C   UNL     1      -2.576  10.713  17.264  0.00  0.00    +0.000 A 
ATOM     14  C   UNL     1      -3.790  11.064  16.622  0.00  0.00    +0.000 A 
ATOM     15  C   UNL     1      -1.578  12.305  22.765  0.00  0.00    +0.000 C 
ATOM     16  N   UNL     1      -2.593  13.077  23.469  0.00  0.00    +0.000 NA
ATOM     17  C   UNL     1      -2.178  14.399  23.899  0.00  0.00    +0.000 C 
ATOM     18  C   UNL     1      -3.472  15.115  24.239  0.00  0.00    +0.000 C 
ATOM     19  C   UNL     1      -4.576  14.352  23.519  0.00  0.00    +0.000 C 
ATOM     20  C   UNL     1      -3.906  13.143  22.859  0.00  0.00    +0.000 C 
ATOM     21  C   UNL     1      -3.916  13.258  21.334  0.00  0.00    +0.000 C 
ENDROOT
BRANCH   1  23
ATOM     22  C   UNL     1      -7.031  12.241  17.827  0.00  0.00    +0.000 C 
ATOM     23  O   UNL     1      -5.933  12.319  16.932  0.00  0.00    +0.000 OA
ENDBRANCH   1  23
BRANCH  14  24
ATOM     24  O   UNL     1      -4.136  10.682  15.353  0.00  0.00    +0.000 OA
ATOM     25  C   UNL     1      -3.149  10.117  14.504  0.00  0.00    +0.000 C 
ENDBRANCH  14  24
BRANCH   9  26
ATOM     26  O   UNL     1       2.276   8.803  18.966  0.00  0.00    +0.000 OA
BRANCH  26  27
ATOM     27  C   UNL     1       2.021   7.848  17.932  0.00  0.00    +0.000 C 
BRANCH  27  28
ATOM     28  C   UNL     1       3.051   6.709  18.029  0.00  0.00    +0.000 C 
BRANCH  28  29
ATOM     29  O   UNL     1       2.448   5.403  18.183  0.00  0.00    +0.000 OA
BRANCH  29  30
ATOM     30  C   UNL     1       3.089   4.551  19.036  0.00  0.00    +0.000 C 
ATOM     31  O   UNL     1       3.004   4.619  20.260  0.00  0.00    +0.000 OA
BRANCH  30  32
ATOM     32  C   UNL     1       3.998   3.558  18.297  0.00  0.00    +0.000 C 
ATOM     33  C   UNL     1       3.284   2.260  17.954  0.00  0.00    +0.000 C 
BRANCH  32  34
ATOM     34  N   UNL     1       5.184   3.233  19.133  0.00  0.00    +0.000 NA
ATOM     35  H   UNL     1       5.148   3.806  19.978  0.00  0.00    +0.000 HD
ATOM     36  H   UNL     1       6.017   3.565  18.642  0.00  0.00    +0.000 HD
ENDBRANCH  32  34
ENDBRANCH  30  32
ENDBRANCH  29  30
ENDBRANCH  28  29
ENDBRANCH  27  28
ENDBRANCH  26  27
ENDBRANCH   9  26
TORSDOF 9
ENDMDL
MODEL 6
REMARK VINA RESULT:      -7.2      1.231      1.371
REMARK  Name = 
REMARK  12 active torsions:
REMARK  status: ('A' for Active; 'I' for Inactive)
REMARK    1  A    between atoms: C_1  and  O_2
REMARK    2  A    between atoms: O_2  and  C_3
REMARK    3  A    between atoms: C_11  and  O_12
REMARK    4  A    between atoms: O_12  and  C_13
REMARK    5  A    between atoms: C_13  and  C_14
REMARK    6  A    between atoms: C_14  and  O_15
REMARK    7  A    between atoms: O_15  and  C_16
REMARK    8  A    between atoms: C_16  and  C_18
REMARK    9  A    between atoms: C_18  and  C_19
REMARK   10  A    between atoms: C_18  and  N_20
REMARK   11  A    between atoms: C_25  and  O_26
REMARK   12  A    between atoms: O_26  and  C_27
REMARK                            x       y       z     vdW  Elec       q    Type
REMARK                         _______ _______ _______ _____ _____    ______ ____
ROOT
ATOM      1  C   UNL     1      -3.811  11.363  17.209  0.00  0.00    +0.000 A 
ATOM      2  C   UNL     1      -3.467  12.005  18.401  0.00  0.00    +0.000 A 
ATOM      3  C   UNL     1      -2.426  11.582  19.260  0.00  0.00    +0.000 A 
ATOM      4  C   UNL     1      -2.198  12.235  20.500  0.00  0.00    +0.000 A 
ATOM      5  C   UNL     1      -1.205  11.768  21.377  0.00  0.00    +0.000 A 
ATOM      6  C   UNL     1      -0.397  10.647  21.014  0.00  0.00    +0.000 A 
ATOM      7  C   UNL     1       0.559  10.129  21.919  0.00  0.00    +0.000 A 
ATOM      8  C   UNL     1       1.404   9.071  21.606  0.00  0.00    +0.000 A 
ATOM      9  C   UNL     1       1.373   8.517  20.343  0.00  0.00    +0.000 A 
ATOM     10  C   UNL     1       0.401   8.963  19.433  0.00  0.00    +0.000 A 
ATOM     11  C   UNL     1      -0.542  10.019  19.742  0.00  0.00    +0.000 A 
ATOM     12  C   UNL     1      -1.624  10.472  18.869  0.00  0.00    +0.000 A 
ATOM     13  C   UNL     1      -1.970   9.857  17.620  0.00  0.00    +0.000 A 
ATOM     14  C   UNL     1      -3.050  10.272  16.801  0.00  0.00    +0.000 A 
ATOM     15  C   UNL     1      -0.958  12.464  22.716  0.00  0.00    +0.000 C 
ATOM     16  N   UNL     1      -1.827  13.556  23.133  0.00  0.00    +0.000 NA
ATOM     17  C   UNL     1      -1.172  14.839  23.306  0.00  0.00    +0.000 C 
ATOM     18  C   UNL     1      -2.306  15.846  23.353  0.00  0.00    +0.000 C 
ATOM     19  C   UNL     1      -3.505  15.159  22.710  0.00  0.00    +0.000 C 
ATOM     20  C   UNL     1      -3.064  13.725  22.397  0.00  0.00    +0.000 C 
ATOM     21  C   UNL     1      -2.970  13.483  20.890  0.00  0.00    +0.000 C 
ENDROOT
BRANCH   1  23
ATOM     22  C   UNL     1      -6.001  12.367  17.409  0.00  0.00    +0.000 C 
ATOM     23  O   UNL     1      -4.900  11.947  16.619  0.00  0.00    +0.000 OA
ENDBRANCH   1  23
BRANCH  14  24
ATOM     24  O   UNL     1      -3.399   9.679  15.618  0.00  0.00    +0.000 OA
ATOM     25  C   UNL     1      -2.970  10.259  14.396  0.00  0.00    +0.000 C 
ENDBRANCH  14  24
BRANCH   9  26
ATOM     26  O   UNL     1       2.286   7.513  20.165  0.00  0.00    +0.000 OA
BRANCH  26  27
ATOM     27  C   UNL     1       2.552   7.100  18.822  0.00  0.00    +0.000 C 
BRANCH  27  28
ATOM     28  C   UNL     1       2.492   5.564  18.742  0.00  0.00    +0.000 C 
BRANCH  28  29
ATOM     29  O   UNL     1       3.301   5.014  17.676  0.00  0.00    +0.000 OA
BRANCH  29  30
ATOM     30  C   UNL     1       4.514   4.511  18.053  0.00  0.00    +0.000 C 
ATOM     31  O   UNL     1       4.666   3.715  18.976  0.00  0.00    +0.000 OA
BRANCH  30  32
ATOM     32  C   UNL     1       5.674   5.121  17.252  0.00  0.00    +0.000 C 
ATOM     33  C   UNL     1       5.192   5.973  16.088  0.00  0.00    +0.000 C 
BRANCH  32  34
ATOM     34  N   UNL     1       6.544   4.043  16.713  0.00  0.00    +0.000 NA
ATOM     35  H   UNL     1       6.150   3.725  15.826  0.00  0.00    +0.000 HD
ATOM     36  H   UNL     1       6.459   3.231  17.329  0.00  0.00    +0.000 HD
ENDBRANCH  32  34
ENDBRANCH  30  32
ENDBRANCH  29  30
ENDBRANCH  28  29
ENDBRANCH  27  28
ENDBRANCH  26  27
ENDBRANCH   9  26
TORSDOF 9
ENDMDL
MODEL 7
REMARK VINA RESULT:      -7.2      1.763      2.082
REMARK  Name = 
REMARK  12 active torsions:
REMARK  status: ('A' for Active; 'I' for Inactive)
REMARK    1  A    between atoms: C_1  and  O_2
REMARK    2  A    between atoms: O_2  and  C_3
REMARK    3  A    between atoms: C_11  and  O_12
REMARK    4  A    between atoms: O_12  and  C_13
REMARK    5  A    between atoms: C_13  and  C_14
REMARK    6  A    between atoms: C_14  and  O_15
REMARK    7  A    between atoms: O_15  and  C_16
REMARK    8  A    between atoms: C_16  and  C_18
REMARK    9  A    between atoms: C_18  and  C_19
REMARK   10  A    between atoms: C_18  and  N_20
REMARK   11  A    between atoms: C_25  and  O_26
REMARK   12  A    between atoms: O_26  and  C_27
REMARK                            x       y       z     vdW  Elec       q    Type
REMARK                         _______ _______ _______ _____ _____    ______ ____
ROOT
ATOM      1  C   UNL     1      -4.585  11.662  17.127  0.00  0.00    +0.000 A 
ATOM      2  C   UNL     1      -4.183  12.076  18.398  0.00  0.00    +0.000 A 
ATOM      3  C   UNL     1      -2.965  11.697  19.009  0.00  0.00    +0.000 A 
ATOM      4  C   UNL     1      -2.670  12.087  20.342  0.00  0.00    +0.000 A 
ATOM      5  C   UNL     1      -1.488  11.651  20.964  0.00  0.00    +0.000 A 
ATOM      6  C   UNL     1      -0.559  10.835  20.250  0.00  0.00    +0.000 A 
ATOM      7  C   UNL     1       0.600  10.338  20.890  0.00  0.00    +0.000 A 
ATOM      8  C   UNL     1       1.562   9.578  20.235  0.00  0.00    +0.000 A 
ATOM      9  C   UNL     1       1.437   9.329  18.883  0.00  0.00    +0.000 A 
ATOM     10  C   UNL     1       0.274   9.755  18.221  0.00  0.00    +0.000 A 
ATOM     11  C   UNL     1      -0.782  10.494  18.883  0.00  0.00    +0.000 A 
ATOM     12  C   UNL     1      -2.047  10.896  18.271  0.00  0.00    +0.000 A 
ATOM     13  C   UNL     1      -2.465  10.520  16.951  0.00  0.00    +0.000 A 
ATOM     14  C   UNL     1      -3.714  10.874  16.380  0.00  0.00    +0.000 A 
ATOM     15  C   UNL     1      -1.167  12.063  22.402  0.00  0.00    +0.000 C 
ATOM     16  N   UNL     1      -2.142  12.827  23.169  0.00  0.00    +0.000 NA
ATOM     17  C   UNL     1      -1.706  14.146  23.588  0.00  0.00    +0.000 C 
ATOM     18  C   UNL     1      -2.980  14.857  24.005  0.00  0.00    +0.000 C 
ATOM     19  C   UNL     1      -4.122  14.098  23.340  0.00  0.00    +0.000 C 
ATOM     20  C   UNL     1      -3.487  12.896  22.633  0.00  0.00    +0.000 C 
ATOM     21  C   UNL     1      -3.582  13.025  21.112  0.00  0.00    +0.000 C 
ENDROOT
BRANCH   1  23
ATOM     22  C   UNL     1      -6.360  13.265  17.480  0.00  0.00    +0.000 C 
ATOM     23  O   UNL     1      -5.838  12.123  16.820  0.00  0.00    +0.000 OA
ENDBRANCH   1  23
BRANCH  14  24
ATOM     24  O   UNL     1      -4.129  10.503  15.129  0.00  0.00    +0.000 OA
ATOM     25  C   UNL     1      -3.161  10.168  14.146  0.00  0.00    +0.000 C 
ENDBRANCH  14  24
BRANCH   9  26
ATOM     26  O   UNL     1       2.476   8.604  18.364  0.00  0.00    +0.000 OA
BRANCH  26  27
ATOM     27  C   UNL     1       2.235   7.223  18.083  0.00  0.00    +0.000 C 
BRANCH  27  28
ATOM     28  C   UNL     1       2.784   6.366  19.237  0.00  0.00    +0.000 C 
BRANCH  28  29
ATOM     29  O   UNL     1       3.895   5.526  18.848  0.00  0.00    +0.000 OA
BRANCH  29  30
ATOM     30  C   UNL     1       3.608   4.549  17.938  0.00  0.00    +0.000 C 
ATOM     31  O   UNL     1       4.169   4.442  16.850  0.00  0.00    +0.000 OA
BRANCH  30  32
ATOM     32  C   UNL     1       2.443   3.654  18.388  0.00  0.00    +0.000 C 
ATOM     33  C   UNL     1       2.828   2.184  18.446  0.00  0.00    +0.000 C 
BRANCH  32  34
ATOM     34  N   UNL     1       1.296   3.801  17.455  0.00  0.00    +0.000 NA
ATOM     35  H   UNL     1       1.561   3.398  16.554  0.00  0.00    +0.000 HD
ATOM     36  H   UNL     1       1.177   4.797  17.255  0.00  0.00    +0.000 HD
ENDBRANCH  32  34
ENDBRANCH  30  32
ENDBRANCH  29  30
ENDBRANCH  28  29
ENDBRANCH  27  28
ENDBRANCH  26  27
ENDBRANCH   9  26
TORSDOF 9
ENDMDL
MODEL 8
REMARK VINA RESULT:      -7.2      1.800      2.011
REMARK  Name = 
REMARK  12 active torsions:
REMARK  status: ('A' for Active; 'I' for Inactive)
REMARK    1  A    between atoms: C_1  and  O_2
REMARK    2  A    between atoms: O_2  and  C_3
REMARK    3  A    between atoms: C_11  and  O_12
REMARK    4  A    between atoms: O_12  and  C_13
REMARK    5  A    between atoms: C_13  and  C_14
REMARK    6  A    between atoms: C_14  and  O_15
REMARK    7  A    between atoms: O_15  and  C_16
REMARK    8  A    between atoms: C_16  and  C_18
REMARK    9  A    between atoms: C_18  and  C_19
REMARK   10  A    between atoms: C_18  and  N_20
REMARK   11  A    between atoms: C_25  and  O_26
REMARK   12  A    between atoms: O_26  and  C_27
REMARK                            x       y       z     vdW  Elec       q    Type
REMARK                         _______ _______ _______ _____ _____    ______ ____
ROOT
ATOM      1  C   UNL     1      -3.809  11.391  17.278  0.00  0.00    +0.000 A 
ATOM      2  C   UNL     1      -3.465  12.043  18.463  0.00  0.00    +0.000 A 
ATOM      3  C   UNL     1      -2.434  11.617  19.334  0.00  0.00    +0.000 A 
ATOM      4  C   UNL     1      -2.206  12.283  20.568  0.00  0.00    +0.000 A 
ATOM      5  C   UNL     1      -1.224  11.813  21.456  0.00  0.00    +0.000 A 
ATOM      6  C   UNL     1      -0.428  10.678  21.113  0.00  0.00    +0.000 A 
ATOM      7  C   UNL     1       0.515  10.159  22.029  0.00  0.00    +0.000 A 
ATOM      8  C   UNL     1       1.349   9.087  21.735  0.00  0.00    +0.000 A 
ATOM      9  C   UNL     1       1.318   8.517  20.479  0.00  0.00    +0.000 A 
ATOM     10  C   UNL     1       0.357   8.964  19.557  0.00  0.00    +0.000 A 
ATOM     11  C   UNL     1      -0.574  10.036  19.848  0.00  0.00    +0.000 A 
ATOM     12  C   UNL     1      -1.644  10.492  18.962  0.00  0.00    +0.000 A 
ATOM     13  C   UNL     1      -1.991   9.866  17.719  0.00  0.00    +0.000 A 
ATOM     14  C   UNL     1      -3.060  10.285  16.888  0.00  0.00    +0.000 A 
ATOM     15  C   UNL     1      -0.976  12.523  22.789  0.00  0.00    +0.000 C 
ATOM     16  N   UNL     1      -1.834  13.631  23.186  0.00  0.00    +0.000 NA
ATOM     17  C   UNL     1      -1.163  14.907  23.347  0.00  0.00    +0.000 C 
ATOM     18  C   UNL     1      -2.284  15.929  23.375  0.00  0.00    +0.000 C 
ATOM     19  C   UNL     1      -3.488  15.250  22.733  0.00  0.00    +0.000 C 
ATOM     20  C   UNL     1      -3.064  13.807  22.441  0.00  0.00    +0.000 C 
ATOM     21  C   UNL     1      -2.964  13.545  20.937  0.00  0.00    +0.000 C 
ENDROOT
BRANCH   1  23
ATOM     22  C   UNL     1      -6.073  12.229  17.413  0.00  0.00    +0.000 C 
ATOM     23  O   UNL     1      -4.888  11.981  16.674  0.00  0.00    +0.000 OA
ENDBRANCH   1  23
BRANCH  14  24
ATOM     24  O   UNL     1      -3.410   9.681  15.710  0.00  0.00    +0.000 OA
ATOM     25  C   UNL     1      -2.994  10.260  14.482  0.00  0.00    +0.000 C 
ENDBRANCH  14  24
BRANCH   9  26
ATOM     26  O   UNL     1       2.219   7.499  20.319  0.00  0.00    +0.000 OA
BRANCH  26  27
ATOM     27  C   UNL     1       1.743   6.166  20.514  0.00  0.00    +0.000 C 
BRANCH  27  28
ATOM     28  C   UNL     1       2.830   5.168  20.075  0.00  0.00    +0.000 C 
BRANCH  28  29
ATOM     29  O   UNL     1       2.298   3.889  19.659  0.00  0.00    +0.000 OA
BRANCH  29  30
ATOM     30  C   UNL     1       2.886   3.333  18.559  0.00  0.00    +0.000 C 
ATOM     31  O   UNL     1       2.406   2.394  17.929  0.00  0.00    +0.000 OA
BRANCH  30  32
ATOM     32  C   UNL     1       4.257   3.955  18.252  0.00  0.00    +0.000 C 
ATOM     33  C   UNL     1       4.573   3.961  16.764  0.00  0.00    +0.000 C 
BRANCH  32  34
ATOM     34  N   UNL     1       5.328   3.200  18.953  0.00  0.00    +0.000 NA
ATOM     35  H   UNL     1       4.893   2.441  19.483  0.00  0.00    +0.000 HD
ATOM     36  H   UNL     1       5.725   3.809  19.673  0.00  0.00    +0.000 HD
ENDBRANCH  32  34
ENDBRANCH  30  32
ENDBRANCH  29  30
ENDBRANCH  28  29
ENDBRANCH  27  28
ENDBRANCH  26  27
ENDBRANCH   9  26
TORSDOF 9
ENDMDL
MODEL 9
REMARK VINA RESULT:      -7.0      1.971      2.428
REMARK  Name = 
REMARK  12 active torsions:
REMARK  status: ('A' for Active; 'I' for Inactive)
REMARK    1  A    between atoms: C_1  and  O_2
REMARK    2  A    between atoms: O_2  and  C_3
REMARK    3  A    between atoms: C_11  and  O_12
REMARK    4  A    between atoms: O_12  and  C_13
REMARK    5  A    between atoms: C_13  and  C_14
REMARK    6  A    between atoms: C_14  and  O_15
REMARK    7  A    between atoms: O_15  and  C_16
REMARK    8  A    between atoms: C_16  and  C_18
REMARK    9  A    between atoms: C_18  and  C_19
REMARK   10  A    between atoms: C_18  and  N_20
REMARK   11  A    between atoms: C_25  and  O_26
REMARK   12  A    between atoms: O_26  and  C_27
REMARK                            x       y       z     vdW  Elec       q    Type
REMARK                         _______ _______ _______ _____ _____    ______ ____
ROOT
ATOM      1  C   UNL     1      -3.732  11.565  16.678  0.00  0.00    +0.000 A 
ATOM      2  C   UNL     1      -3.414  11.881  18.000  0.00  0.00    +0.000 A 
ATOM      3  C   UNL     1      -2.305  11.349  18.699  0.00  0.00    +0.000 A 
ATOM      4  C   UNL     1      -2.101  11.650  20.073  0.00  0.00    +0.000 A 
ATOM      5  C   UNL     1      -1.034  11.065  20.776  0.00  0.00    +0.000 A 
ATOM      6  C   UNL     1      -0.130  10.184  20.109  0.00  0.00    +0.000 A 
ATOM      7  C   UNL     1       0.905   9.540  20.825  0.00  0.00    +0.000 A 
ATOM      8  C   UNL     1       1.842   8.710  20.222  0.00  0.00    +0.000 A 
ATOM      9  C   UNL     1       1.823   8.531  18.854  0.00  0.00    +0.000 A 
ATOM     10  C   UNL     1       0.778   9.106  18.112  0.00  0.00    +0.000 A 
ATOM     11  C   UNL     1      -0.255   9.926  18.712  0.00  0.00    +0.000 A 
ATOM     12  C   UNL     1      -1.408  10.486  18.008  0.00  0.00    +0.000 A 
ATOM     13  C   UNL     1      -1.734  10.212  16.638  0.00  0.00    +0.000 A 
ATOM     14  C   UNL     1      -2.878  10.720  15.975  0.00  0.00    +0.000 A 
ATOM     15  C   UNL     1      -0.812  11.381  22.257  0.00  0.00    +0.000 C 
ATOM     16  N   UNL     1      -1.773  12.212  22.969  0.00  0.00    +0.000 NA
ATOM     17  C   UNL     1      -1.246  13.459  23.493  0.00  0.00    +0.000 C 
ATOM     18  C   UNL     1      -2.475  14.284  23.828  0.00  0.00    +0.000 C 
ATOM     19  C   UNL     1      -3.619  13.680  23.024  0.00  0.00    +0.000 C 
ATOM     20  C   UNL     1      -3.046  12.447  22.318  0.00  0.00    +0.000 C 
ATOM     21  C   UNL     1      -2.981  12.648  20.803  0.00  0.00    +0.000 C 
ENDROOT
BRANCH   1  23
ATOM     22  C   UNL     1      -5.996  12.253  17.173  0.00  0.00    +0.000 C 
ATOM     23  O   UNL     1      -4.895  12.170  16.283  0.00  0.00    +0.000 OA
ENDBRANCH   1  23
BRANCH  14  24
ATOM     24  O   UNL     1      -3.207  10.448  14.674  0.00  0.00    +0.000 OA
ATOM     25  C   UNL     1      -4.230   9.504  14.398  0.00  0.00    +0.000 C 
ENDBRANCH  14  24
BRANCH   9  26
ATOM     26  O   UNL     1       2.826   7.721  18.395  0.00  0.00    +0.000 OA
BRANCH  26  27
ATOM     27  C   UNL     1       2.538   6.327  18.270  0.00  0.00    +0.000 C 
BRANCH  27  28
ATOM     28  C   UNL     1       3.530   5.523  19.129  0.00  0.00    +0.000 C 
BRANCH  28  29
ATOM     29  O   UNL     1       2.886   4.704  20.132  0.00  0.00    +0.000 OA
BRANCH  29  30
ATOM     30  C   UNL     1       3.109   3.360  20.031  0.00  0.00    +0.000 C 
ATOM     31  O   UNL     1       4.226   2.859  19.931  0.00  0.00    +0.000 OA
BRANCH  30  32
ATOM     32  C   UNL     1       1.803   2.554  19.966  0.00  0.00    +0.000 C 
ATOM     33  C   UNL     1       1.028   2.807  18.682  0.00  0.00    +0.000 C 
BRANCH  32  34
ATOM     34  N   UNL     1       0.930   2.903  21.116  0.00  0.00    +0.000 NA
ATOM     35  H   UNL     1       0.306   2.114  21.298  0.00  0.00    +0.000 HD
ATOM     36  H   UNL     1       0.301   3.654  20.819  0.00  0.00    +0.000 HD
ENDBRANCH  32  34
ENDBRANCH  30  32
ENDBRANCH  29  30
ENDBRANCH  28  29
ENDBRANCH  27  28
ENDBRANCH  26  27
ENDBRANCH   9  26
TORSDOF 9
ENDMDL
