MODEL 1
REMARK VINA RESULT:      -8.1      0.000      0.000
REMARK  Name = 
REMARK  6 active torsions:
REMARK  status: ('A' for Active; 'I' for Inactive)
REMARK    1  A    between atoms: C_1  and  N_2
REMARK    2  A    between atoms: C_13  and  N_14
REMARK    3  A    between atoms: N_16  and  C_17
REMARK    4  A    between atoms: C_17  and  C_18
REMARK    5  A    between atoms: C_29  and  C_30
REMARK    6  A    between atoms: C_30  and  O_32
REMARK                            x       y       z     vdW  Elec       q    Type
REMARK                         _______ _______ _______ _____ _____    ______ ____
ROOT
ATOM      1  C   UNL     1       2.160  11.745  18.097  0.00  0.00    +0.000 C 
ATOM      2  N   UNL     1       1.806  10.550  18.838  0.00  0.00    +0.000 N 
ATOM      3  C   UNL     1       1.984   9.322  18.204  0.00  0.00    +0.000 A 
ATOM      4  O   UNL     1       2.223   9.214  17.005  0.00  0.00    +0.000 OA
ATOM      5  C   UNL     1       1.873   8.194  19.071  0.00  0.00    +0.000 A 
ATOM      6  C   UNL     1       1.328   8.193  20.326  0.00  0.00    +0.000 A 
ATOM      7  N   UNL     1       1.318   6.914  20.844  0.00  0.00    +0.000 NA
ATOM      8  C   UNL     1       1.836   6.128  19.898  0.00  0.00    +0.000 A 
ATOM      9  N   UNL     1       1.880   4.757  19.874  0.00  0.00    +0.000 N 
ATOM     10  C   UNL     1       1.906   3.976  18.638  0.00  0.00    +0.000 C 
ATOM     11  C   UNL     1       1.034   2.742  18.749  0.00  0.00    +0.000 C 
ATOM     12  C   UNL     1       1.479   1.886  19.923  0.00  0.00    +0.000 C 
ATOM     13  C   UNL     1       1.508   2.705  21.226  0.00  0.00    +0.000 C 
ATOM     14  C   UNL     1       2.325   4.021  21.068  0.00  0.00    +0.000 C 
ATOM     15  N   UNL     1       2.340   6.922  18.875  0.00  0.00    +0.000 N 
ATOM     16  C   UNL     1       0.868   9.466  20.869  0.00  0.00    +0.000 A 
ATOM     17  C   UNL     1       0.131   9.584  22.052  0.00  0.00    +0.000 A 
ATOM     18  C   UNL     1      -0.313  10.847  22.498  0.00  0.00    +0.000 A 
ATOM     19  C   UNL     1       0.014  12.009  21.791  0.00  0.00    +0.000 A 
ATOM     20  C   UNL     1       0.779  11.893  20.614  0.00  0.00    +0.000 A 
ATOM     21  C   UNL     1       1.174  10.641  20.125  0.00  0.00    +0.000 A 
ENDROOT
BRANCH  13  22
ATOM     22  N   UNL     1       2.012   1.834  22.299  0.00  0.00    +0.000 NA
ATOM     23  H   UNL     1       2.083   2.365  23.167  0.00  0.00    +0.000 HD
ATOM     24  H   UNL     1       2.965   1.553  22.071  0.00  0.00    +0.000 HD
ENDBRANCH  13  22
BRANCH  19  25
ATOM     25  C   UNL     1      -0.474  13.372  22.105  0.00  0.00    +0.000 C 
ATOM     26  O   UNL     1      -1.625  13.729  21.897  0.00  0.00    +0.000 OA
BRANCH  25  27
ATOM     27  O   UNL     1       0.465  14.208  22.605  0.00  0.00    +0.000 OA
ATOM     28  H   UNL     1       0.623  14.118  23.561  0.00  0.00    +0.000 HD
ENDBRANCH  25  27
ENDBRANCH  19  25
BRANCH  15  29
ATOM     29  C   UNL     1       3.185   6.533  17.761  0.00  0.00    +0.000 C 
BRANCH  29  30
ATOM     30  C   UNL     1       4.677   6.518  17.989  0.00  0.00    +0.000 A 
ATOM     31  C   UNL     1       5.382   7.704  17.713  0.00  0.00    +0.000 A 
ATOM     32  C   UNL     1       6.768   7.697  17.623  0.00  0.00    +0.000 A 
ATOM     33  F   UNL     1       7.410   8.822  17.290  0.00  0.00    +0.000 F 
ATOM     34  C   UNL     1       7.485   6.526  17.817  0.00  0.00    +0.000 A 
ATOM     35  C   UNL     1       6.807   5.351  18.137  0.00  0.00    +0.000 A 
ATOM     36  C   UNL     1       5.411   5.342  18.223  0.00  0.00    +0.000 A 
ATOM     37 CL   UNL     1       4.658   3.819  18.523  0.00  0.00    +0.000 Cl
ENDBRANCH  29  30
ENDBRANCH  15  29
TORSDOF 5
ENDMDL
MODEL 2
REMARK VINA RESULT:      -7.8      1.487      1.637
REMARK  Name = 
REMARK  6 active torsions:
REMARK  status: ('A' for Active; 'I' for Inactive)
REMARK    1  A    between atoms: C_1  and  N_2
REMARK    2  A    between atoms: C_13  and  N_14
REMARK    3  A    between atoms: N_16  and  C_17
REMARK    4  A    between atoms: C_17  and  C_18
REMARK    5  A    between atoms: C_29  and  C_30
REMARK    6  A    between atoms: C_30  and  O_32
REMARK                            x       y       z     vdW  Elec       q    Type
REMARK                         _______ _______ _______ _____ _____    ______ ____
ROOT
ATOM      1  C   UNL     1       1.181  11.505  18.427  0.00  0.00    +0.000 C 
ATOM      2  N   UNL     1       1.321  10.188  19.018  0.00  0.00    +0.000 N 
ATOM      3  C   UNL     1       1.725   9.147  18.184  0.00  0.00    +0.000 A 
ATOM      4  O   UNL     1       1.765   9.244  16.962  0.00  0.00    +0.000 OA
ATOM      5  C   UNL     1       2.099   7.955  18.875  0.00  0.00    +0.000 A 
ATOM      6  C   UNL     1       1.811   7.656  20.178  0.00  0.00    +0.000 A 
ATOM      7  N   UNL     1       2.259   6.389  20.490  0.00  0.00    +0.000 NA
ATOM      8  C   UNL     1       2.801   5.903  19.372  0.00  0.00    +0.000 A 
ATOM      9  N   UNL     1       3.230   4.622  19.131  0.00  0.00    +0.000 N 
ATOM     10  C   UNL     1       3.255   4.020  17.799  0.00  0.00    +0.000 C 
ATOM     11  C   UNL     1       2.805   2.574  17.841  0.00  0.00    +0.000 C 
ATOM     12  C   UNL     1       3.679   1.777  18.795  0.00  0.00    +0.000 C 
ATOM     13  C   UNL     1       3.708   2.425  20.191  0.00  0.00    +0.000 C 
ATOM     14  C   UNL     1       4.073   3.937  20.125  0.00  0.00    +0.000 C 
ATOM     15  N   UNL     1       2.866   6.916  18.423  0.00  0.00    +0.000 N 
ATOM     16  C   UNL     1       1.112   8.663  20.970  0.00  0.00    +0.000 A 
ATOM     17  C   UNL     1       0.598   8.425  22.248  0.00  0.00    +0.000 A 
ATOM     18  C   UNL     1      -0.100   9.438  22.941  0.00  0.00    +0.000 A 
ATOM     19  C   UNL     1      -0.251  10.711  22.382  0.00  0.00    +0.000 A 
ATOM     20  C   UNL     1       0.291  10.958  21.105  0.00  0.00    +0.000 A 
ATOM     21  C   UNL     1       0.931   9.946  20.380  0.00  0.00    +0.000 A 
ENDROOT
BRANCH  13  22
ATOM     22  N   UNL     1       4.624   1.644  21.037  0.00  0.00    +0.000 NA
ATOM     23  H   UNL     1       5.557   2.052  21.001  0.00  0.00    +0.000 HD
ATOM     24  H   UNL     1       4.718   0.709  20.640  0.00  0.00    +0.000 HD
ENDBRANCH  13  22
BRANCH  19  25
ATOM     25  C   UNL     1      -1.043  11.818  22.967  0.00  0.00    +0.000 C 
ATOM     26  O   UNL     1      -0.587  12.941  23.136  0.00  0.00    +0.000 OA
BRANCH  25  27
ATOM     27  O   UNL     1      -2.299  11.481  23.339  0.00  0.00    +0.000 OA
ATOM     28  H   UNL     1      -2.739  12.127  23.918  0.00  0.00    +0.000 HD
ENDBRANCH  25  27
ENDBRANCH  19  25
BRANCH  15  29
ATOM     29  C   UNL     1       3.571   6.923  17.154  0.00  0.00    +0.000 C 
BRANCH  29  30
ATOM     30  C   UNL     1       5.070   6.753  17.190  0.00  0.00    +0.000 A 
ATOM     31  C   UNL     1       5.817   7.754  17.840  0.00  0.00    +0.000 A 
ATOM     32  C   UNL     1       7.193   7.826  17.678  0.00  0.00    +0.000 A 
ATOM     33  F   UNL     1       7.871   8.828  18.249  0.00  0.00    +0.000 F 
ATOM     34  C   UNL     1       7.863   6.907  16.884  0.00  0.00    +0.000 A 
ATOM     35  C   UNL     1       7.147   5.881  16.269  0.00  0.00    +0.000 A 
ATOM     36  C   UNL     1       5.758   5.801  16.417  0.00  0.00    +0.000 A 
ATOM     37 CL   UNL     1       4.951   4.558  15.536  0.00  0.00    +0.000 Cl
ENDBRANCH  29  30
ENDBRANCH  15  29
TORSDOF 5
ENDMDL
MODEL 3
REMARK VINA RESULT:      -7.8      1.579      1.692
REMARK  Name = 
REMARK  6 active torsions:
REMARK  status: ('A' for Active; 'I' for Inactive)
REMARK    1  A    between atoms: C_1  and  N_2
REMARK    2  A    between atoms: C_13  and  N_14
REMARK    3  A    between atoms: N_16  and  C_17
REMARK    4  A    between atoms: C_17  and  C_18
REMARK    5  A    between atoms: C_29  and  C_30
REMARK    6  A    between atoms: C_30  and  O_32
REMARK                            x       y       z     vdW  Elec       q    Type
REMARK                         _______ _______ _______ _____ _____    ______ ____
ROOT
ATOM      1  C   UNL     1       1.658  11.644  18.582  0.00  0.00    +0.000 C 
ATOM      2  N   UNL     1       1.597  10.292  19.103  0.00  0.00    +0.000 N 
ATOM      3  C   UNL     1       2.029   9.261  18.270  0.00  0.00    +0.000 A 
ATOM      4  O   UNL     1       2.257   9.415  17.075  0.00  0.00    +0.000 OA
ATOM      5  C   UNL     1       2.194   8.006  18.930  0.00  0.00    +0.000 A 
ATOM      6  C   UNL     1       1.693   7.670  20.158  0.00  0.00    +0.000 A 
ATOM      7  N   UNL     1       1.981   6.353  20.449  0.00  0.00    +0.000 NA
ATOM      8  C   UNL     1       2.639   5.875  19.391  0.00  0.00    +0.000 A 
ATOM      9  N   UNL     1       2.988   4.574  19.134  0.00  0.00    +0.000 N 
ATOM     10  C   UNL     1       3.158   4.040  17.783  0.00  0.00    +0.000 C 
ATOM     11  C   UNL     1       2.586   2.642  17.669  0.00  0.00    +0.000 C 
ATOM     12  C   UNL     1       3.239   1.720  18.685  0.00  0.00    +0.000 C 
ATOM     13  C   UNL     1       3.116   2.291  20.109  0.00  0.00    +0.000 C 
ATOM     14  C   UNL     1       3.614   3.764  20.191  0.00  0.00    +0.000 C 
ATOM     15  N   UNL     1       2.929   6.925  18.527  0.00  0.00    +0.000 N 
ATOM     16  C   UNL     1       0.974   8.697  20.904  0.00  0.00    +0.000 A 
ATOM     17  C   UNL     1       0.258   8.444  22.078  0.00  0.00    +0.000 A 
ATOM     18  C   UNL     1      -0.446   9.481  22.727  0.00  0.00    +0.000 A 
ATOM     19  C   UNL     1      -0.404  10.790  22.234  0.00  0.00    +0.000 A 
ATOM     20  C   UNL     1       0.339  11.049  21.066  0.00  0.00    +0.000 A 
ATOM     21  C   UNL     1       0.991  10.019  20.377  0.00  0.00    +0.000 A 
ENDROOT
BRANCH  13  22
ATOM     22  N   UNL     1       3.827   1.386  21.026  0.00  0.00    +0.000 NA
ATOM     23  H   UNL     1       4.713   1.101  20.609  0.00  0.00    +0.000 HD
ATOM     24  H   UNL     1       3.283   0.530  21.126  0.00  0.00    +0.000 HD
ENDBRANCH  13  22
BRANCH  19  25
ATOM     25  C   UNL     1      -1.177  11.935  22.769  0.00  0.00    +0.000 C 
ATOM     26  O   UNL     1      -2.390  11.903  22.921  0.00  0.00    +0.000 OA
BRANCH  25  27
ATOM     27  O   UNL     1      -0.440  13.036  23.042  0.00  0.00    +0.000 OA
ATOM     28  H   UNL     1       0.457  12.855  23.375  0.00  0.00    +0.000 HD
ENDBRANCH  25  27
ENDBRANCH  19  25
BRANCH  15  29
ATOM     29  C   UNL     1       3.812   6.930  17.375  0.00  0.00    +0.000 C 
BRANCH  29  30
ATOM     30  C   UNL     1       5.119   6.187  17.496  0.00  0.00    +0.000 A 
ATOM     31  C   UNL     1       5.754   6.200  18.752  0.00  0.00    +0.000 A 
ATOM     32  C   UNL     1       7.075   5.792  18.881  0.00  0.00    +0.000 A 
ATOM     33  F   UNL     1       7.676   5.880  20.073  0.00  0.00    +0.000 F 
ATOM     34  C   UNL     1       7.791   5.350  17.780  0.00  0.00    +0.000 A 
ATOM     35  C   UNL     1       7.166   5.286  16.535  0.00  0.00    +0.000 A 
ATOM     36  C   UNL     1       5.838   5.701  16.389  0.00  0.00    +0.000 A 
ATOM     37 CL   UNL     1       5.185   5.680  14.793  0.00  0.00    +0.000 Cl
ENDBRANCH  29  30
ENDBRANCH  15  29
TORSDOF 5
ENDMDL
MODEL 4
REMARK VINA RESULT:      -7.2      1.316      1.515
REMARK  Name = 
REMARK  6 active torsions:
REMARK  status: ('A' for Active; 'I' for Inactive)
REMARK    1  A    between atoms: C_1  and  N_2
REMARK    2  A    between atoms: C_13  and  N_14
REMARK    3  A    between atoms: N_16  and  C_17
REMARK    4  A    between atoms: C_17  and  C_18
REMARK    5  A    between atoms: C_29  and  C_30
REMARK    6  A    between atoms: C_30  and  O_32
REMARK                            x       y       z     vdW  Elec       q    Type
REMARK                         _______ _______ _______ _____ _____    ______ ____
ROOT
ATOM      1  C   UNL     1       1.725  11.684  18.244  0.00  0.00    +0.000 C 
ATOM      2  N   UNL     1       1.561  10.429  18.952  0.00  0.00    +0.000 N 
ATOM      3  C   UNL     1       1.779   9.253  18.237  0.00  0.00    +0.000 A 
ATOM      4  O   UNL     1       1.895   9.223  17.016  0.00  0.00    +0.000 OA
ATOM      5  C   UNL     1       1.865   8.082  19.048  0.00  0.00    +0.000 A 
ATOM      6  C   UNL     1       1.462   7.973  20.350  0.00  0.00    +0.000 A 
ATOM      7  N   UNL     1       1.623   6.678  20.796  0.00  0.00    +0.000 NA
ATOM      8  C   UNL     1       2.104   5.987  19.760  0.00  0.00    +0.000 A 
ATOM      9  N   UNL     1       2.268   4.629  19.657  0.00  0.00    +0.000 N 
ATOM     10  C   UNL     1       2.229   3.910  18.384  0.00  0.00    +0.000 C 
ATOM     11  C   UNL     1       1.489   2.595  18.519  0.00  0.00    +0.000 C 
ATOM     12  C   UNL     1       2.134   1.734  19.591  0.00  0.00    +0.000 C 
ATOM     13  C   UNL     1       2.231   2.493  20.926  0.00  0.00    +0.000 C 
ATOM     14  C   UNL     1       2.904   3.886  20.757  0.00  0.00    +0.000 C 
ATOM     15  N   UNL     1       2.420   6.871  18.736  0.00  0.00    +0.000 N 
ATOM     16  C   UNL     1       0.951   9.171  21.007  0.00  0.00    +0.000 A 
ATOM     17  C   UNL     1       0.340   9.166  22.265  0.00  0.00    +0.000 A 
ATOM     18  C   UNL     1      -0.164  10.360  22.823  0.00  0.00    +0.000 A 
ATOM     19  C   UNL     1      -0.022  11.578  22.150  0.00  0.00    +0.000 A 
ATOM     20  C   UNL     1       0.617  11.588  20.895  0.00  0.00    +0.000 A 
ATOM     21  C   UNL     1       1.067  10.402  20.301  0.00  0.00    +0.000 A 
ENDROOT
BRANCH  13  22
ATOM     22  N   UNL     1       2.925   1.627  21.893  0.00  0.00    +0.000 NA
ATOM     23  H   UNL     1       2.322   0.845  22.149  0.00  0.00    +0.000 HD
ATOM     24  H   UNL     1       3.073   2.152  22.754  0.00  0.00    +0.000 HD
ENDBRANCH  13  22
BRANCH  19  25
ATOM     25  C   UNL     1      -0.593  12.873  22.588  0.00  0.00    +0.000 C 
ATOM     26  O   UNL     1       0.069  13.899  22.662  0.00  0.00    +0.000 OA
BRANCH  25  27
ATOM     27  O   UNL     1      -1.899  12.827  22.939  0.00  0.00    +0.000 OA
ATOM     28  H   UNL     1      -2.099  12.237  23.687  0.00  0.00    +0.000 HD
ENDBRANCH  25  27
ENDBRANCH  19  25
BRANCH  15  29
ATOM     29  C   UNL     1       3.170   6.614  17.519  0.00  0.00    +0.000 C 
BRANCH  29  30
ATOM     30  C   UNL     1       4.621   6.224  17.664  0.00  0.00    +0.000 A 
ATOM     31  C   UNL     1       5.071   5.888  18.955  0.00  0.00    +0.000 A 
ATOM     32  C   UNL     1       6.429   5.794  19.227  0.00  0.00    +0.000 A 
ATOM     33  F   UNL     1       6.833   5.542  20.477  0.00  0.00    +0.000 F 
ATOM     34  C   UNL     1       7.369   6.016  18.231  0.00  0.00    +0.000 A 
ATOM     35  C   UNL     1       6.941   6.305  16.936  0.00  0.00    +0.000 A 
ATOM     36  C   UNL     1       5.576   6.410  16.649  0.00  0.00    +0.000 A 
ATOM     37 CL   UNL     1       5.150   6.871  15.043  0.00  0.00    +0.000 Cl
ENDBRANCH  29  30
ENDBRANCH  15  29
TORSDOF 5
ENDMDL
MODEL 5
REMARK VINA RESULT:      -7.0      2.762      4.990
REMARK  Name = 
REMARK  6 active torsions:
REMARK  status: ('A' for Active; 'I' for Inactive)
REMARK    1  A    between atoms: C_1  and  N_2
REMARK    2  A    between atoms: C_13  and  N_14
REMARK    3  A    between atoms: N_16  and  C_17
REMARK    4  A    between atoms: C_17  and  C_18
REMARK    5  A    between atoms: C_29  and  C_30
REMARK    6  A    between atoms: C_30  and  O_32
REMARK                            x       y       z     vdW  Elec       q    Type
REMARK                         _______ _______ _______ _____ _____    ______ ____
ROOT
ATOM      1  C   UNL     1      -0.375   8.494  21.927  0.00  0.00    +0.000 C 
ATOM      2  N   UNL     1       0.586   8.437  20.842  0.00  0.00    +0.000 N 
ATOM      3  C   UNL     1       1.640   7.535  20.962  0.00  0.00    +0.000 A 
ATOM      4  O   UNL     1       1.906   6.949  22.007  0.00  0.00    +0.000 OA
ATOM      5  C   UNL     1       2.384   7.340  19.760  0.00  0.00    +0.000 A 
ATOM      6  C   UNL     1       2.356   8.147  18.656  0.00  0.00    +0.000 A 
ATOM      7  N   UNL     1       3.256   7.700  17.711  0.00  0.00    +0.000 NA
ATOM      8  C   UNL     1       3.853   6.633  18.245  0.00  0.00    +0.000 A 
ATOM      9  N   UNL     1       4.938   5.945  17.763  0.00  0.00    +0.000 N 
ATOM     10  C   UNL     1       5.869   5.212  18.619  0.00  0.00    +0.000 C 
ATOM     11  C   UNL     1       7.301   5.394  18.157  0.00  0.00    +0.000 C 
ATOM     12  C   UNL     1       7.450   4.948  16.712  0.00  0.00    +0.000 C 
ATOM     13  C   UNL     1       6.441   5.672  15.803  0.00  0.00    +0.000 C 
ATOM     14  C   UNL     1       4.985   5.562  16.343  0.00  0.00    +0.000 C 
ATOM     15  N   UNL     1       3.206   6.298  19.429  0.00  0.00    +0.000 N 
ATOM     16  C   UNL     1       1.439   9.282  18.666  0.00  0.00    +0.000 A 
ATOM     17  C   UNL     1       1.436  10.285  17.691  0.00  0.00    +0.000 A 
ATOM     18  C   UNL     1       0.543  11.374  17.785  0.00  0.00    +0.000 A 
ATOM     19  C   UNL     1      -0.384  11.449  18.830  0.00  0.00    +0.000 A 
ATOM     20  C   UNL     1      -0.399  10.424  19.797  0.00  0.00    +0.000 A 
ATOM     21  C   UNL     1       0.521   9.370  19.750  0.00  0.00    +0.000 A 
ENDROOT
BRANCH  13  22
ATOM     22  N   UNL     1       6.596   5.141  14.439  0.00  0.00    +0.000 NA
ATOM     23  H   UNL     1       7.255   5.719  13.918  0.00  0.00    +0.000 HD
ATOM     24  H   UNL     1       5.705   5.233  13.950  0.00  0.00    +0.000 HD
ENDBRANCH  13  22
BRANCH  19  25
ATOM     25  C   UNL     1      -1.300  12.585  19.087  0.00  0.00    +0.000 C 
ATOM     26  O   UNL     1      -2.342  12.467  19.716  0.00  0.00    +0.000 OA
BRANCH  25  27
ATOM     27  O   UNL     1      -0.913  13.759  18.536  0.00  0.00    +0.000 OA
ATOM     28  H   UNL     1      -1.090  14.544  19.084  0.00  0.00    +0.000 HD
ENDBRANCH  25  27
ENDBRANCH  19  25
BRANCH  15  29
ATOM     29  C   UNL     1       3.352   5.096  20.230  0.00  0.00    +0.000 C 
BRANCH  29  30
ATOM     30  C   UNL     1       2.764   3.818  19.683  0.00  0.00    +0.000 A 
ATOM     31  C   UNL     1       3.638   2.943  19.011  0.00  0.00    +0.000 A 
ATOM     32  C   UNL     1       3.140   1.899  18.243  0.00  0.00    +0.000 A 
ATOM     33  F   UNL     1       3.988   1.124  17.558  0.00  0.00    +0.000 F 
ATOM     34  C   UNL     1       1.774   1.690  18.132  0.00  0.00    +0.000 A 
ATOM     35  C   UNL     1       0.893   2.519  18.826  0.00  0.00    +0.000 A 
ATOM     36  C   UNL     1       1.381   3.579  19.599  0.00  0.00    +0.000 A 
ATOM     37 CL   UNL     1       0.211   4.608  20.337  0.00  0.00    +0.000 Cl
ENDBRANCH  29  30
ENDBRANCH  15  29
TORSDOF 5
ENDMDL
MODEL 6
REMARK VINA RESULT:      -7.0      6.178     10.893
REMARK  Name = 
REMARK  6 active torsions:
REMARK  status: ('A' for Active; 'I' for Inactive)
REMARK    1  A    between atoms: C_1  and  N_2
REMARK    2  A    between atoms: C_13  and  N_14
REMARK    3  A    between atoms: N_16  and  C_17
REMARK    4  A    between atoms: C_17  and  C_18
REMARK    5  A    between atoms: C_29  and  C_30
REMARK    6  A    between atoms: C_30  and  O_32
REMARK                            x       y       z     vdW  Elec       q    Type
REMARK                         _______ _______ _______ _____ _____    ______ ____
ROOT
ATOM      1  C   UNL     1      -2.738   9.710  16.920  0.00  0.00    +0.000 C 
ATOM      2  N   UNL     1      -2.450  10.642  17.994  0.00  0.00    +0.000 N 
ATOM      3  C   UNL     1      -3.340  11.697  18.187  0.00  0.00    +0.000 A 
ATOM      4  O   UNL     1      -4.219  11.988  17.382  0.00  0.00    +0.000 OA
ATOM      5  C   UNL     1      -3.147  12.408  19.409  0.00  0.00    +0.000 A 
ATOM      6  C   UNL     1      -2.038  12.352  20.207  0.00  0.00    +0.000 A 
ATOM      7  N   UNL     1      -2.165  13.226  21.267  0.00  0.00    +0.000 NA
ATOM      8  C   UNL     1      -3.342  13.834  21.106  0.00  0.00    +0.000 A 
ATOM      9  N   UNL     1      -3.839  14.904  21.806  0.00  0.00    +0.000 N 
ATOM     10  C   UNL     1      -4.797  15.856  21.245  0.00  0.00    +0.000 C 
ATOM     11  C   UNL     1      -4.472  17.275  21.665  0.00  0.00    +0.000 C 
ATOM     12  C   UNL     1      -4.448  17.384  23.180  0.00  0.00    +0.000 C 
ATOM     13  C   UNL     1      -3.483  16.354  23.793  0.00  0.00    +0.000 C 
ATOM     14  C   UNL     1      -3.764  14.912  23.276  0.00  0.00    +0.000 C 
ATOM     15  N   UNL     1      -4.031  13.218  20.069  0.00  0.00    +0.000 N 
ATOM     16  C   UNL     1      -0.967  11.440  19.822  0.00  0.00    +0.000 A 
ATOM     17  C   UNL     1       0.289  11.413  20.437  0.00  0.00    +0.000 A 
ATOM     18  C   UNL     1       1.290  10.526  19.986  0.00  0.00    +0.000 A 
ATOM     19  C   UNL     1       1.031   9.627  18.946  0.00  0.00    +0.000 A 
ATOM     20  C   UNL     1      -0.243   9.635  18.345  0.00  0.00    +0.000 A 
ATOM     21  C   UNL     1      -1.226  10.551  18.740  0.00  0.00    +0.000 A 
ENDROOT
BRANCH  13  22
ATOM     22  N   UNL     1      -3.563  16.471  25.258  0.00  0.00    +0.000 NA
ATOM     23  H   UNL     1      -3.352  17.428  25.539  0.00  0.00    +0.000 HD
ATOM     24  H   UNL     1      -2.830  15.896  25.672  0.00  0.00    +0.000 HD
ENDBRANCH  13  22
BRANCH  19  25
ATOM     25  C   UNL     1       2.027   8.722  18.326  0.00  0.00    +0.000 C 
ATOM     26  O   UNL     1       2.163   7.554  18.664  0.00  0.00    +0.000 OA
BRANCH  25  27
ATOM     27  O   UNL     1       2.804   9.298  17.380  0.00  0.00    +0.000 OA
ATOM     28  H   UNL     1       3.263  10.107  17.668  0.00  0.00    +0.000 HD
ENDBRANCH  25  27
ENDBRANCH  19  25
BRANCH  15  29
ATOM     29  C   UNL     1      -5.421  13.382  19.684  0.00  0.00    +0.000 C 
BRANCH  29  30
ATOM     30  C   UNL     1      -6.449  12.551  20.413  0.00  0.00    +0.000 A 
ATOM     31  C   UNL     1      -6.684  12.859  21.766  0.00  0.00    +0.000 A 
ATOM     32  C   UNL     1      -7.390  11.982  22.578  0.00  0.00    +0.000 A 
ATOM     33  F   UNL     1      -7.540  12.265  23.877  0.00  0.00    +0.000 F 
ATOM     34  C   UNL     1      -7.889  10.792  22.071  0.00  0.00    +0.000 A 
ATOM     35  C   UNL     1      -7.706  10.490  20.722  0.00  0.00    +0.000 A 
ATOM     36  C   UNL     1      -6.990  11.361  19.894  0.00  0.00    +0.000 A 
ATOM     37 CL   UNL     1      -6.729  10.852  18.267  0.00  0.00    +0.000 Cl
ENDBRANCH  29  30
ENDBRANCH  15  29
TORSDOF 5
ENDMDL
MODEL 7
REMARK VINA RESULT:      -6.9      7.980     10.572
REMARK  Name = 
REMARK  6 active torsions:
REMARK  status: ('A' for Active; 'I' for Inactive)
REMARK    1  A    between atoms: C_1  and  N_2
REMARK    2  A    between atoms: C_13  and  N_14
REMARK    3  A    between atoms: N_16  and  C_17
REMARK    4  A    between atoms: C_17  and  C_18
REMARK    5  A    between atoms: C_29  and  C_30
REMARK    6  A    between atoms: C_30  and  O_32
REMARK                            x       y       z     vdW  Elec       q    Type
REMARK                         _______ _______ _______ _____ _____    ______ ____
ROOT
ATOM      1  C   UNL     1       8.239  16.166  19.110  0.00  0.00    +0.000 C 
ATOM      2  N   UNL     1       8.209  15.169  20.163  0.00  0.00    +0.000 N 
ATOM      3  C   UNL     1       7.506  15.482  21.325  0.00  0.00    +0.000 A 
ATOM      4  O   UNL     1       7.096  16.610  21.578  0.00  0.00    +0.000 OA
ATOM      5  C   UNL     1       7.293  14.371  22.196  0.00  0.00    +0.000 A 
ATOM      6  C   UNL     1       7.950  13.173  22.149  0.00  0.00    +0.000 A 
ATOM      7  N   UNL     1       7.545  12.361  23.188  0.00  0.00    +0.000 NA
ATOM      8  C   UNL     1       6.656  13.071  23.886  0.00  0.00    +0.000 A 
ATOM      9  N   UNL     1       6.098  12.761  25.101  0.00  0.00    +0.000 N 
ATOM     10  C   UNL     1       5.627  13.770  26.049  0.00  0.00    +0.000 C 
ATOM     11  C   UNL     1       5.979  13.392  27.473  0.00  0.00    +0.000 C 
ATOM     12  C   UNL     1       5.396  12.033  27.818  0.00  0.00    +0.000 C 
ATOM     13  C   UNL     1       5.839  10.966  26.800  0.00  0.00    +0.000 C 
ATOM     14  C   UNL     1       5.563  11.410  25.334  0.00  0.00    +0.000 C 
ATOM     15  N   UNL     1       6.363  14.238  23.191  0.00  0.00    +0.000 N 
ATOM     16  C   UNL     1       8.918  12.969  21.077  0.00  0.00    +0.000 A 
ATOM     17  C   UNL     1       9.787  11.875  21.013  0.00  0.00    +0.000 A 
ATOM     18  C   UNL     1      10.724  11.763  19.964  0.00  0.00    +0.000 A 
ATOM     19  C   UNL     1      10.772  12.719  18.944  0.00  0.00    +0.000 A 
ATOM     20  C   UNL     1       9.878  13.807  18.994  0.00  0.00    +0.000 A 
ATOM     21  C   UNL     1       8.985  13.964  20.060  0.00  0.00    +0.000 A 
ENDROOT
BRANCH  13  22
ATOM     22  N   UNL     1       5.184   9.698  27.156  0.00  0.00    +0.000 NA
ATOM     23  H   UNL     1       5.889   8.976  27.302  0.00  0.00    +0.000 HD
ATOM     24  H   UNL     1       4.630   9.382  26.360  0.00  0.00    +0.000 HD
ENDBRANCH  13  22
BRANCH  19  25
ATOM     25  C   UNL     1      11.770  12.760  17.850  0.00  0.00    +0.000 C 
ATOM     26  O   UNL     1      12.220  13.806  17.402  0.00  0.00    +0.000 OA
BRANCH  25  27
ATOM     27  O   UNL     1      12.118  11.550  17.356  0.00  0.00    +0.000 OA
ATOM     28  H   UNL     1      13.033  11.492  17.028  0.00  0.00    +0.000 HD
ENDBRANCH  25  27
ENDBRANCH  19  25
BRANCH  15  29
ATOM     29  C   UNL     1       5.301  15.197  23.440  0.00  0.00    +0.000 C 
BRANCH  29  30
ATOM     30  C   UNL     1       4.185  15.279  22.428  0.00  0.00    +0.000 A 
ATOM     31  C   UNL     1       3.859  14.101  21.732  0.00  0.00    +0.000 A 
ATOM     32  C   UNL     1       3.054  14.148  20.601  0.00  0.00    +0.000 A 
ATOM     33  F   UNL     1       2.816  13.023  19.917  0.00  0.00    +0.000 F 
ATOM     34  C   UNL     1       2.545  15.353  20.144  0.00  0.00    +0.000 A 
ATOM     35  C   UNL     1       2.818  16.526  20.847  0.00  0.00    +0.000 A 
ATOM     36  C   UNL     1       3.634  16.494  21.983  0.00  0.00    +0.000 A 
ATOM     37 CL   UNL     1       3.998  18.008  22.724  0.00  0.00    +0.000 Cl
ENDBRANCH  29  30
ENDBRANCH  15  29
TORSDOF 5
ENDMDL
MODEL 8
REMARK VINA RESULT:      -6.8      8.481     10.278
REMARK  Name = 
REMARK  6 active torsions:
REMARK  status: ('A' for Active; 'I' for Inactive)
REMARK    1  A    between atoms: C_1  and  N_2
REMARK    2  A    between atoms: C_13  and  N_14
REMARK    3  A    between atoms: N_16  and  C_17
REMARK    4  A    between atoms: C_17  and  C_18
REMARK    5  A    between atoms: C_29  and  C_30
REMARK    6  A    between atoms: C_30  and  O_32
REMARK                            x       y       z     vdW  Elec       q    Type
REMARK                         _______ _______ _______ _____ _____    ______ ____
ROOT
ATOM      1  C   UNL     1       3.691  16.408  22.461  0.00  0.00    +0.000 C 
ATOM      2  N   UNL     1       4.543  16.187  21.308  0.00  0.00    +0.000 N 
ATOM      3  C   UNL     1       5.919  16.315  21.490  0.00  0.00    +0.000 A 
ATOM      4  O   UNL     1       6.419  16.799  22.501  0.00  0.00    +0.000 OA
ATOM      5  C   UNL     1       6.701  15.827  20.401  0.00  0.00    +0.000 A 
ATOM      6  C   UNL     1       6.245  15.554  19.141  0.00  0.00    +0.000 A 
ATOM      7  N   UNL     1       7.290  15.173  18.324  0.00  0.00    +0.000 NA
ATOM      8  C   UNL     1       8.389  15.234  19.078  0.00  0.00    +0.000 A 
ATOM      9  N   UNL     1       9.695  15.112  18.674  0.00  0.00    +0.000 N 
ATOM     10  C   UNL     1      10.814  15.742  19.374  0.00  0.00    +0.000 C 
ATOM     11  C   UNL     1      11.828  16.301  18.396  0.00  0.00    +0.000 C 
ATOM     12  C   UNL     1      12.333  15.204  17.475  0.00  0.00    +0.000 C 
ATOM     13  C   UNL     1      11.165  14.493  16.769  0.00  0.00    +0.000 C 
ATOM     14  C   UNL     1      10.080  14.012  17.776  0.00  0.00    +0.000 C 
ATOM     15  N   UNL     1       8.021  15.466  20.398  0.00  0.00    +0.000 N 
ATOM     16  C   UNL     1       4.818  15.711  18.884  0.00  0.00    +0.000 A 
ATOM     17  C   UNL     1       4.247  15.644  17.610  0.00  0.00    +0.000 A 
ATOM     18  C   UNL     1       2.860  15.843  17.433  0.00  0.00    +0.000 A 
ATOM     19  C   UNL     1       2.025  16.066  18.533  0.00  0.00    +0.000 A 
ATOM     20  C   UNL     1       2.597  16.106  19.820  0.00  0.00    +0.000 A 
ATOM     21  C   UNL     1       3.979  15.973  20.005  0.00  0.00    +0.000 A 
ENDROOT
BRANCH  13  22
ATOM     22  N   UNL     1      11.722  13.404  15.951  0.00  0.00    +0.000 NA
ATOM     23  H   UNL     1      11.194  12.547  16.115  0.00  0.00    +0.000 HD
ATOM     24  H   UNL     1      12.670  13.207  16.272  0.00  0.00    +0.000 HD
ENDBRANCH  13  22
BRANCH  19  25
ATOM     25  C   UNL     1       0.580  16.383  18.464  0.00  0.00    +0.000 C 
ATOM     26  O   UNL     1      -0.277  15.691  18.997  0.00  0.00    +0.000 OA
BRANCH  25  27
ATOM     27  O   UNL     1       0.275  17.478  17.731  0.00  0.00    +0.000 OA
ATOM     28  H   UNL     1       0.975  17.767  17.119  0.00  0.00    +0.000 HD
ENDBRANCH  25  27
ENDBRANCH  19  25
BRANCH  15  29
ATOM     29  C   UNL     1       8.841  15.386  21.593  0.00  0.00    +0.000 C 
BRANCH  29  30
ATOM     30  C   UNL     1       8.866  14.072  22.335  0.00  0.00    +0.000 A 
ATOM     31  C   UNL     1       9.082  12.907  21.574  0.00  0.00    +0.000 A 
ATOM     32  C   UNL     1       8.842  11.653  22.119  0.00  0.00    +0.000 A 
ATOM     33  F   UNL     1       8.988  10.565  21.354  0.00  0.00    +0.000 F 
ATOM     34  C   UNL     1       8.398  11.521  23.426  0.00  0.00    +0.000 A 
ATOM     35  C   UNL     1       8.222  12.660  24.210  0.00  0.00    +0.000 A 
ATOM     36  C   UNL     1       8.453  13.931  23.671  0.00  0.00    +0.000 A 
ATOM     37 CL   UNL     1       8.110  15.282  24.687  0.00  0.00    +0.000 Cl
ENDBRANCH  29  30
ENDBRANCH  15  29
TORSDOF 5
ENDMDL
MODEL 9
REMARK VINA RESULT:      -6.7      5.414      8.516
REMARK  Name = 
REMARK  6 active torsions:
REMARK  status: ('A' for Active; 'I' for Inactive)
REMARK    1  A    between atoms: C_1  and  N_2
REMARK    2  A    between atoms: C_13  and  N_14
REMARK    3  A    between atoms: N_16  and  C_17
REMARK    4  A    between atoms: C_17  and  C_18
REMARK    5  A    between atoms: C_29  and  C_30
REMARK    6  A    between atoms: C_30  and  O_32
REMARK                            x       y       z     vdW  Elec       q    Type
REMARK                         _______ _______ _______ _____ _____    ______ ____
ROOT
ATOM      1  C   UNL     1       4.247  13.868  18.218  0.00  0.00    +0.000 C 
ATOM      2  N   UNL     1       3.328  14.292  19.258  0.00  0.00    +0.000 N 
ATOM      3  C   UNL     1       2.017  13.826  19.187  0.00  0.00    +0.000 A 
ATOM      4  O   UNL     1       1.559  13.258  18.201  0.00  0.00    +0.000 OA
ATOM      5  C   UNL     1       1.250  14.058  20.368  0.00  0.00    +0.000 A 
ATOM      6  C   UNL     1       1.568  14.923  21.378  0.00  0.00    +0.000 A 
ATOM      7  N   UNL     1       0.563  14.948  22.324  0.00  0.00    +0.000 NA
ATOM      8  C   UNL     1      -0.381  14.115  21.882  0.00  0.00    +0.000 A 
ATOM      9  N   UNL     1      -1.644  13.930  22.385  0.00  0.00    +0.000 N 
ATOM     10  C   UNL     1      -2.776  13.488  21.572  0.00  0.00    +0.000 C 
ATOM     11  C   UNL     1      -4.043  14.231  21.945  0.00  0.00    +0.000 C 
ATOM     12  C   UNL     1      -4.349  14.042  23.421  0.00  0.00    +0.000 C 
ATOM     13  C   UNL     1      -3.149  14.453  24.292  0.00  0.00    +0.000 C 
ATOM     14  C   UNL     1      -1.832  13.759  23.835  0.00  0.00    +0.000 C 
ATOM     15  N   UNL     1       0.103  13.431  20.772  0.00  0.00    +0.000 N 
ATOM     16  C   UNL     1       2.836  15.638  21.288  0.00  0.00    +0.000 A 
ATOM     17  C   UNL     1       3.203  16.679  22.147  0.00  0.00    +0.000 A 
ATOM     18  C   UNL     1       4.432  17.351  21.977  0.00  0.00    +0.000 A 
ATOM     19  C   UNL     1       5.327  16.960  20.974  0.00  0.00    +0.000 A 
ATOM     20  C   UNL     1       4.968  15.894  20.126  0.00  0.00    +0.000 A 
ATOM     21  C   UNL     1       3.726  15.258  20.244  0.00  0.00    +0.000 A 
ENDROOT
BRANCH  13  22
ATOM     22  N   UNL     1      -3.491  14.179  25.697  0.00  0.00    +0.000 NA
ATOM     23  H   UNL     1      -2.638  14.102  26.250  0.00  0.00    +0.000 HD
ATOM     24  H   UNL     1      -3.935  13.263  25.752  0.00  0.00    +0.000 HD
ENDBRANCH  13  22
BRANCH  19  25
ATOM     25  C   UNL     1       6.595  17.648  20.638  0.00  0.00    +0.000 C 
ATOM     26  O   UNL     1       7.440  17.927  21.476  0.00  0.00    +0.000 OA
BRANCH  25  27
ATOM     27  O   UNL     1       6.729  17.982  19.334  0.00  0.00    +0.000 OA
ATOM     28  H   UNL     1       6.415  18.876  19.108  0.00  0.00    +0.000 HD
ENDBRANCH  25  27
ENDBRANCH  19  25
BRANCH  15  29
ATOM     29  C   UNL     1      -0.470  12.279  20.100  0.00  0.00    +0.000 C 
BRANCH  29  30
ATOM     30  C   UNL     1      -0.108  10.912  20.629  0.00  0.00    +0.000 A 
ATOM     31  C   UNL     1      -0.272  10.691  22.009  0.00  0.00    +0.000 A 
ATOM     32  C   UNL     1       0.293   9.579  22.619  0.00  0.00    +0.000 A 
ATOM     33  F   UNL     1       0.182   9.429  23.943  0.00  0.00    +0.000 F 
ATOM     34  C   UNL     1       1.018   8.658  21.879  0.00  0.00    +0.000 A 
ATOM     35  C   UNL     1       1.153   8.835  20.503  0.00  0.00    +0.000 A 
ATOM     36  C   UNL     1       0.596   9.955  19.877  0.00  0.00    +0.000 A 
ATOM     37 CL   UNL     1       0.903  10.138  18.189  0.00  0.00    +0.000 Cl
ENDBRANCH  29  30
ENDBRANCH  15  29
TORSDOF 5
ENDMDL
