MODEL 1
REMARK VINA RESULT:      -9.4      0.000      0.000
REMARK  Name = 
REMARK  5 active torsions:
REMARK  status: ('A' for Active; 'I' for Inactive)
REMARK    1  A    between atoms: C_2  and  C_3
REMARK    2  A    between atoms: C_3  and  C_4
REMARK    3  A    between atoms: C_7  and  C_8
REMARK    4  A    between atoms: N_16  and  C_17
REMARK    5  A    between atoms: C_20  and  C_21
REMARK                            x       y       z     vdW  Elec       q    Type
REMARK                         _______ _______ _______ _____ _____    ______ ____
ROOT
ATOM      1  C   UNL     1       1.885   7.932  19.984  0.00  0.00    +0.000 A 
ATOM      2  C   UNL     1       1.353   8.262  21.230  0.00  0.00    +0.000 A 
ATOM      3  C   UNL     1       0.516   9.368  21.387  0.00  0.00    +0.000 A 
ATOM      4  C   UNL     1       0.175  10.162  20.289  0.00  0.00    +0.000 A 
ATOM      5  C   UNL     1       0.719   9.848  19.037  0.00  0.00    +0.000 A 
ATOM      6  C   UNL     1       1.573   8.743  18.887  0.00  0.00    +0.000 A 
ENDROOT
BRANCH   4   7
ATOM      7  C   UNL     1      -0.685  11.392  20.463  0.00  0.00    +0.000 C 
ATOM      8  N   UNL     1      -1.275  11.505  21.610  0.00  0.00    +0.000 NA
ATOM      9  C   UNL     1      -2.234  12.484  21.880  0.00  0.00    +0.000 A 
ATOM     10  C   UNL     1      -2.975  12.329  23.033  0.00  0.00    +0.000 A 
ATOM     11  S   UNL     1      -4.077  13.604  23.284  0.00  0.00    +0.000 S 
ATOM     12  C   UNL     1      -3.547  14.391  21.864  0.00  0.00    +0.000 A 
ATOM     13  C   UNL     1      -2.535  13.707  21.215  0.00  0.00    +0.000 A 
ATOM     14  N   UNL     1      -1.921  14.286  20.125  0.00  0.00    +0.000 N 
ATOM     15  C   UNL     1      -0.909  13.749  19.404  0.00  0.00    +0.000 C 
ATOM     16  O   UNL     1      -0.166  14.494  18.762  0.00  0.00    +0.000 OA
ATOM     17  C   UNL     1      -0.844  12.266  19.251  0.00  0.00    +0.000 C 
ATOM     18  H   UNL     1      -2.062  15.278  19.981  0.00  0.00    +0.000 HD
ENDBRANCH   4   7
BRANCH   1  21
ATOM     19  O   UNL     1       1.361   5.056  20.307  0.00  0.00    +0.000 OA
ATOM     20  C   UNL     1       2.473   5.513  20.048  0.00  0.00    +0.000 C 
ATOM     21  N   UNL     1       2.766   6.845  19.798  0.00  0.00    +0.000 N 
ATOM     22  H   UNL     1       3.666   7.052  19.377  0.00  0.00    +0.000 HD
BRANCH  20  23
ATOM     23  C   UNL     1       3.675   4.594  19.968  0.00  0.00    +0.000 C 
BRANCH  23  24
ATOM     24  C   UNL     1       4.338   4.526  18.616  0.00  0.00    +0.000 A 
ATOM     25  C   UNL     1       3.616   4.016  17.530  0.00  0.00    +0.000 A 
ATOM     26  C   UNL     1       4.183   3.972  16.253  0.00  0.00    +0.000 A 
ATOM     27  C   UNL     1       5.475   4.463  16.002  0.00  0.00    +0.000 A 
ATOM     28  C   UNL     1       6.171   5.011  17.093  0.00  0.00    +0.000 A 
ATOM     29  C   UNL     1       5.613   5.045  18.378  0.00  0.00    +0.000 A 
BRANCH  27  30
ATOM     30  C   UNL     1       6.075   4.407  14.645  0.00  0.00    +0.000 A 
ATOM     31  C   UNL     1       7.233   5.135  14.320  0.00  0.00    +0.000 A 
ATOM     32  C   UNL     1       7.782   5.101  13.033  0.00  0.00    +0.000 A 
ATOM     33  C   UNL     1       7.194   4.318  12.045  0.00  0.00    +0.000 A 
ATOM     34  C   UNL     1       6.058   3.575  12.342  0.00  0.00    +0.000 A 
ATOM     35  C   UNL     1       5.503   3.622  13.623  0.00  0.00    +0.000 A 
ENDBRANCH  27  30
ENDBRANCH  23  24
ENDBRANCH  20  23
ENDBRANCH   1  21
TORSDOF 5
ENDMDL
MODEL 2
REMARK VINA RESULT:      -9.4      0.171      1.194
REMARK  Name = 
REMARK  5 active torsions:
REMARK  status: ('A' for Active; 'I' for Inactive)
REMARK    1  A    between atoms: C_2  and  C_3
REMARK    2  A    between atoms: C_3  and  C_4
REMARK    3  A    between atoms: C_7  and  C_8
REMARK    4  A    between atoms: N_16  and  C_17
REMARK    5  A    between atoms: C_20  and  C_21
REMARK                            x       y       z     vdW  Elec       q    Type
REMARK                         _______ _______ _______ _____ _____    ______ ____
ROOT
ATOM      1  C   UNL     1       1.850   7.870  19.956  0.00  0.00    +0.000 A 
ATOM      2  C   UNL     1       1.338   8.158  21.221  0.00  0.00    +0.000 A 
ATOM      3  C   UNL     1       0.498   9.254  21.426  0.00  0.00    +0.000 A 
ATOM      4  C   UNL     1       0.136  10.081  20.360  0.00  0.00    +0.000 A 
ATOM      5  C   UNL     1       0.660   9.809  19.090  0.00  0.00    +0.000 A 
ATOM      6  C   UNL     1       1.517   8.714  18.891  0.00  0.00    +0.000 A 
ENDROOT
BRANCH   4   7
ATOM      7  C   UNL     1      -0.726  11.301  20.587  0.00  0.00    +0.000 C 
ATOM      8  N   UNL     1      -1.249  11.405  21.767  0.00  0.00    +0.000 NA
ATOM      9  C   UNL     1      -2.202  12.372  22.094  0.00  0.00    +0.000 A 
ATOM     10  C   UNL     1      -2.873  12.207  23.288  0.00  0.00    +0.000 A 
ATOM     11  S   UNL     1      -3.973  13.469  23.606  0.00  0.00    +0.000 S 
ATOM     12  C   UNL     1      -3.536  14.264  22.159  0.00  0.00    +0.000 A 
ATOM     13  C   UNL     1      -2.556  13.592  21.451  0.00  0.00    +0.000 A 
ATOM     14  N   UNL     1      -2.013  14.180  20.328  0.00  0.00    +0.000 N 
ATOM     15  C   UNL     1      -1.039  13.656  19.548  0.00  0.00    +0.000 C 
ATOM     16  O   UNL     1      -0.344  14.411  18.865  0.00  0.00    +0.000 OA
ATOM     17  C   UNL     1      -0.966  12.174  19.387  0.00  0.00    +0.000 C 
ATOM     18  H   UNL     1      -2.174  15.171  20.195  0.00  0.00    +0.000 HD
ENDBRANCH   4   7
BRANCH   1  21
ATOM     19  O   UNL     1       1.455   5.007  20.503  0.00  0.00    +0.000 OA
ATOM     20  C   UNL     1       2.513   5.473  20.081  0.00  0.00    +0.000 C 
ATOM     21  N   UNL     1       2.733   6.794  19.722  0.00  0.00    +0.000 N 
ATOM     22  H   UNL     1       3.567   6.995  19.180  0.00  0.00    +0.000 HD
BRANCH  20  23
ATOM     23  C   UNL     1       3.722   4.577  19.902  0.00  0.00    +0.000 C 
BRANCH  23  24
ATOM     24  C   UNL     1       4.292   4.547  18.507  0.00  0.00    +0.000 A 
ATOM     25  C   UNL     1       5.596   5.011  18.296  0.00  0.00    +0.000 A 
ATOM     26  C   UNL     1       6.174   4.964  17.023  0.00  0.00    +0.000 A 
ATOM     27  C   UNL     1       5.488   4.426  15.921  0.00  0.00    +0.000 A 
ATOM     28  C   UNL     1       4.197   3.926  16.158  0.00  0.00    +0.000 A 
ATOM     29  C   UNL     1       3.608   3.983  17.428  0.00  0.00    +0.000 A 
BRANCH  27  30
ATOM     30  C   UNL     1       6.103   4.386  14.571  0.00  0.00    +0.000 A 
ATOM     31  C   UNL     1       5.585   3.572  13.548  0.00  0.00    +0.000 A 
ATOM     32  C   UNL     1       6.182   3.517  12.283  0.00  0.00    +0.000 A 
ATOM     33  C   UNL     1       7.302   4.293  12.006  0.00  0.00    +0.000 A 
ATOM     34  C   UNL     1       7.827   5.119  12.993  0.00  0.00    +0.000 A 
ATOM     35  C   UNL     1       7.238   5.162  14.259  0.00  0.00    +0.000 A 
ENDBRANCH  27  30
ENDBRANCH  23  24
ENDBRANCH  20  23
ENDBRANCH   1  21
TORSDOF 5
ENDMDL
MODEL 3
REMARK VINA RESULT:      -9.3      0.568      1.311
REMARK  Name = 
REMARK  5 active torsions:
REMARK  status: ('A' for Active; 'I' for Inactive)
REMARK    1  A    between atoms: C_2  and  C_3
REMARK    2  A    between atoms: C_3  and  C_4
REMARK    3  A    between atoms: C_7  and  C_8
REMARK    4  A    between atoms: N_16  and  C_17
REMARK    5  A    between atoms: C_20  and  C_21
REMARK                            x       y       z     vdW  Elec       q    Type
REMARK                         _______ _______ _______ _____ _____    ______ ____
ROOT
ATOM      1  C   UNL     1       2.199   7.460  19.617  0.00  0.00    +0.000 A 
ATOM      2  C   UNL     1       1.944   8.365  18.587  0.00  0.00    +0.000 A 
ATOM      3  C   UNL     1       1.139   9.486  18.795  0.00  0.00    +0.000 A 
ATOM      4  C   UNL     1       0.583   9.738  20.051  0.00  0.00    +0.000 A 
ATOM      5  C   UNL     1       0.820   8.825  21.087  0.00  0.00    +0.000 A 
ATOM      6  C   UNL     1       1.618   7.690  20.868  0.00  0.00    +0.000 A 
ENDROOT
BRANCH   4   7
ATOM      7  C   UNL     1      -0.335  10.919  20.267  0.00  0.00    +0.000 C 
ATOM      8  N   UNL     1      -0.760  11.084  21.479  0.00  0.00    +0.000 NA
ATOM      9  C   UNL     1      -1.742  12.016  21.821  0.00  0.00    +0.000 A 
ATOM     10  C   UNL     1      -2.295  11.905  23.080  0.00  0.00    +0.000 A 
ATOM     11  S   UNL     1      -3.444  13.121  23.405  0.00  0.00    +0.000 S 
ATOM     12  C   UNL     1      -3.186  13.825  21.870  0.00  0.00    +0.000 A 
ATOM     13  C   UNL     1      -2.229  13.159  21.126  0.00  0.00    +0.000 A 
ATOM     14  N   UNL     1      -1.825  13.689  19.919  0.00  0.00    +0.000 N 
ATOM     15  C   UNL     1      -0.889  13.164  19.094  0.00  0.00    +0.000 C 
ATOM     16  O   UNL     1      -0.307  13.903  18.297  0.00  0.00    +0.000 OA
ATOM     17  C   UNL     1      -0.734  11.681  19.035  0.00  0.00    +0.000 C 
ATOM     18  H   UNL     1      -2.061  14.655  19.730  0.00  0.00    +0.000 HD
ENDBRANCH   4   7
BRANCH   1  21
ATOM     19  O   UNL     1       1.756   4.757  20.687  0.00  0.00    +0.000 OA
ATOM     20  C   UNL     1       2.750   5.068  20.033  0.00  0.00    +0.000 C 
ATOM     21  N   UNL     1       2.975   6.296  19.429  0.00  0.00    +0.000 N 
ATOM     22  H   UNL     1       3.715   6.345  18.737  0.00  0.00    +0.000 HD
BRANCH  20  23
ATOM     23  C   UNL     1       3.866   4.064  19.818  0.00  0.00    +0.000 C 
BRANCH  23  24
ATOM     24  C   UNL     1       4.515   4.115  18.459  0.00  0.00    +0.000 A 
ATOM     25  C   UNL     1       3.831   3.585  17.358  0.00  0.00    +0.000 A 
ATOM     26  C   UNL     1       4.384   3.647  16.076  0.00  0.00    +0.000 A 
ATOM     27  C   UNL     1       5.623   4.265  15.835  0.00  0.00    +0.000 A 
ATOM     28  C   UNL     1       6.278   4.829  16.943  0.00  0.00    +0.000 A 
ATOM     29  C   UNL     1       5.734   4.758  18.233  0.00  0.00    +0.000 A 
BRANCH  27  30
ATOM     30  C   UNL     1       6.208   4.321  14.473  0.00  0.00    +0.000 A 
ATOM     31  C   UNL     1       5.682   3.563  13.412  0.00  0.00    +0.000 A 
ATOM     32  C   UNL     1       6.251   3.597  12.134  0.00  0.00    +0.000 A 
ATOM     33  C   UNL     1       7.352   4.410  11.883  0.00  0.00    +0.000 A 
ATOM     34  C   UNL     1       7.884   5.182  12.908  0.00  0.00    +0.000 A 
ATOM     35  C   UNL     1       7.323   5.135  14.187  0.00  0.00    +0.000 A 
ENDBRANCH  27  30
ENDBRANCH  23  24
ENDBRANCH  20  23
ENDBRANCH   1  21
TORSDOF 5
ENDMDL
MODEL 4
REMARK VINA RESULT:      -9.3      1.934      2.541
REMARK  Name = 
REMARK  5 active torsions:
REMARK  status: ('A' for Active; 'I' for Inactive)
REMARK    1  A    between atoms: C_2  and  C_3
REMARK    2  A    between atoms: C_3  and  C_4
REMARK    3  A    between atoms: C_7  and  C_8
REMARK    4  A    between atoms: N_16  and  C_17
REMARK    5  A    between atoms: C_20  and  C_21
REMARK                            x       y       z     vdW  Elec       q    Type
REMARK                         _______ _______ _______ _____ _____    ______ ____
ROOT
ATOM      1  C   UNL     1       2.248   7.566  19.160  0.00  0.00    +0.000 A 
ATOM      2  C   UNL     1       1.693   8.031  20.352  0.00  0.00    +0.000 A 
ATOM      3  C   UNL     1       1.063   9.275  20.418  0.00  0.00    +0.000 A 
ATOM      4  C   UNL     1       0.958  10.078  19.280  0.00  0.00    +0.000 A 
ATOM      5  C   UNL     1       1.528   9.627  18.082  0.00  0.00    +0.000 A 
ATOM      6  C   UNL     1       2.174   8.382  18.025  0.00  0.00    +0.000 A 
ENDROOT
BRANCH   4   7
ATOM      7  C   UNL     1       0.327  11.449  19.358  0.00  0.00    +0.000 C 
ATOM      8  N   UNL     1       1.039  12.421  18.885  0.00  0.00    +0.000 NA
ATOM      9  C   UNL     1       0.685  13.764  19.030  0.00  0.00    +0.000 A 
ATOM     10  C   UNL     1       1.652  14.700  18.725  0.00  0.00    +0.000 A 
ATOM     11  S   UNL     1       1.095  16.302  18.891  0.00  0.00    +0.000 S 
ATOM     12  C   UNL     1      -0.458  15.753  19.344  0.00  0.00    +0.000 A 
ATOM     13  C   UNL     1      -0.561  14.374  19.352  0.00  0.00    +0.000 A 
ATOM     14  N   UNL     1      -1.790  13.791  19.574  0.00  0.00    +0.000 N 
ATOM     15  C   UNL     1      -2.049  12.462  19.592  0.00  0.00    +0.000 C 
ATOM     16  O   UNL     1      -3.195  12.069  19.365  0.00  0.00    +0.000 OA
ATOM     17  C   UNL     1      -0.990  11.531  20.079  0.00  0.00    +0.000 C 
ATOM     18  H   UNL     1      -2.610  14.380  19.487  0.00  0.00    +0.000 HD
ENDBRANCH   4   7
BRANCH   1  21
ATOM     19  O   UNL     1       2.044   5.215  20.914  0.00  0.00    +0.000 OA
ATOM     20  C   UNL     1       2.842   5.292  19.982  0.00  0.00    +0.000 C 
ATOM     21  N   UNL     1       2.928   6.332  19.069  0.00  0.00    +0.000 N 
ATOM     22  H   UNL     1       3.466   6.167  18.225  0.00  0.00    +0.000 HD
BRANCH  20  23
ATOM     23  C   UNL     1       3.846   4.181  19.744  0.00  0.00    +0.000 C 
BRANCH  23  24
ATOM     24  C   UNL     1       4.505   4.197  18.388  0.00  0.00    +0.000 A 
ATOM     25  C   UNL     1       3.792   3.723  17.280  0.00  0.00    +0.000 A 
ATOM     26  C   UNL     1       4.355   3.757  16.001  0.00  0.00    +0.000 A 
ATOM     27  C   UNL     1       5.633   4.291  15.771  0.00  0.00    +0.000 A 
ATOM     28  C   UNL     1       6.319   4.803  16.886  0.00  0.00    +0.000 A 
ATOM     29  C   UNL     1       5.765   4.759  18.173  0.00  0.00    +0.000 A 
BRANCH  27  30
ATOM     30  C   UNL     1       6.229   4.317  14.412  0.00  0.00    +0.000 A 
ATOM     31  C   UNL     1       5.718   3.525  13.368  0.00  0.00    +0.000 A 
ATOM     32  C   UNL     1       6.297   3.531  12.093  0.00  0.00    +0.000 A 
ATOM     33  C   UNL     1       7.390   4.348  11.828  0.00  0.00    +0.000 A 
ATOM     34  C   UNL     1       7.907   5.154  12.836  0.00  0.00    +0.000 A 
ATOM     35  C   UNL     1       7.337   5.135  14.112  0.00  0.00    +0.000 A 
ENDBRANCH  27  30
ENDBRANCH  23  24
ENDBRANCH  20  23
ENDBRANCH   1  21
TORSDOF 5
ENDMDL
MODEL 5
REMARK VINA RESULT:      -9.2      1.472      1.798
REMARK  Name = 
REMARK  5 active torsions:
REMARK  status: ('A' for Active; 'I' for Inactive)
REMARK    1  A    between atoms: C_2  and  C_3
REMARK    2  A    between atoms: C_3  and  C_4
REMARK    3  A    between atoms: C_7  and  C_8
REMARK    4  A    between atoms: N_16  and  C_17
REMARK    5  A    between atoms: C_20  and  C_21
REMARK                            x       y       z     vdW  Elec       q    Type
REMARK                         _______ _______ _______ _____ _____    ______ ____
ROOT
ATOM      1  C   UNL     1       2.392   7.389  19.290  0.00  0.00    +0.000 A 
ATOM      2  C   UNL     1       2.134   8.237  18.213  0.00  0.00    +0.000 A 
ATOM      3  C   UNL     1       1.325   9.364  18.361  0.00  0.00    +0.000 A 
ATOM      4  C   UNL     1       0.766   9.680  19.602  0.00  0.00    +0.000 A 
ATOM      5  C   UNL     1       1.005   8.824  20.684  0.00  0.00    +0.000 A 
ATOM      6  C   UNL     1       1.808   7.682  20.527  0.00  0.00    +0.000 A 
ENDROOT
BRANCH   4   7
ATOM      7  C   UNL     1      -0.156  10.867  19.754  0.00  0.00    +0.000 C 
ATOM      8  N   UNL     1       0.332  11.876  20.404  0.00  0.00    +0.000 NA
ATOM      9  C   UNL     1      -0.434  12.980  20.782  0.00  0.00    +0.000 A 
ATOM     10  C   UNL     1       0.130  13.848  21.694  0.00  0.00    +0.000 A 
ATOM     11  S   UNL     1      -0.872  15.181  22.043  0.00  0.00    +0.000 S 
ATOM     12  C   UNL     1      -2.059  14.622  20.949  0.00  0.00    +0.000 A 
ATOM     13  C   UNL     1      -1.695  13.449  20.313  0.00  0.00    +0.000 A 
ATOM     14  N   UNL     1      -2.497  12.949  19.310  0.00  0.00    +0.000 N 
ATOM     15  C   UNL     1      -2.263  11.828  18.587  0.00  0.00    +0.000 C 
ATOM     16  O   UNL     1      -2.776  11.713  17.472  0.00  0.00    +0.000 OA
ATOM     17  C   UNL     1      -1.557  10.687  19.240  0.00  0.00    +0.000 C 
ATOM     18  H   UNL     1      -3.191  13.571  18.912  0.00  0.00    +0.000 HD
ENDBRANCH   4   7
BRANCH   1  21
ATOM     19  O   UNL     1       2.219   4.885  20.822  0.00  0.00    +0.000 OA
ATOM     20  C   UNL     1       3.088   5.100  19.980  0.00  0.00    +0.000 C 
ATOM     21  N   UNL     1       3.172   6.219  19.165  0.00  0.00    +0.000 N 
ATOM     22  H   UNL     1       3.794   6.167  18.366  0.00  0.00    +0.000 HD
BRANCH  20  23
ATOM     23  C   UNL     1       4.194   4.088  19.749  0.00  0.00    +0.000 C 
BRANCH  23  24
ATOM     24  C   UNL     1       4.806   4.116  18.372  0.00  0.00    +0.000 A 
ATOM     25  C   UNL     1       4.015   3.769  17.270  0.00  0.00    +0.000 A 
ATOM     26  C   UNL     1       4.536   3.819  15.973  0.00  0.00    +0.000 A 
ATOM     27  C   UNL     1       5.851   4.244  15.722  0.00  0.00    +0.000 A 
ATOM     28  C   UNL     1       6.618   4.629  16.834  0.00  0.00    +0.000 A 
ATOM     29  C   UNL     1       6.106   4.568  18.137  0.00  0.00    +0.000 A 
BRANCH  27  30
ATOM     30  C   UNL     1       6.401   4.287  14.344  0.00  0.00    +0.000 A 
ATOM     31  C   UNL     1       7.428   5.178  13.987  0.00  0.00    +0.000 A 
ATOM     32  C   UNL     1       7.928   5.234  12.681  0.00  0.00    +0.000 A 
ATOM     33  C   UNL     1       7.422   4.384  11.704  0.00  0.00    +0.000 A 
ATOM     34  C   UNL     1       6.417   3.481  12.031  0.00  0.00    +0.000 A 
ATOM     35  C   UNL     1       5.910   3.436  13.332  0.00  0.00    +0.000 A 
ENDBRANCH  27  30
ENDBRANCH  23  24
ENDBRANCH  20  23
ENDBRANCH   1  21
TORSDOF 5
ENDMDL
MODEL 6
REMARK VINA RESULT:      -9.2      0.275      1.204
REMARK  Name = 
REMARK  5 active torsions:
REMARK  status: ('A' for Active; 'I' for Inactive)
REMARK    1  A    between atoms: C_2  and  C_3
REMARK    2  A    between atoms: C_3  and  C_4
REMARK    3  A    between atoms: C_7  and  C_8
REMARK    4  A    between atoms: N_16  and  C_17
REMARK    5  A    between atoms: C_20  and  C_21
REMARK                            x       y       z     vdW  Elec       q    Type
REMARK                         _______ _______ _______ _____ _____    ______ ____
ROOT
ATOM      1  C   UNL     1       1.874   8.020  19.908  0.00  0.00    +0.000 A 
ATOM      2  C   UNL     1       1.549   8.909  18.885  0.00  0.00    +0.000 A 
ATOM      3  C   UNL     1       0.721  10.009  19.121  0.00  0.00    +0.000 A 
ATOM      4  C   UNL     1       0.214  10.254  20.399  0.00  0.00    +0.000 A 
ATOM      5  C   UNL     1       0.522   9.356  21.429  0.00  0.00    +0.000 A 
ATOM      6  C   UNL     1       1.342   8.243  21.183  0.00  0.00    +0.000 A 
ENDROOT
BRANCH   4   7
ATOM      7  C   UNL     1      -0.726  11.410  20.648  0.00  0.00    +0.000 C 
ATOM      8  N   UNL     1      -1.251  11.461  21.830  0.00  0.00    +0.000 NA
ATOM      9  C   UNL     1      -2.265  12.358  22.175  0.00  0.00    +0.000 A 
ATOM     10  C   UNL     1      -2.919  12.130  23.368  0.00  0.00    +0.000 A 
ATOM     11  S   UNL     1      -4.099  13.312  23.709  0.00  0.00    +0.000 S 
ATOM     12  C   UNL     1      -3.720  14.156  22.274  0.00  0.00    +0.000 A 
ATOM     13  C   UNL     1      -2.700  13.562  21.552  0.00  0.00    +0.000 A 
ATOM     14  N   UNL     1      -2.201  14.202  20.438  0.00  0.00    +0.000 N 
ATOM     15  C   UNL     1      -1.197  13.756  19.648  0.00  0.00    +0.000 C 
ATOM     16  O   UNL     1      -0.556  14.566  18.975  0.00  0.00    +0.000 OA
ATOM     17  C   UNL     1      -1.027  12.285  19.463  0.00  0.00    +0.000 C 
ATOM     18  H   UNL     1      -2.428  15.182  20.321  0.00  0.00    +0.000 HD
ENDBRANCH   4   7
BRANCH   1  21
ATOM     19  O   UNL     1       1.277   5.208  20.532  0.00  0.00    +0.000 OA
ATOM     20  C   UNL     1       2.361   5.584  20.089  0.00  0.00    +0.000 C 
ATOM     21  N   UNL     1       2.674   6.876  19.694  0.00  0.00    +0.000 N 
ATOM     22  H   UNL     1       3.514   7.002  19.140  0.00  0.00    +0.000 HD
BRANCH  20  23
ATOM     23  C   UNL     1       3.499   4.598  19.922  0.00  0.00    +0.000 C 
BRANCH  23  24
ATOM     24  C   UNL     1       4.095   4.540  18.539  0.00  0.00    +0.000 A 
ATOM     25  C   UNL     1       5.273   5.250  18.276  0.00  0.00    +0.000 A 
ATOM     26  C   UNL     1       5.877   5.190  17.017  0.00  0.00    +0.000 A 
ATOM     27  C   UNL     1       5.350   4.399  15.982  0.00  0.00    +0.000 A 
ATOM     28  C   UNL     1       4.191   3.660  16.274  0.00  0.00    +0.000 A 
ATOM     29  C   UNL     1       3.574   3.726  17.531  0.00  0.00    +0.000 A 
BRANCH  27  30
ATOM     30  C   UNL     1       5.991   4.347  14.644  0.00  0.00    +0.000 A 
ATOM     31  C   UNL     1       7.164   5.068  14.360  0.00  0.00    +0.000 A 
ATOM     32  C   UNL     1       7.753   5.037  13.091  0.00  0.00    +0.000 A 
ATOM     33  C   UNL     1       7.190   4.266  12.080  0.00  0.00    +0.000 A 
ATOM     34  C   UNL     1       6.040   3.529  12.336  0.00  0.00    +0.000 A 
ATOM     35  C   UNL     1       5.445   3.573  13.600  0.00  0.00    +0.000 A 
ENDBRANCH  27  30
ENDBRANCH  23  24
ENDBRANCH  20  23
ENDBRANCH   1  21
TORSDOF 5
ENDMDL
MODEL 7
REMARK VINA RESULT:      -9.1      1.885      2.494
REMARK  Name = 
REMARK  5 active torsions:
REMARK  status: ('A' for Active; 'I' for Inactive)
REMARK    1  A    between atoms: C_2  and  C_3
REMARK    2  A    between atoms: C_3  and  C_4
REMARK    3  A    between atoms: C_7  and  C_8
REMARK    4  A    between atoms: N_16  and  C_17
REMARK    5  A    between atoms: C_20  and  C_21
REMARK                            x       y       z     vdW  Elec       q    Type
REMARK                         _______ _______ _______ _____ _____    ______ ____
ROOT
ATOM      1  C   UNL     1       2.117   7.682  19.163  0.00  0.00    +0.000 A 
ATOM      2  C   UNL     1       1.607   8.144  20.377  0.00  0.00    +0.000 A 
ATOM      3  C   UNL     1       0.980   9.388  20.468  0.00  0.00    +0.000 A 
ATOM      4  C   UNL     1       0.832  10.194  19.337  0.00  0.00    +0.000 A 
ATOM      5  C   UNL     1       1.357   9.745  18.118  0.00  0.00    +0.000 A 
ATOM      6  C   UNL     1       2.000   8.500  18.034  0.00  0.00    +0.000 A 
ENDROOT
BRANCH   4   7
ATOM      7  C   UNL     1       0.205  11.565  19.442  0.00  0.00    +0.000 C 
ATOM      8  N   UNL     1       0.904  12.539  18.954  0.00  0.00    +0.000 NA
ATOM      9  C   UNL     1       0.556  13.882  19.118  0.00  0.00    +0.000 A 
ATOM     10  C   UNL     1       1.514  14.819  18.791  0.00  0.00    +0.000 A 
ATOM     11  S   UNL     1       0.964  16.420  18.982  0.00  0.00    +0.000 S 
ATOM     12  C   UNL     1      -0.576  15.870  19.476  0.00  0.00    +0.000 A 
ATOM     13  C   UNL     1      -0.680  14.491  19.479  0.00  0.00    +0.000 A 
ATOM     14  N   UNL     1      -1.903  13.907  19.732  0.00  0.00    +0.000 N 
ATOM     15  C   UNL     1      -2.162  12.579  19.750  0.00  0.00    +0.000 C 
ATOM     16  O   UNL     1      -3.314  12.188  19.554  0.00  0.00    +0.000 OA
ATOM     17  C   UNL     1      -1.090  11.644  20.201  0.00  0.00    +0.000 C 
ATOM     18  H   UNL     1      -2.724  14.497  19.673  0.00  0.00    +0.000 HD
ENDBRANCH   4   7
BRANCH   1  21
ATOM     19  O   UNL     1       1.993   5.335  20.930  0.00  0.00    +0.000 OA
ATOM     20  C   UNL     1       2.749   5.410  19.963  0.00  0.00    +0.000 C 
ATOM     21  N   UNL     1       2.792   6.448  19.044  0.00  0.00    +0.000 N 
ATOM     22  H   UNL     1       3.291   6.281  18.178  0.00  0.00    +0.000 HD
BRANCH  20  23
ATOM     23  C   UNL     1       3.741   4.299  19.682  0.00  0.00    +0.000 C 
BRANCH  23  24
ATOM     24  C   UNL     1       4.328   4.305  18.294  0.00  0.00    +0.000 A 
ATOM     25  C   UNL     1       5.622   4.808  18.105  0.00  0.00    +0.000 A 
ATOM     26  C   UNL     1       6.215   4.796  16.839  0.00  0.00    +0.000 A 
ATOM     27  C   UNL     1       5.558   4.256  15.721  0.00  0.00    +0.000 A 
ATOM     28  C   UNL     1       4.278   3.717  15.935  0.00  0.00    +0.000 A 
ATOM     29  C   UNL     1       3.673   3.739  17.198  0.00  0.00    +0.000 A 
BRANCH  27  30
ATOM     30  C   UNL     1       6.191   4.253  14.379  0.00  0.00    +0.000 A 
ATOM     31  C   UNL     1       7.284   5.083  14.077  0.00  0.00    +0.000 A 
ATOM     32  C   UNL     1       7.863   5.098  12.802  0.00  0.00    +0.000 A 
ATOM     33  C   UNL     1       7.372   4.264  11.804  0.00  0.00    +0.000 A 
ATOM     34  C   UNL     1       6.302   3.420  12.078  0.00  0.00    +0.000 A 
ATOM     35  C   UNL     1       5.716   3.417  13.347  0.00  0.00    +0.000 A 
ENDBRANCH  27  30
ENDBRANCH  23  24
ENDBRANCH  20  23
ENDBRANCH   1  21
TORSDOF 5
ENDMDL
MODEL 8
REMARK VINA RESULT:      -9.1      1.924      2.508
REMARK  Name = 
REMARK  5 active torsions:
REMARK  status: ('A' for Active; 'I' for Inactive)
REMARK    1  A    between atoms: C_2  and  C_3
REMARK    2  A    between atoms: C_3  and  C_4
REMARK    3  A    between atoms: C_7  and  C_8
REMARK    4  A    between atoms: N_16  and  C_17
REMARK    5  A    between atoms: C_20  and  C_21
REMARK                            x       y       z     vdW  Elec       q    Type
REMARK                         _______ _______ _______ _____ _____    ______ ____
ROOT
ATOM      1  C   UNL     1       1.271   8.681  21.002  0.00  0.00    +0.000 A 
ATOM      2  C   UNL     1       0.655   8.804  22.247  0.00  0.00    +0.000 A 
ATOM      3  C   UNL     1      -0.185   9.882  22.533  0.00  0.00    +0.000 A 
ATOM      4  C   UNL     1      -0.442  10.858  21.566  0.00  0.00    +0.000 A 
ATOM      5  C   UNL     1       0.187  10.751  20.319  0.00  0.00    +0.000 A 
ATOM      6  C   UNL     1       1.043   9.673  20.042  0.00  0.00    +0.000 A 
ENDROOT
BRANCH   4   7
ATOM      7  C   UNL     1      -1.304  12.056  21.889  0.00  0.00    +0.000 C 
ATOM      8  N   UNL     1      -1.307  12.999  21.002  0.00  0.00    +0.000 NA
ATOM      9  C   UNL     1      -1.909  14.241  21.214  0.00  0.00    +0.000 A 
ATOM     10  C   UNL     1      -1.610  15.241  20.312  0.00  0.00    +0.000 A 
ATOM     11  S   UNL     1      -2.437  16.695  20.640  0.00  0.00    +0.000 S 
ATOM     12  C   UNL     1      -3.228  15.985  21.977  0.00  0.00    +0.000 A 
ATOM     13  C   UNL     1      -2.885  14.658  22.164  0.00  0.00    +0.000 A 
ATOM     14  N   UNL     1      -3.541  13.921  23.127  0.00  0.00    +0.000 N 
ATOM     15  C   UNL     1      -3.328  12.615  23.411  0.00  0.00    +0.000 C 
ATOM     16  O   UNL     1      -4.225  11.963  23.950  0.00  0.00    +0.000 OA
ATOM     17  C   UNL     1      -1.954  12.057  23.244  0.00  0.00    +0.000 C 
ATOM     18  H   UNL     1      -4.404  14.299  23.498  0.00  0.00    +0.000 HD
ENDBRANCH   4   7
BRANCH   1  21
ATOM     19  O   UNL     1       1.905   7.511  18.380  0.00  0.00    +0.000 OA
ATOM     20  C   UNL     1       2.347   7.069  19.439  0.00  0.00    +0.000 C 
ATOM     21  N   UNL     1       2.157   7.626  20.695  0.00  0.00    +0.000 N 
ATOM     22  H   UNL     1       2.758   7.300  21.444  0.00  0.00    +0.000 HD
BRANCH  20  23
ATOM     23  C   UNL     1       3.193   5.812  19.447  0.00  0.00    +0.000 C 
BRANCH  23  24
ATOM     24  C   UNL     1       3.858   5.482  18.134  0.00  0.00    +0.000 A 
ATOM     25  C   UNL     1       4.683   6.439  17.531  0.00  0.00    +0.000 A 
ATOM     26  C   UNL     1       5.347   6.157  16.333  0.00  0.00    +0.000 A 
ATOM     27  C   UNL     1       5.239   4.904  15.708  0.00  0.00    +0.000 A 
ATOM     28  C   UNL     1       4.441   3.940  16.347  0.00  0.00    +0.000 A 
ATOM     29  C   UNL     1       3.763   4.222  17.540  0.00  0.00    +0.000 A 
BRANCH  27  30
ATOM     30  C   UNL     1       5.940   4.613  14.432  0.00  0.00    +0.000 A 
ATOM     31  C   UNL     1       7.148   5.248  14.093  0.00  0.00    +0.000 A 
ATOM     32  C   UNL     1       7.794   4.991  12.878  0.00  0.00    +0.000 A 
ATOM     33  C   UNL     1       7.254   4.076  11.981  0.00  0.00    +0.000 A 
ATOM     34  C   UNL     1       6.069   3.421  12.296  0.00  0.00    +0.000 A 
ATOM     35  C   UNL     1       5.418   3.690  13.503  0.00  0.00    +0.000 A 
ENDBRANCH  27  30
ENDBRANCH  23  24
ENDBRANCH  20  23
ENDBRANCH   1  21
TORSDOF 5
ENDMDL
MODEL 9
REMARK VINA RESULT:      -9.0      1.653      2.253
REMARK  Name = 
REMARK  5 active torsions:
REMARK  status: ('A' for Active; 'I' for Inactive)
REMARK    1  A    between atoms: C_2  and  C_3
REMARK    2  A    between atoms: C_3  and  C_4
REMARK    3  A    between atoms: C_7  and  C_8
REMARK    4  A    between atoms: N_16  and  C_17
REMARK    5  A    between atoms: C_20  and  C_21
REMARK                            x       y       z     vdW  Elec       q    Type
REMARK                         _______ _______ _______ _____ _____    ______ ____
ROOT
ATOM      1  C   UNL     1       1.868   7.717  20.206  0.00  0.00    +0.000 A 
ATOM      2  C   UNL     1       1.346   8.035  21.459  0.00  0.00    +0.000 A 
ATOM      3  C   UNL     1       0.661   9.233  21.673  0.00  0.00    +0.000 A 
ATOM      4  C   UNL     1       0.467  10.136  20.625  0.00  0.00    +0.000 A 
ATOM      5  C   UNL     1       1.003   9.833  19.367  0.00  0.00    +0.000 A 
ATOM      6  C   UNL     1       1.705   8.634  19.161  0.00  0.00    +0.000 A 
ENDROOT
BRANCH   4   7
ATOM      7  C   UNL     1      -0.224  11.458  20.864  0.00  0.00    +0.000 C 
ATOM      8  N   UNL     1      -0.125  12.323  19.905  0.00  0.00    +0.000 NA
ATOM      9  C   UNL     1      -0.555  13.647  20.027  0.00  0.00    +0.000 A 
ATOM     10  C   UNL     1      -0.150  14.526  19.044  0.00  0.00    +0.000 A 
ATOM     11  S   UNL     1      -0.772  16.097  19.268  0.00  0.00    +0.000 S 
ATOM     12  C   UNL     1      -1.616  15.602  20.668  0.00  0.00    +0.000 A 
ATOM     13  C   UNL     1      -1.444  14.260  20.955  0.00  0.00    +0.000 A 
ATOM     14  N   UNL     1      -2.167  13.692  21.982  0.00  0.00    +0.000 N 
ATOM     15  C   UNL     1      -2.120  12.394  22.365  0.00  0.00    +0.000 C 
ATOM     16  O   UNL     1      -3.080  11.910  22.967  0.00  0.00    +0.000 OA
ATOM     17  C   UNL     1      -0.835  11.650  22.224  0.00  0.00    +0.000 C 
ATOM     18  H   UNL     1      -2.964  14.208  22.334  0.00  0.00    +0.000 HD
ENDBRANCH   4   7
BRANCH   1  21
ATOM     19  O   UNL     1       1.014   4.922  20.529  0.00  0.00    +0.000 OA
ATOM     20  C   UNL     1       2.159   5.244  20.218  0.00  0.00    +0.000 C 
ATOM     21  N   UNL     1       2.600   6.535  19.966  0.00  0.00    +0.000 N 
ATOM     22  H   UNL     1       3.496   6.637  19.501  0.00  0.00    +0.000 HD
BRANCH  20  23
ATOM     23  C   UNL     1       3.235   4.187  20.069  0.00  0.00    +0.000 C 
BRANCH  23  24
ATOM     24  C   UNL     1       3.958   4.195  18.747  0.00  0.00    +0.000 A 
ATOM     25  C   UNL     1       3.290   3.736  17.604  0.00  0.00    +0.000 A 
ATOM     26  C   UNL     1       3.914   3.764  16.354  0.00  0.00    +0.000 A 
ATOM     27  C   UNL     1       5.212   4.275  16.187  0.00  0.00    +0.000 A 
ATOM     28  C   UNL     1       5.852   4.771  17.335  0.00  0.00    +0.000 A 
ATOM     29  C   UNL     1       5.237   4.733  18.594  0.00  0.00    +0.000 A 
BRANCH  27  30
ATOM     30  C   UNL     1       5.871   4.294  14.858  0.00  0.00    +0.000 A 
ATOM     31  C   UNL     1       5.332   3.606  13.757  0.00  0.00    +0.000 A 
ATOM     32  C   UNL     1       5.969   3.604  12.510  0.00  0.00    +0.000 A 
ATOM     33  C   UNL     1       7.154   4.309  12.332  0.00  0.00    +0.000 A 
ATOM     34  C   UNL     1       7.702   5.013  13.398  0.00  0.00    +0.000 A 
ATOM     35  C   UNL     1       7.072   5.001  14.645  0.00  0.00    +0.000 A 
ENDBRANCH  27  30
ENDBRANCH  23  24
ENDBRANCH  20  23
ENDBRANCH   1  21
TORSDOF 5
ENDMDL
