MODEL 1
REMARK VINA RESULT:      -8.0      0.000      0.000
REMARK  Name = 
REMARK  6 active torsions:
REMARK  status: ('A' for Active; 'I' for Inactive)
REMARK    1  A    between atoms: C_1  and  C_2
REMARK    2  A    between atoms: C_2  and  C_3
REMARK    3  A    between atoms: C_3  and  C_4
REMARK    4  A    between atoms: C_7  and  S_8
REMARK    5  A    between atoms: S_8  and  N_11
REMARK    6  A    between atoms: N_23  and  C_24
REMARK                            x       y       z     vdW  Elec       q    Type
REMARK                         _______ _______ _______ _____ _____    ______ ____
ROOT
ATOM      1  N   UNL     1       1.696   8.596  19.190  0.00  0.00    +0.000 NA
ATOM      2  C   UNL     1       1.718   7.751  20.404  0.00  0.00    +0.000 C 
ATOM      3  C   UNL     1       2.831   6.647  20.279  0.00  0.00    +0.000 C 
ATOM      4  C   UNL     1       2.477   5.656  19.116  0.00  0.00    +0.000 C 
ATOM      5  C   UNL     1       2.000   6.549  17.906  0.00  0.00    +0.000 C 
ATOM      6  C   UNL     1       2.421   8.035  18.051  0.00  0.00    +0.000 C 
ATOM      7  N   UNL     1       1.422   4.884  19.801  0.00  0.00    +0.000 NA
ATOM      8  C   UNL     1       0.657   3.800  19.271  0.00  0.00    +0.000 C 
ATOM      9  C   UNL     1       1.481   2.599  18.854  0.00  0.00    +0.000 C 
ATOM     10  C   UNL     1       2.856   2.585  19.510  0.00  0.00    +0.000 C 
ATOM     11  N   UNL     1       3.795   3.394  18.763  0.00  0.00    +0.000 NA
ATOM     12  C   UNL     1       3.698   4.668  18.566  0.00  0.00    +0.000 C 
ATOM     13  N   UNL     1       4.677   5.223  17.732  0.00  0.00    +0.000 N 
ATOM     14  H   UNL     1       0.923   5.364  20.540  0.00  0.00    +0.000 HD
ATOM     15  H   UNL     1       4.661   6.224  17.596  0.00  0.00    +0.000 HD
ENDROOT
BRANCH  13  16
ATOM     16  C   UNL     1       5.656   4.535  16.854  0.00  0.00    +0.000 C 
ATOM     17  C   UNL     1       5.074   3.889  15.595  0.00  0.00    +0.000 C 
ATOM     18  C   UNL     1       5.918   4.333  14.403  0.00  0.00    +0.000 C 
ATOM     19  C   UNL     1       7.188   4.947  14.964  0.00  0.00    +0.000 C 
ATOM     20  C   UNL     1       6.883   5.345  16.409  0.00  0.00    +0.000 C 
ENDBRANCH  13  16
BRANCH   1  21
ATOM     21  S   UNL     1       1.166  10.200  19.244  0.00  0.00    +0.000 S 
ATOM     22  O   UNL     1       1.992  10.950  18.312  0.00  0.00    +0.000 OA
ATOM     23  O   UNL     1       1.060  10.602  20.617  0.00  0.00    +0.000 OA
BRANCH  21  27
ATOM     24  C   UNL     1      -3.038  10.636  17.353  0.00  0.00    +0.000 A 
ATOM     25  C   UNL     1      -2.712  11.279  18.558  0.00  0.00    +0.000 A 
ATOM     26  C   UNL     1      -1.461  11.100  19.174  0.00  0.00    +0.000 A 
ATOM     27  C   UNL     1      -0.514  10.252  18.599  0.00  0.00    +0.000 A 
ATOM     28  C   UNL     1      -0.830   9.590  17.403  0.00  0.00    +0.000 A 
ATOM     29  C   UNL     1      -2.083   9.778  16.786  0.00  0.00    +0.000 A 
BRANCH  24  30
ATOM     30  C   UNL     1      -4.395  10.840  16.703  0.00  0.00    +0.000 C 
BRANCH  30  32
ATOM     31  C   UNL     1      -6.470  11.202  18.152  0.00  0.00    +0.000 C 
ATOM     32  C   UNL     1      -5.319  11.852  17.398  0.00  0.00    +0.000 C 
ENDBRANCH  30  32
ENDBRANCH  24  30
ENDBRANCH  21  27
ENDBRANCH   1  21
TORSDOF 5
ENDMDL
MODEL 2
REMARK VINA RESULT:      -7.9      3.779      8.497
REMARK  Name = 
REMARK  6 active torsions:
REMARK  status: ('A' for Active; 'I' for Inactive)
REMARK    1  A    between atoms: C_1  and  C_2
REMARK    2  A    between atoms: C_2  and  C_3
REMARK    3  A    between atoms: C_3  and  C_4
REMARK    4  A    between atoms: C_7  and  S_8
REMARK    5  A    between atoms: S_8  and  N_11
REMARK    6  A    between atoms: N_23  and  C_24
REMARK                            x       y       z     vdW  Elec       q    Type
REMARK                         _______ _______ _______ _____ _____    ______ ____
ROOT
ATOM      1  N   UNL     1       5.768   4.984  17.304  0.00  0.00    +0.000 NA
ATOM      2  C   UNL     1       4.661   4.033  17.063  0.00  0.00    +0.000 C 
ATOM      3  C   UNL     1       3.314   4.612  17.629  0.00  0.00    +0.000 C 
ATOM      4  C   UNL     1       3.395   4.732  19.191  0.00  0.00    +0.000 C 
ATOM      5  C   UNL     1       4.809   5.353  19.512  0.00  0.00    +0.000 C 
ATOM      6  C   UNL     1       5.464   6.030  18.279  0.00  0.00    +0.000 C 
ATOM      7  N   UNL     1       3.227   3.305  19.528  0.00  0.00    +0.000 NA
ATOM      8  C   UNL     1       3.216   2.717  20.831  0.00  0.00    +0.000 C 
ATOM      9  C   UNL     1       2.111   3.220  21.736  0.00  0.00    +0.000 C 
ATOM     10  C   UNL     1       0.972   3.864  20.954  0.00  0.00    +0.000 C 
ATOM     11  N   UNL     1       1.263   5.251  20.662  0.00  0.00    +0.000 NA
ATOM     12  C   UNL     1       2.247   5.676  19.938  0.00  0.00    +0.000 C 
ATOM     13  N   UNL     1       2.384   7.068  19.870  0.00  0.00    +0.000 N 
ATOM     14  H   UNL     1       3.518   2.640  18.823  0.00  0.00    +0.000 HD
ATOM     15  H   UNL     1       3.112   7.437  19.274  0.00  0.00    +0.000 HD
ENDROOT
BRANCH  13  16
ATOM     16  C   UNL     1       1.726   8.114  20.693  0.00  0.00    +0.000 C 
ATOM     17  C   UNL     1       1.202   9.328  19.923  0.00  0.00    +0.000 C 
ATOM     18  C   UNL     1      -0.239   9.578  20.359  0.00  0.00    +0.000 C 
ATOM     19  C   UNL     1      -0.471   8.757  21.614  0.00  0.00    +0.000 C 
ATOM     20  C   UNL     1       0.592   7.658  21.624  0.00  0.00    +0.000 C 
ENDBRANCH  13  16
BRANCH   1  21
ATOM     21  S   UNL     1       7.121   5.036  16.292  0.00  0.00    +0.000 S 
ATOM     22  O   UNL     1       8.103   4.122  16.852  0.00  0.00    +0.000 OA
ATOM     23  O   UNL     1       7.455   6.408  16.043  0.00  0.00    +0.000 OA
BRANCH  21  27
ATOM     24  C   UNL     1       5.677   3.634  12.122  0.00  0.00    +0.000 A 
ATOM     25  C   UNL     1       5.012   3.236  13.294  0.00  0.00    +0.000 A 
ATOM     26  C   UNL     1       5.481   3.602  14.568  0.00  0.00    +0.000 A 
ATOM     27  C   UNL     1       6.644   4.362  14.692  0.00  0.00    +0.000 A 
ATOM     28  C   UNL     1       7.329   4.754  13.531  0.00  0.00    +0.000 A 
ATOM     29  C   UNL     1       6.851   4.391  12.256  0.00  0.00    +0.000 A 
BRANCH  24  30
ATOM     30  C   UNL     1       5.156   3.228  10.755  0.00  0.00    +0.000 C 
BRANCH  30  32
ATOM     31  C   UNL     1       3.041   4.170   9.669  0.00  0.00    +0.000 C 
ATOM     32  C   UNL     1       3.627   3.141  10.626  0.00  0.00    +0.000 C 
ENDBRANCH  30  32
ENDBRANCH  24  30
ENDBRANCH  21  27
ENDBRANCH   1  21
TORSDOF 5
ENDMDL
MODEL 3
REMARK VINA RESULT:      -7.7      0.948      1.175
REMARK  Name = 
REMARK  6 active torsions:
REMARK  status: ('A' for Active; 'I' for Inactive)
REMARK    1  A    between atoms: C_1  and  C_2
REMARK    2  A    between atoms: C_2  and  C_3
REMARK    3  A    between atoms: C_3  and  C_4
REMARK    4  A    between atoms: C_7  and  S_8
REMARK    5  A    between atoms: S_8  and  N_11
REMARK    6  A    between atoms: N_23  and  C_24
REMARK                            x       y       z     vdW  Elec       q    Type
REMARK                         _______ _______ _______ _____ _____    ______ ____
ROOT
ATOM      1  N   UNL     1       1.420   9.044  19.457  0.00  0.00    +0.000 NA
ATOM      2  C   UNL     1       1.557   7.943  20.436  0.00  0.00    +0.000 C 
ATOM      3  C   UNL     1       2.819   7.069  20.099  0.00  0.00    +0.000 C 
ATOM      4  C   UNL     1       2.621   6.348  18.720  0.00  0.00    +0.000 C 
ATOM      5  C   UNL     1       2.027   7.430  17.738  0.00  0.00    +0.000 C 
ATOM      6  C   UNL     1       2.227   8.881  18.249  0.00  0.00    +0.000 C 
ATOM      7  N   UNL     1       1.685   5.294  19.158  0.00  0.00    +0.000 NA
ATOM      8  C   UNL     1       1.090   4.273  18.354  0.00  0.00    +0.000 C 
ATOM      9  C   UNL     1       2.082   3.335  17.699  0.00  0.00    +0.000 C 
ATOM     10  C   UNL     1       3.441   3.356  18.389  0.00  0.00    +0.000 C 
ATOM     11  N   UNL     1       4.257   4.444  17.895  0.00  0.00    +0.000 NA
ATOM     12  C   UNL     1       3.976   5.702  18.002  0.00  0.00    +0.000 C 
ATOM     13  N   UNL     1       4.869   6.573  17.365  0.00  0.00    +0.000 N 
ATOM     14  H   UNL     1       1.117   5.507  19.968  0.00  0.00    +0.000 HD
ATOM     15  H   UNL     1       4.709   7.564  17.470  0.00  0.00    +0.000 HD
ENDROOT
BRANCH  13  16
ATOM     16  C   UNL     1       5.944   6.260  16.389  0.00  0.00    +0.000 C 
ATOM     17  C   UNL     1       7.145   5.496  16.951  0.00  0.00    +0.000 C 
ATOM     18  C   UNL     1       7.423   4.312  16.030  0.00  0.00    +0.000 C 
ATOM     19  C   UNL     1       6.639   4.549  14.753  0.00  0.00    +0.000 C 
ATOM     20  C   UNL     1       5.526   5.541  15.099  0.00  0.00    +0.000 C 
ENDBRANCH  13  16
BRANCH   1  21
ATOM     21  S   UNL     1       0.662  10.498  19.868  0.00  0.00    +0.000 S 
ATOM     22  O   UNL     1       1.479  11.569  19.324  0.00  0.00    +0.000 OA
ATOM     23  O   UNL     1       0.332  10.464  21.263  0.00  0.00    +0.000 OA
BRANCH  21  27
ATOM     24  C   UNL     1      -3.245  10.964  17.426  0.00  0.00    +0.000 A 
ATOM     25  C   UNL     1      -3.070  11.627  18.652  0.00  0.00    +0.000 A 
ATOM     26  C   UNL     1      -1.915  11.441  19.432  0.00  0.00    +0.000 A 
ATOM     27  C   UNL     1      -0.917  10.565  19.005  0.00  0.00    +0.000 A 
ATOM     28  C   UNL     1      -1.084   9.882  17.790  0.00  0.00    +0.000 A 
ATOM     29  C   UNL     1      -2.240  10.077  17.008  0.00  0.00    +0.000 A 
BRANCH  24  30
ATOM     30  C   UNL     1      -4.500  11.176  16.598  0.00  0.00    +0.000 C 
BRANCH  30  32
ATOM     31  C   UNL     1      -6.666  11.580  17.895  0.00  0.00    +0.000 C 
ATOM     32  C   UNL     1      -5.494  12.208  17.153  0.00  0.00    +0.000 C 
ENDBRANCH  30  32
ENDBRANCH  24  30
ENDBRANCH  21  27
ENDBRANCH   1  21
TORSDOF 5
ENDMDL
MODEL 4
REMARK VINA RESULT:      -7.5      1.427      1.864
REMARK  Name = 
REMARK  6 active torsions:
REMARK  status: ('A' for Active; 'I' for Inactive)
REMARK    1  A    between atoms: C_1  and  C_2
REMARK    2  A    between atoms: C_2  and  C_3
REMARK    3  A    between atoms: C_3  and  C_4
REMARK    4  A    between atoms: C_7  and  S_8
REMARK    5  A    between atoms: S_8  and  N_11
REMARK    6  A    between atoms: N_23  and  C_24
REMARK                            x       y       z     vdW  Elec       q    Type
REMARK                         _______ _______ _______ _____ _____    ______ ____
ROOT
ATOM      1  N   UNL     1       1.233   8.695  19.810  0.00  0.00    +0.000 NA
ATOM      2  C   UNL     1       1.454   7.531  20.696  0.00  0.00    +0.000 C 
ATOM      3  C   UNL     1       2.758   6.763  20.270  0.00  0.00    +0.000 C 
ATOM      4  C   UNL     1       2.573   6.141  18.843  0.00  0.00    +0.000 C 
ATOM      5  C   UNL     1       1.897   7.258  17.959  0.00  0.00    +0.000 C 
ATOM      6  C   UNL     1       2.021   8.675  18.579  0.00  0.00    +0.000 C 
ATOM      7  N   UNL     1       1.711   5.002  19.212  0.00  0.00    +0.000 NA
ATOM      8  C   UNL     1       1.159   4.012  18.340  0.00  0.00    +0.000 C 
ATOM      9  C   UNL     1       2.190   3.190  17.597  0.00  0.00    +0.000 C 
ATOM     10  C   UNL     1       3.560   3.238  18.264  0.00  0.00    +0.000 C 
ATOM     11  N   UNL     1       4.300   4.408  17.844  0.00  0.00    +0.000 NA
ATOM     12  C   UNL     1       3.948   5.635  18.054  0.00  0.00    +0.000 C 
ATOM     13  N   UNL     1       4.776   6.605  17.473  0.00  0.00    +0.000 N 
ATOM     14  H   UNL     1       1.148   5.117  20.046  0.00  0.00    +0.000 HD
ATOM     15  H   UNL     1       4.560   7.574  17.658  0.00  0.00    +0.000 HD
ENDROOT
BRANCH  13  16
ATOM     16  C   UNL     1       5.846   6.434  16.458  0.00  0.00    +0.000 C 
ATOM     17  C   UNL     1       7.139   5.791  16.964  0.00  0.00    +0.000 C 
ATOM     18  C   UNL     1       7.514   4.667  16.003  0.00  0.00    +0.000 C 
ATOM     19  C   UNL     1       6.668   4.848  14.757  0.00  0.00    +0.000 C 
ATOM     20  C   UNL     1       5.467   5.704  15.161  0.00  0.00    +0.000 C 
ENDBRANCH  13  16
BRANCH   1  21
ATOM     21  S   UNL     1       0.399  10.064  20.346  0.00  0.00    +0.000 S 
ATOM     22  O   UNL     1       1.353  11.160  20.364  0.00  0.00    +0.000 OA
ATOM     23  O   UNL     1      -0.341   9.717  21.524  0.00  0.00    +0.000 OA
BRANCH  21  27
ATOM     24  C   UNL     1      -2.532  11.003  16.887  0.00  0.00    +0.000 A 
ATOM     25  C   UNL     1      -1.671  11.989  17.398  0.00  0.00    +0.000 A 
ATOM     26  C   UNL     1      -0.825  11.732  18.491  0.00  0.00    +0.000 A 
ATOM     27  C   UNL     1      -0.841  10.481  19.108  0.00  0.00    +0.000 A 
ATOM     28  C   UNL     1      -1.706   9.490  18.619  0.00  0.00    +0.000 A 
ATOM     29  C   UNL     1      -2.548   9.750  17.519  0.00  0.00    +0.000 A 
BRANCH  24  30
ATOM     30  C   UNL     1      -3.440  11.300  15.706  0.00  0.00    +0.000 C 
BRANCH  30  32
ATOM     31  C   UNL     1      -2.806   9.775  13.753  0.00  0.00    +0.000 C 
ATOM     32  C   UNL     1      -3.823  10.088  14.843  0.00  0.00    +0.000 C 
ENDBRANCH  30  32
ENDBRANCH  24  30
ENDBRANCH  21  27
ENDBRANCH   1  21
TORSDOF 5
ENDMDL
MODEL 5
REMARK VINA RESULT:      -7.5      3.952      8.972
REMARK  Name = 
REMARK  6 active torsions:
REMARK  status: ('A' for Active; 'I' for Inactive)
REMARK    1  A    between atoms: C_1  and  C_2
REMARK    2  A    between atoms: C_2  and  C_3
REMARK    3  A    between atoms: C_3  and  C_4
REMARK    4  A    between atoms: C_7  and  S_8
REMARK    5  A    between atoms: S_8  and  N_11
REMARK    6  A    between atoms: N_23  and  C_24
REMARK                            x       y       z     vdW  Elec       q    Type
REMARK                         _______ _______ _______ _____ _____    ______ ____
ROOT
ATOM      1  N   UNL     1       5.783   5.072  17.455  0.00  0.00    +0.000 NA
ATOM      2  C   UNL     1       4.837   3.966  17.192  0.00  0.00    +0.000 C 
ATOM      3  C   UNL     1       3.381   4.383  17.614  0.00  0.00    +0.000 C 
ATOM      4  C   UNL     1       3.313   4.598  19.167  0.00  0.00    +0.000 C 
ATOM      5  C   UNL     1       4.600   5.423  19.554  0.00  0.00    +0.000 C 
ATOM      6  C   UNL     1       5.261   6.117  18.334  0.00  0.00    +0.000 C 
ATOM      7  N   UNL     1       3.308   3.182  19.582  0.00  0.00    +0.000 NA
ATOM      8  C   UNL     1       3.265   2.668  20.916  0.00  0.00    +0.000 C 
ATOM      9  C   UNL     1       2.030   3.063  21.698  0.00  0.00    +0.000 C 
ATOM     10  C   UNL     1       0.886   3.501  20.791  0.00  0.00    +0.000 C 
ATOM     11  N   UNL     1       1.014   4.897  20.432  0.00  0.00    +0.000 NA
ATOM     12  C   UNL     1       1.990   5.414  19.761  0.00  0.00    +0.000 C 
ATOM     13  N   UNL     1       1.947   6.806  19.613  0.00  0.00    +0.000 N 
ATOM     14  H   UNL     1       3.744   2.525  18.946  0.00  0.00    +0.000 HD
ATOM     15  H   UNL     1       2.667   7.238  19.052  0.00  0.00    +0.000 HD
ENDROOT
BRANCH  13  16
ATOM     16  C   UNL     1       1.088   7.794  20.313  0.00  0.00    +0.000 C 
ATOM     17  C   UNL     1       1.401   8.009  21.796  0.00  0.00    +0.000 C 
ATOM     18  C   UNL     1       1.505   9.511  22.043  0.00  0.00    +0.000 C 
ATOM     19  C   UNL     1       0.924  10.202  20.823  0.00  0.00    +0.000 C 
ATOM     20  C   UNL     1       0.969   9.187  19.680  0.00  0.00    +0.000 C 
ENDBRANCH  13  16
BRANCH   1  21
ATOM     21  S   UNL     1       7.198   5.254  16.548  0.00  0.00    +0.000 S 
ATOM     22  O   UNL     1       8.172   4.322  17.092  0.00  0.00    +0.000 OA
ATOM     23  O   UNL     1       7.499   6.653  16.447  0.00  0.00    +0.000 OA
BRANCH  21  27
ATOM     24  C   UNL     1       6.547   3.556  12.290  0.00  0.00    +0.000 A 
ATOM     25  C   UNL     1       7.540   4.516  12.546  0.00  0.00    +0.000 A 
ATOM     26  C   UNL     1       7.703   5.086  13.822  0.00  0.00    +0.000 A 
ATOM     27  C   UNL     1       6.853   4.716  14.865  0.00  0.00    +0.000 A 
ATOM     28  C   UNL     1       5.846   3.770  14.621  0.00  0.00    +0.000 A 
ATOM     29  C   UNL     1       5.692   3.197  13.343  0.00  0.00    +0.000 A 
BRANCH  24  30
ATOM     30  C   UNL     1       6.386   2.952  10.906  0.00  0.00    +0.000 C 
BRANCH  30  32
ATOM     31  C   UNL     1       6.126   0.418  11.127  0.00  0.00    +0.000 C 
ATOM     32  C   UNL     1       7.027   1.571  10.706  0.00  0.00    +0.000 C 
ENDBRANCH  30  32
ENDBRANCH  24  30
ENDBRANCH  21  27
ENDBRANCH   1  21
TORSDOF 5
ENDMDL
MODEL 6
REMARK VINA RESULT:      -7.4      0.659      1.043
REMARK  Name = 
REMARK  6 active torsions:
REMARK  status: ('A' for Active; 'I' for Inactive)
REMARK    1  A    between atoms: C_1  and  C_2
REMARK    2  A    between atoms: C_2  and  C_3
REMARK    3  A    between atoms: C_3  and  C_4
REMARK    4  A    between atoms: C_7  and  S_8
REMARK    5  A    between atoms: S_8  and  N_11
REMARK    6  A    between atoms: N_23  and  C_24
REMARK                            x       y       z     vdW  Elec       q    Type
REMARK                         _______ _______ _______ _____ _____    ______ ____
ROOT
ATOM      1  N   UNL     1       1.784   8.362  19.321  0.00  0.00    +0.000 NA
ATOM      2  C   UNL     1       1.775   7.432  20.471  0.00  0.00    +0.000 C 
ATOM      3  C   UNL     1       2.880   6.329  20.287  0.00  0.00    +0.000 C 
ATOM      4  C   UNL     1       2.539   5.428  19.049  0.00  0.00    +0.000 C 
ATOM      5  C   UNL     1       2.093   6.410  17.899  0.00  0.00    +0.000 C 
ATOM      6  C   UNL     1       2.525   7.878  18.158  0.00  0.00    +0.000 C 
ATOM      7  N   UNL     1       1.465   4.620  19.658  0.00  0.00    +0.000 NA
ATOM      8  C   UNL     1       0.700   3.584  19.037  0.00  0.00    +0.000 C 
ATOM      9  C   UNL     1       1.520   2.408  18.550  0.00  0.00    +0.000 C 
ATOM     10  C   UNL     1       2.883   2.332  19.228  0.00  0.00    +0.000 C 
ATOM     11  N   UNL     1       3.843   3.183  18.559  0.00  0.00    +0.000 NA
ATOM     12  C   UNL     1       3.761   4.469  18.452  0.00  0.00    +0.000 C 
ATOM     13  N   UNL     1       4.761   5.073  17.679  0.00  0.00    +0.000 N 
ATOM     14  H   UNL     1       0.956   5.050  20.421  0.00  0.00    +0.000 HD
ATOM     15  H   UNL     1       4.757   6.081  17.614  0.00  0.00    +0.000 HD
ENDROOT
BRANCH  13  16
ATOM     16  C   UNL     1       5.750   4.439  16.771  0.00  0.00    +0.000 C 
ATOM     17  C   UNL     1       5.188   3.899  15.455  0.00  0.00    +0.000 C 
ATOM     18  C   UNL     1       6.064   4.419  14.318  0.00  0.00    +0.000 C 
ATOM     19  C   UNL     1       7.328   4.971  14.950  0.00  0.00    +0.000 C 
ATOM     20  C   UNL     1       6.997   5.263  16.415  0.00  0.00    +0.000 C 
ENDBRANCH  13  16
BRANCH   1  21
ATOM     21  S   UNL     1       1.267   9.964  19.480  0.00  0.00    +0.000 S 
ATOM     22  O   UNL     1       2.153  10.777  18.664  0.00  0.00    +0.000 OA
ATOM     23  O   UNL     1       1.085  10.250  20.874  0.00  0.00    +0.000 OA
BRANCH  21  27
ATOM     24  C   UNL     1      -2.805  10.595  17.369  0.00  0.00    +0.000 A 
ATOM     25  C   UNL     1      -2.513  11.226  18.590  0.00  0.00    +0.000 A 
ATOM     26  C   UNL     1      -1.306  10.989  19.271  0.00  0.00    +0.000 A 
ATOM     27  C   UNL     1      -0.373  10.095  18.748  0.00  0.00    +0.000 A 
ATOM     28  C   UNL     1      -0.656   9.445  17.536  0.00  0.00    +0.000 A 
ATOM     29  C   UNL     1      -1.864   9.691  16.854  0.00  0.00    +0.000 A 
BRANCH  24  30
ATOM     30  C   UNL     1      -4.115  10.862  16.648  0.00  0.00    +0.000 C 
BRANCH  30  32
ATOM     31  C   UNL     1      -3.889   9.992  14.254  0.00  0.00    +0.000 C 
ATOM     32  C   UNL     1      -3.992  11.213  15.157  0.00  0.00    +0.000 C 
ENDBRANCH  30  32
ENDBRANCH  24  30
ENDBRANCH  21  27
ENDBRANCH   1  21
TORSDOF 5
ENDMDL
MODEL 7
REMARK VINA RESULT:      -7.3      1.126      1.612
REMARK  Name = 
REMARK  6 active torsions:
REMARK  status: ('A' for Active; 'I' for Inactive)
REMARK    1  A    between atoms: C_1  and  C_2
REMARK    2  A    between atoms: C_2  and  C_3
REMARK    3  A    between atoms: C_3  and  C_4
REMARK    4  A    between atoms: C_7  and  S_8
REMARK    5  A    between atoms: S_8  and  N_11
REMARK    6  A    between atoms: N_23  and  C_24
REMARK                            x       y       z     vdW  Elec       q    Type
REMARK                         _______ _______ _______ _____ _____    ______ ____
ROOT
ATOM      1  N   UNL     1       1.273   8.357  20.058  0.00  0.00    +0.000 NA
ATOM      2  C   UNL     1       1.462   7.132  20.866  0.00  0.00    +0.000 C 
ATOM      3  C   UNL     1       2.760   6.373  20.408  0.00  0.00    +0.000 C 
ATOM      4  C   UNL     1       2.587   5.852  18.938  0.00  0.00    +0.000 C 
ATOM      5  C   UNL     1       1.943   7.039  18.123  0.00  0.00    +0.000 C 
ATOM      6  C   UNL     1       2.080   8.408  18.840  0.00  0.00    +0.000 C 
ATOM      7  N   UNL     1       1.702   4.706  19.216  0.00  0.00    +0.000 NA
ATOM      8  C   UNL     1       1.148   3.787  18.271  0.00  0.00    +0.000 C 
ATOM      9  C   UNL     1       2.177   3.000  17.488  0.00  0.00    +0.000 C 
ATOM     10  C   UNL     1       3.537   2.980  18.176  0.00  0.00    +0.000 C 
ATOM     11  N   UNL     1       4.302   4.163  17.848  0.00  0.00    +0.000 NA
ATOM     12  C   UNL     1       3.967   5.379  18.136  0.00  0.00    +0.000 C 
ATOM     13  N   UNL     1       4.818   6.371  17.635  0.00  0.00    +0.000 N 
ATOM     14  H   UNL     1       1.128   4.773  20.048  0.00  0.00    +0.000 HD
ATOM     15  H   UNL     1       4.615   7.329  17.883  0.00  0.00    +0.000 HD
ENDROOT
BRANCH  13  16
ATOM     16  C   UNL     1       5.901   6.252  16.627  0.00  0.00    +0.000 C 
ATOM     17  C   UNL     1       7.116   5.427  17.056  0.00  0.00    +0.000 C 
ATOM     18  C   UNL     1       7.421   4.424  15.947  0.00  0.00    +0.000 C 
ATOM     19  C   UNL     1       6.634   4.861  14.725  0.00  0.00    +0.000 C 
ATOM     20  C   UNL     1       5.501   5.756  15.229  0.00  0.00    +0.000 C 
ENDBRANCH  13  16
BRANCH   1  21
ATOM     21  S   UNL     1       0.453   9.701  20.675  0.00  0.00    +0.000 S 
ATOM     22  O   UNL     1       1.448  10.735  20.903  0.00  0.00    +0.000 OA
ATOM     23  O   UNL     1      -0.408   9.264  21.735  0.00  0.00    +0.000 OA
BRANCH  21  27
ATOM     24  C   UNL     1      -2.672  11.094  17.554  0.00  0.00    +0.000 A 
ATOM     25  C   UNL     1      -1.884   9.952  17.335  0.00  0.00    +0.000 A 
ATOM     26  C   UNL     1      -0.888   9.558  18.246  0.00  0.00    +0.000 A 
ATOM     27  C   UNL     1      -0.647  10.319  19.390  0.00  0.00    +0.000 A 
ATOM     28  C   UNL     1      -1.414  11.472  19.615  0.00  0.00    +0.000 A 
ATOM     29  C   UNL     1      -2.417  11.858  18.704  0.00  0.00    +0.000 A 
BRANCH  24  30
ATOM     30  C   UNL     1      -3.743  11.505  16.559  0.00  0.00    +0.000 C 
BRANCH  30  32
ATOM     31  C   UNL     1      -5.802  12.548  17.659  0.00  0.00    +0.000 C 
ATOM     32  C   UNL     1      -5.193  11.305  17.025  0.00  0.00    +0.000 C 
ENDBRANCH  30  32
ENDBRANCH  24  30
ENDBRANCH  21  27
ENDBRANCH   1  21
TORSDOF 5
ENDMDL
MODEL 8
REMARK VINA RESULT:      -7.1      2.986      4.192
REMARK  Name = 
REMARK  6 active torsions:
REMARK  status: ('A' for Active; 'I' for Inactive)
REMARK    1  A    between atoms: C_1  and  C_2
REMARK    2  A    between atoms: C_2  and  C_3
REMARK    3  A    between atoms: C_3  and  C_4
REMARK    4  A    between atoms: C_7  and  S_8
REMARK    5  A    between atoms: S_8  and  N_11
REMARK    6  A    between atoms: N_23  and  C_24
REMARK                            x       y       z     vdW  Elec       q    Type
REMARK                         _______ _______ _______ _____ _____    ______ ____
ROOT
ATOM      1  N   UNL     1       1.100   8.738  19.497  0.00  0.00    +0.000 NA
ATOM      2  C   UNL     1       1.374   7.715  20.530  0.00  0.00    +0.000 C 
ATOM      3  C   UNL     1       2.725   6.974  20.218  0.00  0.00    +0.000 C 
ATOM      4  C   UNL     1       2.596   6.161  18.883  0.00  0.00    +0.000 C 
ATOM      5  C   UNL     1       1.871   7.112  17.856  0.00  0.00    +0.000 C 
ATOM      6  C   UNL     1       1.906   8.603  18.285  0.00  0.00    +0.000 C 
ATOM      7  N   UNL     1       1.794   5.032  19.393  0.00  0.00    +0.000 NA
ATOM      8  C   UNL     1       1.312   3.907  18.655  0.00  0.00    +0.000 C 
ATOM      9  C   UNL     1       2.399   3.055  18.033  0.00  0.00    +0.000 C 
ATOM     10  C   UNL     1       3.753   3.270  18.698  0.00  0.00    +0.000 C 
ATOM     11  N   UNL     1       4.432   4.416  18.133  0.00  0.00    +0.000 NA
ATOM     12  C   UNL     1       4.009   5.637  18.178  0.00  0.00    +0.000 C 
ATOM     13  N   UNL     1       4.789   6.568  17.480  0.00  0.00    +0.000 N 
ATOM     14  H   UNL     1       1.214   5.222  20.201  0.00  0.00    +0.000 HD
ATOM     15  H   UNL     1       4.516   7.539  17.535  0.00  0.00    +0.000 HD
ENDROOT
BRANCH  13  16
ATOM     16  C   UNL     1       5.882   6.328  16.504  0.00  0.00    +0.000 C 
ATOM     17  C   UNL     1       7.137   5.659  17.069  0.00  0.00    +0.000 C 
ATOM     18  C   UNL     1       7.500   4.492  16.155  0.00  0.00    +0.000 C 
ATOM     19  C   UNL     1       6.697   4.661  14.879  0.00  0.00    +0.000 C 
ATOM     20  C   UNL     1       5.515   5.571  15.220  0.00  0.00    +0.000 C 
ENDBRANCH  13  16
BRANCH   1  21
ATOM     21  S   UNL     1       0.183  10.115  19.843  0.00  0.00    +0.000 S 
ATOM     22  O   UNL     1      -0.186  10.036  21.246  0.00  0.00    +0.000 OA
ATOM     23  O   UNL     1      -0.819  10.265  18.828  0.00  0.00    +0.000 OA
BRANCH  21  27
ATOM     24  C   UNL     1       2.606  14.028  19.338  0.00  0.00    +0.000 A 
ATOM     25  C   UNL     1       2.403  13.154  18.257  0.00  0.00    +0.000 A 
ATOM     26  C   UNL     1       1.725  11.932  18.416  0.00  0.00    +0.000 A 
ATOM     27  C   UNL     1       1.254  11.553  19.672  0.00  0.00    +0.000 A 
ATOM     28  C   UNL     1       1.462  12.408  20.765  0.00  0.00    +0.000 A 
ATOM     29  C   UNL     1       2.136  13.635  20.600  0.00  0.00    +0.000 A 
BRANCH  24  30
ATOM     30  C   UNL     1       3.342  15.343  19.148  0.00  0.00    +0.000 C 
BRANCH  30  32
ATOM     31  C   UNL     1       2.950  16.874  17.137  0.00  0.00    +0.000 C 
ATOM     32  C   UNL     1       3.722  15.688  17.700  0.00  0.00    +0.000 C 
ENDBRANCH  30  32
ENDBRANCH  24  30
ENDBRANCH  21  27
ENDBRANCH   1  21
TORSDOF 5
ENDMDL
MODEL 9
REMARK VINA RESULT:      -7.1      2.214      2.951
REMARK  Name = 
REMARK  6 active torsions:
REMARK  status: ('A' for Active; 'I' for Inactive)
REMARK    1  A    between atoms: C_1  and  C_2
REMARK    2  A    between atoms: C_2  and  C_3
REMARK    3  A    between atoms: C_3  and  C_4
REMARK    4  A    between atoms: C_7  and  S_8
REMARK    5  A    between atoms: S_8  and  N_11
REMARK    6  A    between atoms: N_23  and  C_24
REMARK                            x       y       z     vdW  Elec       q    Type
REMARK                         _______ _______ _______ _____ _____    ______ ____
ROOT
ATOM      1  N   UNL     1       1.386   8.679  18.972  0.00  0.00    +0.000 NA
ATOM      2  C   UNL     1       1.481   8.124  20.339  0.00  0.00    +0.000 C 
ATOM      3  C   UNL     1       2.692   7.127  20.439  0.00  0.00    +0.000 C 
ATOM      4  C   UNL     1       2.436   5.878  19.525  0.00  0.00    +0.000 C 
ATOM      5  C   UNL     1       1.883   6.438  18.158  0.00  0.00    +0.000 C 
ATOM      6  C   UNL     1       2.164   7.953  17.969  0.00  0.00    +0.000 C 
ATOM      7  N   UNL     1       1.455   5.181  20.379  0.00  0.00    +0.000 NA
ATOM      8  C   UNL     1       0.796   3.941  20.109  0.00  0.00    +0.000 C 
ATOM      9  C   UNL     1       1.729   2.759  19.950  0.00  0.00    +0.000 C 
ATOM     10  C   UNL     1       3.098   3.014  20.570  0.00  0.00    +0.000 C 
ATOM     11  N   UNL     1       3.960   3.724  19.650  0.00  0.00    +0.000 NA
ATOM     12  C   UNL     1       3.745   4.910  19.182  0.00  0.00    +0.000 C 
ATOM     13  N   UNL     1       4.672   5.357  18.232  0.00  0.00    +0.000 N 
ATOM     14  H   UNL     1       0.911   5.762  21.004  0.00  0.00    +0.000 HD
ATOM     15  H   UNL     1       4.563   6.298  17.881  0.00  0.00    +0.000 HD
ENDROOT
BRANCH  13  16
ATOM     16  C   UNL     1       5.714   4.586  17.507  0.00  0.00    +0.000 C 
ATOM     17  C   UNL     1       5.241   3.859  16.247  0.00  0.00    +0.000 C 
ATOM     18  C   UNL     1       6.210   4.196  15.117  0.00  0.00    +0.000 C 
ATOM     19  C   UNL     1       7.434   4.826  15.755  0.00  0.00    +0.000 C 
ATOM     20  C   UNL     1       6.999   5.337  17.129  0.00  0.00    +0.000 C 
ENDBRANCH  13  16
BRANCH   1  21
ATOM     21  S   UNL     1       0.709  10.201  18.684  0.00  0.00    +0.000 S 
ATOM     22  O   UNL     1      -0.235  10.044  17.590  0.00  0.00    +0.000 OA
ATOM     23  O   UNL     1       1.767  11.166  18.607  0.00  0.00    +0.000 OA
BRANCH  21  27
ATOM     24  C   UNL     1      -1.548  11.723  22.430  0.00  0.00    +0.000 A 
ATOM     25  C   UNL     1      -0.461  10.842  22.544  0.00  0.00    +0.000 A 
ATOM     26  C   UNL     1       0.189  10.322  21.410  0.00  0.00    +0.000 A 
ATOM     27  C   UNL     1      -0.255  10.664  20.133  0.00  0.00    +0.000 A 
ATOM     28  C   UNL     1      -1.350  11.532  20.002  0.00  0.00    +0.000 A 
ATOM     29  C   UNL     1      -1.994  12.055  21.141  0.00  0.00    +0.000 A 
BRANCH  24  30
ATOM     30  C   UNL     1      -2.238  12.273  23.666  0.00  0.00    +0.000 C 
BRANCH  30  32
ATOM     31  C   UNL     1      -4.548  12.413  24.755  0.00  0.00    +0.000 C 
ATOM     32  C   UNL     1      -3.723  12.629  23.494  0.00  0.00    +0.000 C 
ENDBRANCH  30  32
ENDBRANCH  24  30
ENDBRANCH  21  27
ENDBRANCH   1  21
TORSDOF 5
ENDMDL
