MODEL 1
REMARK VINA RESULT:      -7.8      0.000      0.000
REMARK  Name = 
REMARK  5 active torsions:
REMARK  status: ('A' for Active; 'I' for Inactive)
REMARK    1  A    between atoms: C_1  and  C_2
REMARK    2  A    between atoms: C_2  and  C_3
REMARK    3  A    between atoms: C_3  and  C_4
REMARK    4  A    between atoms: C_4  and  N_5
REMARK    5  A    between atoms: C_7  and  C_8
REMARK                            x       y       z     vdW  Elec       q    Type
REMARK                         _______ _______ _______ _____ _____    ______ ____
ROOT
ATOM      1  N   UNL     1       4.952   6.036  17.066  0.00  0.00    +0.000 N 
ATOM      2  C   UNL     1       4.366   7.197  17.446  0.00  0.00    +0.000 A 
ATOM      3  C   UNL     1       3.132   6.951  18.050  0.00  0.00    +0.000 A 
ATOM      4  C   UNL     1       2.980   5.567  18.022  0.00  0.00    +0.000 A 
ATOM      5  C   UNL     1       1.948   4.737  18.475  0.00  0.00    +0.000 A 
ATOM      6  C   UNL     1       2.087   3.349  18.306  0.00  0.00    +0.000 A 
ATOM      7 BR   UNL     1       0.701   2.174  18.898  0.00  0.00    +0.000 Br
ATOM      8  C   UNL     1       3.246   2.816  17.707  0.00  0.00    +0.000 A 
ATOM      9  C   UNL     1       4.272   3.664  17.266  0.00  0.00    +0.000 A 
ATOM     10  C   UNL     1       4.106   5.045  17.425  0.00  0.00    +0.000 A 
ENDROOT
BRANCH   3  11
ATOM     11  C   UNL     1       2.205   7.967  18.615  0.00  0.00    +0.000 A 
ATOM     12  C   UNL     1       1.623   8.956  17.805  0.00  0.00    +0.000 A 
ATOM     13  C   UNL     1       0.769   9.891  18.391  0.00  0.00    +0.000 A 
ATOM     14  N   UNL     1       0.516   9.840  19.723  0.00  0.00    +0.000 NA
ATOM     15  C   UNL     1       1.086   8.884  20.502  0.00  0.00    +0.000 A 
ATOM     16  N   UNL     1       0.821   8.852  21.889  0.00  0.00    +0.000 N 
ATOM     17  N   UNL     1       1.917   7.962  19.945  0.00  0.00    +0.000 NA
ATOM     18  H   UNL     1       0.196   9.551  22.316  0.00  0.00    +0.000 HD
ATOM     19  H   UNL     1       1.259   8.137  22.488  0.00  0.00    +0.000 HD
ENDBRANCH   3  11
BRANCH   1  20
ATOM     20  C   UNL     1       6.265   5.935  16.414  0.00  0.00    +0.000 C 
BRANCH  20  21
ATOM     21  C   UNL     1       7.399   5.587  17.400  0.00  0.00    +0.000 C 
BRANCH  21  23
ATOM     22  C   UNL     1       7.871   8.089  17.624  0.00  0.00    +0.000 C 
ATOM     23  C   UNL     1       7.811   6.738  18.330  0.00  0.00    +0.000 C 
ENDBRANCH  21  23
ENDBRANCH  20  21
ENDBRANCH   1  20
TORSDOF 4
ENDMDL
MODEL 2
REMARK VINA RESULT:      -7.6      1.249      2.013
REMARK  Name = 
REMARK  5 active torsions:
REMARK  status: ('A' for Active; 'I' for Inactive)
REMARK    1  A    between atoms: C_1  and  C_2
REMARK    2  A    between atoms: C_2  and  C_3
REMARK    3  A    between atoms: C_3  and  C_4
REMARK    4  A    between atoms: C_4  and  N_5
REMARK    5  A    between atoms: C_7  and  C_8
REMARK                            x       y       z     vdW  Elec       q    Type
REMARK                         _______ _______ _______ _____ _____    ______ ____
ROOT
ATOM      1  N   UNL     1       4.933   5.751  16.879  0.00  0.00    +0.000 N 
ATOM      2  C   UNL     1       4.415   6.945  17.253  0.00  0.00    +0.000 A 
ATOM      3  C   UNL     1       3.211   6.767  17.937  0.00  0.00    +0.000 A 
ATOM      4  C   UNL     1       3.005   5.390  17.965  0.00  0.00    +0.000 A 
ATOM      5  C   UNL     1       1.972   4.615  18.505  0.00  0.00    +0.000 A 
ATOM      6  C   UNL     1       2.049   3.218  18.375  0.00  0.00    +0.000 A 
ATOM      7 BR   UNL     1       0.658   2.119  19.087  0.00  0.00    +0.000 Br
ATOM      8  C   UNL     1       3.149   2.622  17.727  0.00  0.00    +0.000 A 
ATOM      9  C   UNL     1       4.178   3.415  17.197  0.00  0.00    +0.000 A 
ATOM     10  C   UNL     1       4.074   4.805  17.320  0.00  0.00    +0.000 A 
ENDROOT
BRANCH   3  11
ATOM     11  C   UNL     1       2.358   7.836  18.521  0.00  0.00    +0.000 A 
ATOM     12  C   UNL     1       1.865   8.890  17.734  0.00  0.00    +0.000 A 
ATOM     13  C   UNL     1       1.079   9.871  18.338  0.00  0.00    +0.000 A 
ATOM     14  N   UNL     1       0.806   9.803  19.665  0.00  0.00    +0.000 NA
ATOM     15  C   UNL     1       1.289   8.784  20.421  0.00  0.00    +0.000 A 
ATOM     16  N   UNL     1       1.005   8.734  21.804  0.00  0.00    +0.000 N 
ATOM     17  N   UNL     1       2.053   7.816  19.847  0.00  0.00    +0.000 NA
ATOM     18  H   UNL     1       0.430   9.467  22.244  0.00  0.00    +0.000 HD
ATOM     19  H   UNL     1       1.378   7.970  22.387  0.00  0.00    +0.000 HD
ENDBRANCH   3  11
BRANCH   1  20
ATOM     20  C   UNL     1       6.200   5.578  16.154  0.00  0.00    +0.000 C 
BRANCH  20  21
ATOM     21  C   UNL     1       5.998   5.321  14.647  0.00  0.00    +0.000 C 
BRANCH  21  23
ATOM     22  C   UNL     1       6.273   3.660  12.722  0.00  0.00    +0.000 C 
ATOM     23  C   UNL     1       6.125   3.848  14.229  0.00  0.00    +0.000 C 
ENDBRANCH  21  23
ENDBRANCH  20  21
ENDBRANCH   1  20
TORSDOF 4
ENDMDL
MODEL 3
REMARK VINA RESULT:      -7.6      1.207      1.293
REMARK  Name = 
REMARK  5 active torsions:
REMARK  status: ('A' for Active; 'I' for Inactive)
REMARK    1  A    between atoms: C_1  and  C_2
REMARK    2  A    between atoms: C_2  and  C_3
REMARK    3  A    between atoms: C_3  and  C_4
REMARK    4  A    between atoms: C_4  and  N_5
REMARK    5  A    between atoms: C_7  and  C_8
REMARK                            x       y       z     vdW  Elec       q    Type
REMARK                         _______ _______ _______ _____ _____    ______ ____
ROOT
ATOM      1  N   UNL     1       4.594   5.390  17.142  0.00  0.00    +0.000 N 
ATOM      2  C   UNL     1       4.040   6.621  17.253  0.00  0.00    +0.000 A 
ATOM      3  C   UNL     1       3.096   6.644  18.282  0.00  0.00    +0.000 A 
ATOM      4  C   UNL     1       3.091   5.353  18.804  0.00  0.00    +0.000 A 
ATOM      5  C   UNL     1       2.352   4.773  19.842  0.00  0.00    +0.000 A 
ATOM      6  C   UNL     1       2.578   3.420  20.145  0.00  0.00    +0.000 A 
ATOM      7 BR   UNL     1       1.586   2.580  21.546  0.00  0.00    +0.000 Br
ATOM      8  C   UNL     1       3.535   2.678  19.424  0.00  0.00    +0.000 A 
ATOM      9  C   UNL     1       4.270   3.278  18.392  0.00  0.00    +0.000 A 
ATOM     10  C   UNL     1       4.018   4.622  18.093  0.00  0.00    +0.000 A 
ENDROOT
BRANCH   3  11
ATOM     11  C   UNL     1       2.294   7.817  18.721  0.00  0.00    +0.000 A 
ATOM     12  C   UNL     1       1.958   8.848  17.828  0.00  0.00    +0.000 A 
ATOM     13  C   UNL     1       1.213   9.930  18.299  0.00  0.00    +0.000 A 
ATOM     14  N   UNL     1       0.830   9.977  19.600  0.00  0.00    +0.000 NA
ATOM     15  C   UNL     1       1.162   8.979  20.459  0.00  0.00    +0.000 A 
ATOM     16  N   UNL     1       0.765   9.051  21.812  0.00  0.00    +0.000 N 
ATOM     17  N   UNL     1       1.884   7.915  20.015  0.00  0.00    +0.000 NA
ATOM     18  H   UNL     1       0.223   9.857  22.154  0.00  0.00    +0.000 HD
ATOM     19  H   UNL     1       1.024   8.302  22.472  0.00  0.00    +0.000 HD
ENDBRANCH   3  11
BRANCH   1  20
ATOM     20  C   UNL     1       5.634   5.026  16.169  0.00  0.00    +0.000 C 
BRANCH  20  21
ATOM     21  C   UNL     1       7.039   5.505  16.586  0.00  0.00    +0.000 C 
BRANCH  21  23
ATOM     22  C   UNL     1       7.709   5.695  19.046  0.00  0.00    +0.000 C 
ATOM     23  C   UNL     1       7.615   4.793  17.819  0.00  0.00    +0.000 C 
ENDBRANCH  21  23
ENDBRANCH  20  21
ENDBRANCH   1  20
TORSDOF 4
ENDMDL
MODEL 4
REMARK VINA RESULT:      -7.6      0.941      1.618
REMARK  Name = 
REMARK  5 active torsions:
REMARK  status: ('A' for Active; 'I' for Inactive)
REMARK    1  A    between atoms: C_1  and  C_2
REMARK    2  A    between atoms: C_2  and  C_3
REMARK    3  A    between atoms: C_3  and  C_4
REMARK    4  A    between atoms: C_4  and  N_5
REMARK    5  A    between atoms: C_7  and  C_8
REMARK                            x       y       z     vdW  Elec       q    Type
REMARK                         _______ _______ _______ _____ _____    ______ ____
ROOT
ATOM      1  N   UNL     1       4.761   6.014  16.887  0.00  0.00    +0.000 N 
ATOM      2  C   UNL     1       4.232   7.158  17.384  0.00  0.00    +0.000 A 
ATOM      3  C   UNL     1       3.067   6.888  18.104  0.00  0.00    +0.000 A 
ATOM      4  C   UNL     1       2.898   5.508  18.025  0.00  0.00    +0.000 A 
ATOM      5  C   UNL     1       1.912   4.661  18.545  0.00  0.00    +0.000 A 
ATOM      6  C   UNL     1       2.018   3.283  18.294  0.00  0.00    +0.000 A 
ATOM      7 BR   UNL     1       0.691   2.087  18.973  0.00  0.00    +0.000 Br
ATOM      8  C   UNL     1       3.100   2.775  17.548  0.00  0.00    +0.000 A 
ATOM      9  C   UNL     1       4.082   3.639  17.042  0.00  0.00    +0.000 A 
ATOM     10  C   UNL     1       3.949   5.011  17.286  0.00  0.00    +0.000 A 
ENDROOT
BRANCH   3  11
ATOM     11  C   UNL     1       2.216   7.880  18.814  0.00  0.00    +0.000 A 
ATOM     12  C   UNL     1       1.941   7.758  20.186  0.00  0.00    +0.000 A 
ATOM     13  C   UNL     1       1.127   8.712  20.798  0.00  0.00    +0.000 A 
ATOM     14  N   UNL     1       0.610   9.733  20.068  0.00  0.00    +0.000 NA
ATOM     15  C   UNL     1       0.875   9.842  18.741  0.00  0.00    +0.000 A 
ATOM     16  N   UNL     1       0.320  10.905  17.995  0.00  0.00    +0.000 N 
ATOM     17  N   UNL     1       1.672   8.923  18.131  0.00  0.00    +0.000 NA
ATOM     18  H   UNL     1      -0.288  11.600  18.452  0.00  0.00    +0.000 HD
ATOM     19  H   UNL     1       0.508  10.988  16.985  0.00  0.00    +0.000 HD
ENDBRANCH   3  11
BRANCH   1  20
ATOM     20  C   UNL     1       5.996   5.940  16.093  0.00  0.00    +0.000 C 
BRANCH  20  21
ATOM     21  C   UNL     1       7.263   6.217  16.929  0.00  0.00    +0.000 C 
BRANCH  21  23
ATOM     22  C   UNL     1       7.730   5.771  19.403  0.00  0.00    +0.000 C 
ATOM     23  C   UNL     1       7.553   5.168  18.012  0.00  0.00    +0.000 C 
ENDBRANCH  21  23
ENDBRANCH  20  21
ENDBRANCH   1  20
TORSDOF 4
ENDMDL
MODEL 5
REMARK VINA RESULT:      -7.4      1.640      2.283
REMARK  Name = 
REMARK  5 active torsions:
REMARK  status: ('A' for Active; 'I' for Inactive)
REMARK    1  A    between atoms: C_1  and  C_2
REMARK    2  A    between atoms: C_2  and  C_3
REMARK    3  A    between atoms: C_3  and  C_4
REMARK    4  A    between atoms: C_4  and  N_5
REMARK    5  A    between atoms: C_7  and  C_8
REMARK                            x       y       z     vdW  Elec       q    Type
REMARK                         _______ _______ _______ _____ _____    ______ ____
ROOT
ATOM      1  N   UNL     1       4.801   5.409  17.401  0.00  0.00    +0.000 N 
ATOM      2  C   UNL     1       4.196   6.621  17.435  0.00  0.00    +0.000 A 
ATOM      3  C   UNL     1       3.179   6.635  18.392  0.00  0.00    +0.000 A 
ATOM      4  C   UNL     1       3.183   5.359  18.950  0.00  0.00    +0.000 A 
ATOM      5  C   UNL     1       2.391   4.779  19.949  0.00  0.00    +0.000 A 
ATOM      6  C   UNL     1       2.643   3.444  20.307  0.00  0.00    +0.000 A 
ATOM      7 BR   UNL     1       1.582   2.605  21.656  0.00  0.00    +0.000 Br
ATOM      8  C   UNL     1       3.676   2.721  19.680  0.00  0.00    +0.000 A 
ATOM      9  C   UNL     1       4.463   3.321  18.686  0.00  0.00    +0.000 A 
ATOM     10  C   UNL     1       4.185   4.646  18.330  0.00  0.00    +0.000 A 
ENDROOT
BRANCH   3  11
ATOM     11  C   UNL     1       2.305   7.787  18.738  0.00  0.00    +0.000 A 
ATOM     12  C   UNL     1       1.889   8.708  17.761  0.00  0.00    +0.000 A 
ATOM     13  C   UNL     1       1.078   9.776  18.146  0.00  0.00    +0.000 A 
ATOM     14  N   UNL     1       0.709   9.918  19.443  0.00  0.00    +0.000 NA
ATOM     15  C   UNL     1       1.118   9.027  20.383  0.00  0.00    +0.000 A 
ATOM     16  N   UNL     1       0.734   9.196  21.731  0.00  0.00    +0.000 N 
ATOM     17  N   UNL     1       1.905   7.976  20.024  0.00  0.00    +0.000 NA
ATOM     18  H   UNL     1       0.143   9.993  22.008  0.00  0.00    +0.000 HD
ATOM     19  H   UNL     1       1.051   8.531  22.452  0.00  0.00    +0.000 HD
ENDBRANCH   3  11
BRANCH   1  20
ATOM     20  C   UNL     1       5.922   5.059  16.517  0.00  0.00    +0.000 C 
BRANCH  20  21
ATOM     21  C   UNL     1       5.504   4.940  15.037  0.00  0.00    +0.000 C 
BRANCH  21  23
ATOM     22  C   UNL     1       5.753   3.611  12.867  0.00  0.00    +0.000 C 
ATOM     23  C   UNL     1       6.385   4.000  14.200  0.00  0.00    +0.000 C 
ENDBRANCH  21  23
ENDBRANCH  20  21
ENDBRANCH   1  20
TORSDOF 4
ENDMDL
MODEL 6
REMARK VINA RESULT:      -7.4      1.395      2.429
REMARK  Name = 
REMARK  5 active torsions:
REMARK  status: ('A' for Active; 'I' for Inactive)
REMARK    1  A    between atoms: C_1  and  C_2
REMARK    2  A    between atoms: C_2  and  C_3
REMARK    3  A    between atoms: C_3  and  C_4
REMARK    4  A    between atoms: C_4  and  N_5
REMARK    5  A    between atoms: C_7  and  C_8
REMARK                            x       y       z     vdW  Elec       q    Type
REMARK                         _______ _______ _______ _____ _____    ______ ____
ROOT
ATOM      1  N   UNL     1       4.749   5.949  16.935  0.00  0.00    +0.000 N 
ATOM      2  C   UNL     1       4.241   7.105  17.426  0.00  0.00    +0.000 A 
ATOM      3  C   UNL     1       3.073   6.861  18.150  0.00  0.00    +0.000 A 
ATOM      4  C   UNL     1       2.879   5.484  18.080  0.00  0.00    +0.000 A 
ATOM      5  C   UNL     1       1.878   4.659  18.607  0.00  0.00    +0.000 A 
ATOM      6  C   UNL     1       1.958   3.277  18.365  0.00  0.00    +0.000 A 
ATOM      7 BR   UNL     1       0.611   2.111  19.053  0.00  0.00    +0.000 Br
ATOM      8  C   UNL     1       3.029   2.745  17.620  0.00  0.00    +0.000 A 
ATOM      9  C   UNL     1       4.026   3.587  17.105  0.00  0.00    +0.000 A 
ATOM     10  C   UNL     1       3.918   4.963  17.342  0.00  0.00    +0.000 A 
ENDROOT
BRANCH   3  11
ATOM     11  C   UNL     1       2.242   7.873  18.856  0.00  0.00    +0.000 A 
ATOM     12  C   UNL     1       1.900   7.722  20.210  0.00  0.00    +0.000 A 
ATOM     13  C   UNL     1       1.108   8.697  20.818  0.00  0.00    +0.000 A 
ATOM     14  N   UNL     1       0.677   9.766  20.102  0.00  0.00    +0.000 NA
ATOM     15  C   UNL     1       1.008   9.904  18.792  0.00  0.00    +0.000 A 
ATOM     16  N   UNL     1       0.541  11.017  18.059  0.00  0.00    +0.000 N 
ATOM     17  N   UNL     1       1.784   8.964  18.186  0.00  0.00    +0.000 NA
ATOM     18  H   UNL     1      -0.050  11.728  18.512  0.00  0.00    +0.000 HD
ATOM     19  H   UNL     1       0.778  11.122  17.061  0.00  0.00    +0.000 HD
ENDBRANCH   3  11
BRANCH   1  20
ATOM     20  C   UNL     1       5.980   5.847  16.140  0.00  0.00    +0.000 C 
BRANCH  20  21
ATOM     21  C   UNL     1       5.723   5.373  14.694  0.00  0.00    +0.000 C 
BRANCH  21  23
ATOM     22  C   UNL     1       6.114   3.585  12.909  0.00  0.00    +0.000 C 
ATOM     23  C   UNL     1       6.488   4.103  14.294  0.00  0.00    +0.000 C 
ENDBRANCH  21  23
ENDBRANCH  20  21
ENDBRANCH   1  20
TORSDOF 4
ENDMDL
MODEL 7
REMARK VINA RESULT:      -7.2      1.341      1.893
REMARK  Name = 
REMARK  5 active torsions:
REMARK  status: ('A' for Active; 'I' for Inactive)
REMARK    1  A    between atoms: C_1  and  C_2
REMARK    2  A    between atoms: C_2  and  C_3
REMARK    3  A    between atoms: C_3  and  C_4
REMARK    4  A    between atoms: C_4  and  N_5
REMARK    5  A    between atoms: C_7  and  C_8
REMARK                            x       y       z     vdW  Elec       q    Type
REMARK                         _______ _______ _______ _____ _____    ______ ____
ROOT
ATOM      1  N   UNL     1       4.271   6.206  17.184  0.00  0.00    +0.000 N 
ATOM      2  C   UNL     1       3.625   7.363  17.463  0.00  0.00    +0.000 A 
ATOM      3  C   UNL     1       2.764   7.196  18.550  0.00  0.00    +0.000 A 
ATOM      4  C   UNL     1       2.908   5.864  18.930  0.00  0.00    +0.000 A 
ATOM      5  C   UNL     1       2.302   5.117  19.947  0.00  0.00    +0.000 A 
ATOM      6  C   UNL     1       2.664   3.766  20.087  0.00  0.00    +0.000 A 
ATOM      7 BR   UNL     1       1.856   2.702  21.453  0.00  0.00    +0.000 Br
ATOM      8  C   UNL     1       3.622   3.192  19.228  0.00  0.00    +0.000 A 
ATOM      9  C   UNL     1       4.223   3.958  18.219  0.00  0.00    +0.000 A 
ATOM     10  C   UNL     1       3.836   5.297  18.083  0.00  0.00    +0.000 A 
ENDROOT
BRANCH   3  11
ATOM     11  C   UNL     1       1.902   8.240  19.165  0.00  0.00    +0.000 A 
ATOM     12  C   UNL     1       1.611   8.231  20.539  0.00  0.00    +0.000 A 
ATOM     13  C   UNL     1       0.787   9.230  21.059  0.00  0.00    +0.000 A 
ATOM     14  N   UNL     1       0.277  10.185  20.242  0.00  0.00    +0.000 NA
ATOM     15  C   UNL     1       0.558  10.185  18.914  0.00  0.00    +0.000 A 
ATOM     16  N   UNL     1       0.009  11.180  18.076  0.00  0.00    +0.000 N 
ATOM     17  N   UNL     1       1.364   9.221  18.391  0.00  0.00    +0.000 NA
ATOM     18  H   UNL     1      -0.606  11.909  18.466  0.00  0.00    +0.000 HD
ATOM     19  H   UNL     1       0.209  11.180  17.064  0.00  0.00    +0.000 HD
ENDBRANCH   3  11
BRANCH   1  20
ATOM     20  C   UNL     1       5.261   6.039  16.110  0.00  0.00    +0.000 C 
BRANCH  20  21
ATOM     21  C   UNL     1       6.670   5.704  16.640  0.00  0.00    +0.000 C 
BRANCH  21  23
ATOM     22  C   UNL     1       7.793   6.149  18.894  0.00  0.00    +0.000 C 
ATOM     23  C   UNL     1       7.255   6.752  17.600  0.00  0.00    +0.000 C 
ENDBRANCH  21  23
ENDBRANCH  20  21
ENDBRANCH   1  20
TORSDOF 4
ENDMDL
MODEL 8
REMARK VINA RESULT:      -7.2      2.875      6.275
REMARK  Name = 
REMARK  5 active torsions:
REMARK  status: ('A' for Active; 'I' for Inactive)
REMARK    1  A    between atoms: C_1  and  C_2
REMARK    2  A    between atoms: C_2  and  C_3
REMARK    3  A    between atoms: C_3  and  C_4
REMARK    4  A    between atoms: C_4  and  N_5
REMARK    5  A    between atoms: C_7  and  C_8
REMARK                            x       y       z     vdW  Elec       q    Type
REMARK                         _______ _______ _______ _____ _____    ______ ____
ROOT
ATOM      1  N   UNL     1       2.838   4.611  20.520  0.00  0.00    +0.000 N 
ATOM      2  C   UNL     1       3.846   4.280  19.678  0.00  0.00    +0.000 A 
ATOM      3  C   UNL     1       4.076   5.306  18.759  0.00  0.00    +0.000 A 
ATOM      4  C   UNL     1       3.150   6.296  19.075  0.00  0.00    +0.000 A 
ATOM      5  C   UNL     1       2.898   7.549  18.504  0.00  0.00    +0.000 A 
ATOM      6  C   UNL     1       1.878   8.340  19.059  0.00  0.00    +0.000 A 
ATOM      7 BR   UNL     1       1.488  10.054  18.308  0.00  0.00    +0.000 Br
ATOM      8  C   UNL     1       1.143   7.880  20.169  0.00  0.00    +0.000 A 
ATOM      9  C   UNL     1       1.414   6.625  20.732  0.00  0.00    +0.000 A 
ATOM     10  C   UNL     1       2.421   5.843  20.153  0.00  0.00    +0.000 A 
ENDROOT
BRANCH   3  11
ATOM     11  C   UNL     1       5.112   5.322  17.692  0.00  0.00    +0.000 A 
ATOM     12  C   UNL     1       5.156   4.327  16.701  0.00  0.00    +0.000 A 
ATOM     13  C   UNL     1       6.158   4.387  15.731  0.00  0.00    +0.000 A 
ATOM     14  N   UNL     1       7.070   5.390  15.757  0.00  0.00    +0.000 NA
ATOM     15  C   UNL     1       7.025   6.346  16.720  0.00  0.00    +0.000 A 
ATOM     16  N   UNL     1       7.990   7.377  16.738  0.00  0.00    +0.000 N 
ATOM     17  N   UNL     1       6.052   6.305  17.670  0.00  0.00    +0.000 NA
ATOM     18  H   UNL     1       8.731   7.409  16.024  0.00  0.00    +0.000 HD
ATOM     19  H   UNL     1       7.968   8.100  17.473  0.00  0.00    +0.000 HD
ENDBRANCH   3  11
BRANCH   1  20
ATOM     20  C   UNL     1       2.352   3.762  21.617  0.00  0.00    +0.000 C 
BRANCH  20  21
ATOM     21  C   UNL     1       1.398   2.649  21.136  0.00  0.00    +0.000 C 
BRANCH  21  23
ATOM     22  C   UNL     1       0.913   2.307  18.649  0.00  0.00    +0.000 C 
ATOM     23  C   UNL     1       0.525   3.035  19.932  0.00  0.00    +0.000 C 
ENDBRANCH  21  23
ENDBRANCH  20  21
ENDBRANCH   1  20
TORSDOF 4
ENDMDL
MODEL 9
REMARK VINA RESULT:      -7.2      3.019      6.427
REMARK  Name = 
REMARK  5 active torsions:
REMARK  status: ('A' for Active; 'I' for Inactive)
REMARK    1  A    between atoms: C_1  and  C_2
REMARK    2  A    between atoms: C_2  and  C_3
REMARK    3  A    between atoms: C_3  and  C_4
REMARK    4  A    between atoms: C_4  and  N_5
REMARK    5  A    between atoms: C_7  and  C_8
REMARK                            x       y       z     vdW  Elec       q    Type
REMARK                         _______ _______ _______ _____ _____    ______ ____
ROOT
ATOM      1  N   UNL     1       3.379   4.114  20.147  0.00  0.00    +0.000 N 
ATOM      2  C   UNL     1       4.376   3.870  19.263  0.00  0.00    +0.000 A 
ATOM      3  C   UNL     1       4.527   4.945  18.385  0.00  0.00    +0.000 A 
ATOM      4  C   UNL     1       3.563   5.873  18.771  0.00  0.00    +0.000 A 
ATOM      5  C   UNL     1       3.233   7.135  18.264  0.00  0.00    +0.000 A 
ATOM      6  C   UNL     1       2.193   7.850  18.882  0.00  0.00    +0.000 A 
ATOM      7 BR   UNL     1       1.697   9.572  18.220  0.00  0.00    +0.000 Br
ATOM      8  C   UNL     1       1.515   7.306  19.991  0.00  0.00    +0.000 A 
ATOM      9  C   UNL     1       1.865   6.042  20.489  0.00  0.00    +0.000 A 
ATOM     10  C   UNL     1       2.891   5.338  19.848  0.00  0.00    +0.000 A 
ENDROOT
BRANCH   3  11
ATOM     11  C   UNL     1       5.528   5.060  17.290  0.00  0.00    +0.000 A 
ATOM     12  C   UNL     1       6.553   6.019  17.334  0.00  0.00    +0.000 A 
ATOM     13  C   UNL     1       7.457   6.087  16.273  0.00  0.00    +0.000 A 
ATOM     14  N   UNL     1       7.335   5.241  15.220  0.00  0.00    +0.000 NA
ATOM     15  C   UNL     1       6.338   4.320  15.181  0.00  0.00    +0.000 A 
ATOM     16  N   UNL     1       6.219   3.455  14.071  0.00  0.00    +0.000 N 
ATOM     17  N   UNL     1       5.452   4.236  16.210  0.00  0.00    +0.000 NA
ATOM     18  H   UNL     1       6.885   3.517  13.288  0.00  0.00    +0.000 HD
ATOM     19  H   UNL     1       5.458   2.760  14.030  0.00  0.00    +0.000 HD
ENDBRANCH   3  11
BRANCH   1  20
ATOM     20  C   UNL     1       2.968   3.195  21.218  0.00  0.00    +0.000 C 
BRANCH  20  21
ATOM     21  C   UNL     1       1.564   2.599  20.991  0.00  0.00    +0.000 C 
BRANCH  21  23
ATOM     22  C   UNL     1       0.589   2.775  18.634  0.00  0.00    +0.000 C 
ATOM     23  C   UNL     1       1.372   1.921  19.627  0.00  0.00    +0.000 C 
ENDBRANCH  21  23
ENDBRANCH  20  21
ENDBRANCH   1  20
TORSDOF 4
ENDMDL
