MODEL 1
REMARK VINA RESULT:      -7.9      0.000      0.000
REMARK  Name = 
REMARK  0 active torsions:
REMARK  status: ('A' for Active; 'I' for Inactive)
REMARK                            x       y       z     vdW  Elec       q    Type
REMARK                         _______ _______ _______ _____ _____    ______ ____
ROOT
ATOM      1  O   UNL     1       1.012   9.619  17.449  0.00  0.00    +0.000 OA
ATOM      2  C   UNL     1       1.747   8.756  17.927  0.00  0.00    +0.000 C 
ATOM      3  C   UNL     1       1.272   7.495  18.668  0.00  0.00    +0.000 C 
ATOM      4  C   UNL     1       2.557   6.743  18.560  0.00  0.00    +0.000 A 
ATOM      5  C   UNL     1       3.686   7.495  18.111  0.00  0.00    +0.000 A 
ATOM      6  C   UNL     1       4.721   6.961  17.325  0.00  0.00    +0.000 A 
ATOM      7  C   UNL     1       4.217   5.888  16.535  0.00  0.00    +0.000 A 
ATOM      8  C   UNL     1       3.568   4.969  17.364  0.00  0.00    +0.000 A 
ATOM      9  N   UNL     1       4.113   3.825  17.938  0.00  0.00    +0.000 N 
ATOM     10  C   UNL     1       3.496   3.555  19.167  0.00  0.00    +0.000 A 
ATOM     11  C   UNL     1       3.843   2.642  20.177  0.00  0.00    +0.000 A 
ATOM     12  C   UNL     1       3.005   2.557  21.296  0.00  0.00    +0.000 A 
ATOM     13  C   UNL     1       1.885   3.376  21.423  0.00  0.00    +0.000 A 
ATOM     14  C   UNL     1       1.619   4.366  20.473  0.00  0.00    +0.000 A 
ATOM     15  C   UNL     1       2.439   4.463  19.333  0.00  0.00    +0.000 A 
ATOM     16  C   UNL     1       2.616   5.348  18.269  0.00  0.00    +0.000 A 
ATOM     17  C   UNL     1       5.237   5.566  15.505  0.00  0.00    +0.000 C 
ATOM     18  C   UNL     1       6.411   5.564  16.446  0.00  0.00    +0.000 A 
ATOM     19  C   UNL     1       7.356   4.543  16.443  0.00  0.00    +0.000 A 
ATOM     20  C   UNL     1       8.019   4.296  17.630  0.00  0.00    +0.000 A 
ATOM     21  C   UNL     1       7.788   5.110  18.748  0.00  0.00    +0.000 A 
ATOM     22  C   UNL     1       6.850   6.187  18.715  0.00  0.00    +0.000 A 
ATOM     23  C   UNL     1       6.106   6.395  17.574  0.00  0.00    +0.000 A 
ATOM     24  N   UNL     1       3.140   8.749  17.821  0.00  0.00    +0.000 N 
ATOM     25  H   UNL     1       5.029   3.467  17.710  0.00  0.00    +0.000 HD
ATOM     26  H   UNL     1       3.572   9.390  17.169  0.00  0.00    +0.000 HD
ENDROOT
TORSDOF 0
ENDMDL
MODEL 2
REMARK VINA RESULT:      -7.8      2.317      5.432
REMARK  Name = 
REMARK  0 active torsions:
REMARK  status: ('A' for Active; 'I' for Inactive)
REMARK                            x       y       z     vdW  Elec       q    Type
REMARK                         _______ _______ _______ _____ _____    ______ ____
ROOT
ATOM      1  O   UNL     1       8.388   4.438  16.736  0.00  0.00    +0.000 OA
ATOM      2  C   UNL     1       7.365   4.744  17.346  0.00  0.00    +0.000 C 
ATOM      3  C   UNL     1       6.486   5.971  17.050  0.00  0.00    +0.000 C 
ATOM      4  C   UNL     1       5.280   5.496  17.791  0.00  0.00    +0.000 A 
ATOM      5  C   UNL     1       5.468   4.351  18.624  0.00  0.00    +0.000 A 
ATOM      6  C   UNL     1       4.483   3.373  18.846  0.00  0.00    +0.000 A 
ATOM      7  C   UNL     1       3.616   3.302  17.717  0.00  0.00    +0.000 A 
ATOM      8  C   UNL     1       3.129   4.580  17.429  0.00  0.00    +0.000 A 
ATOM      9  N   UNL     1       1.934   5.142  17.868  0.00  0.00    +0.000 N 
ATOM     10  C   UNL     1       2.071   6.531  18.004  0.00  0.00    +0.000 A 
ATOM     11  C   UNL     1       1.215   7.474  18.596  0.00  0.00    +0.000 A 
ATOM     12  C   UNL     1       1.595   8.821  18.548  0.00  0.00    +0.000 A 
ATOM     13  C   UNL     1       2.799   9.211  17.966  0.00  0.00    +0.000 A 
ATOM     14  C   UNL     1       3.700   8.254  17.490  0.00  0.00    +0.000 A 
ATOM     15  C   UNL     1       3.335   6.894  17.517  0.00  0.00    +0.000 A 
ATOM     16  C   UNL     1       3.953   5.662  17.296  0.00  0.00    +0.000 A 
ATOM     17  C   UNL     1       2.804   2.066  17.849  0.00  0.00    +0.000 C 
ATOM     18  C   UNL     1       2.442   2.272  19.295  0.00  0.00    +0.000 A 
ATOM     19  C   UNL     1       1.137   2.130  19.756  0.00  0.00    +0.000 A 
ATOM     20  C   UNL     1       0.782   2.860  20.874  0.00  0.00    +0.000 A 
ATOM     21  C   UNL     1       1.741   3.635  21.543  0.00  0.00    +0.000 A 
ATOM     22  C   UNL     1       3.091   3.725  21.082  0.00  0.00    +0.000 A 
ATOM     23  C   UNL     1       3.447   3.085  19.915  0.00  0.00    +0.000 A 
ATOM     24  N   UNL     1       6.794   3.987  18.373  0.00  0.00    +0.000 N 
ATOM     25  H   UNL     1       1.220   4.625  18.359  0.00  0.00    +0.000 HD
ATOM     26  H   UNL     1       7.135   3.046  18.517  0.00  0.00    +0.000 HD
ENDROOT
TORSDOF 0
ENDMDL
MODEL 3
REMARK VINA RESULT:      -7.5      1.563      4.748
REMARK  Name = 
REMARK  0 active torsions:
REMARK  status: ('A' for Active; 'I' for Inactive)
REMARK                            x       y       z     vdW  Elec       q    Type
REMARK                         _______ _______ _______ _____ _____    ______ ____
ROOT
ATOM      1  O   UNL     1       2.012  10.341  18.254  0.00  0.00    +0.000 OA
ATOM      2  C   UNL     1       2.205   9.161  17.968  0.00  0.00    +0.000 C 
ATOM      3  C   UNL     1       3.439   8.615  17.230  0.00  0.00    +0.000 C 
ATOM      4  C   UNL     1       3.245   7.185  17.613  0.00  0.00    +0.000 A 
ATOM      5  C   UNL     1       1.989   6.864  18.213  0.00  0.00    +0.000 A 
ATOM      6  C   UNL     1       1.822   5.881  19.204  0.00  0.00    +0.000 A 
ATOM      7  C   UNL     1       3.027   5.747  19.952  0.00  0.00    +0.000 A 
ATOM      8  C   UNL     1       4.093   5.530  19.076  0.00  0.00    +0.000 A 
ATOM      9  N   UNL     1       4.619   4.304  18.679  0.00  0.00    +0.000 N 
ATOM     10  C   UNL     1       5.130   4.391  17.377  0.00  0.00    +0.000 A 
ATOM     11  C   UNL     1       5.566   3.382  16.503  0.00  0.00    +0.000 A 
ATOM     12  C   UNL     1       6.076   3.772  15.258  0.00  0.00    +0.000 A 
ATOM     13  C   UNL     1       6.115   5.113  14.882  0.00  0.00    +0.000 A 
ATOM     14  C   UNL     1       5.564   6.098  15.708  0.00  0.00    +0.000 A 
ATOM     15  C   UNL     1       5.057   5.732  16.969  0.00  0.00    +0.000 A 
ATOM     16  C   UNL     1       4.323   6.332  17.993  0.00  0.00    +0.000 A 
ATOM     17  C   UNL     1       2.718   4.950  21.167  0.00  0.00    +0.000 C 
ATOM     18  C   UNL     1       1.936   3.881  20.455  0.00  0.00    +0.000 A 
ATOM     19  C   UNL     1       2.155   2.527  20.690  0.00  0.00    +0.000 A 
ATOM     20  C   UNL     1       1.864   1.654  19.659  0.00  0.00    +0.000 A 
ATOM     21  C   UNL     1       1.293   2.134  18.471  0.00  0.00    +0.000 A 
ATOM     22  C   UNL     1       1.027   3.523  18.270  0.00  0.00    +0.000 A 
ATOM     23  C   UNL     1       1.397   4.425  19.243  0.00  0.00    +0.000 A 
ATOM     24  N   UNL     1       1.360   8.107  18.324  0.00  0.00    +0.000 N 
ATOM     25  H   UNL     1       4.350   3.422  19.089  0.00  0.00    +0.000 HD
ATOM     26  H   UNL     1       0.633   8.287  19.004  0.00  0.00    +0.000 HD
ENDROOT
TORSDOF 0
ENDMDL
MODEL 4
REMARK VINA RESULT:      -7.1      2.292      4.553
REMARK  Name = 
REMARK  0 active torsions:
REMARK  status: ('A' for Active; 'I' for Inactive)
REMARK                            x       y       z     vdW  Elec       q    Type
REMARK                         _______ _______ _______ _____ _____    ______ ____
ROOT
ATOM      1  O   UNL     1       2.576   2.207  22.209  0.00  0.00    +0.000 OA
ATOM      2  C   UNL     1       2.643   2.904  21.199  0.00  0.00    +0.000 C 
ATOM      3  C   UNL     1       2.193   4.372  21.099  0.00  0.00    +0.000 C 
ATOM      4  C   UNL     1       2.935   4.690  19.843  0.00  0.00    +0.000 A 
ATOM      5  C   UNL     1       3.488   3.574  19.144  0.00  0.00    +0.000 A 
ATOM      6  C   UNL     1       4.693   3.621  18.421  0.00  0.00    +0.000 A 
ATOM      7  C   UNL     1       5.551   4.610  18.984  0.00  0.00    +0.000 A 
ATOM      8  C   UNL     1       4.863   5.823  19.071  0.00  0.00    +0.000 A 
ATOM      9  N   UNL     1       4.865   6.858  18.140  0.00  0.00    +0.000 N 
ATOM     10  C   UNL     1       3.638   7.535  18.163  0.00  0.00    +0.000 A 
ATOM     11  C   UNL     1       3.116   8.497  17.283  0.00  0.00    +0.000 A 
ATOM     12  C   UNL     1       1.860   9.042  17.582  0.00  0.00    +0.000 A 
ATOM     13  C   UNL     1       1.136   8.618  18.694  0.00  0.00    +0.000 A 
ATOM     14  C   UNL     1       1.609   7.573  19.492  0.00  0.00    +0.000 A 
ATOM     15  C   UNL     1       2.873   7.017  19.219  0.00  0.00    +0.000 A 
ATOM     16  C   UNL     1       3.626   5.921  19.643  0.00  0.00    +0.000 A 
ATOM     17  C   UNL     1       6.906   4.412  18.409  0.00  0.00    +0.000 C 
ATOM     18  C   UNL     1       6.449   4.273  16.982  0.00  0.00    +0.000 A 
ATOM     19  C   UNL     1       7.065   4.961  15.941  0.00  0.00    +0.000 A 
ATOM     20  C   UNL     1       6.291   5.247  14.832  0.00  0.00    +0.000 A 
ATOM     21  C   UNL     1       4.972   4.776  14.753  0.00  0.00    +0.000 A 
ATOM     22  C   UNL     1       4.376   4.025  15.813  0.00  0.00    +0.000 A 
ATOM     23  C   UNL     1       5.093   3.810  16.970  0.00  0.00    +0.000 A 
ATOM     24  N   UNL     1       3.200   2.495  19.984  0.00  0.00    +0.000 N 
ATOM     25  H   UNL     1       5.476   6.887  17.338  0.00  0.00    +0.000 HD
ATOM     26  H   UNL     1       3.738   1.639  19.971  0.00  0.00    +0.000 HD
ENDROOT
TORSDOF 0
ENDMDL
MODEL 5
REMARK VINA RESULT:      -7.1      8.350     10.149
REMARK  Name = 
REMARK  0 active torsions:
REMARK  status: ('A' for Active; 'I' for Inactive)
REMARK                            x       y       z     vdW  Elec       q    Type
REMARK                         _______ _______ _______ _____ _____    ______ ____
ROOT
ATOM      1  O   UNL     1       8.125  13.608  25.626  0.00  0.00    +0.000 OA
ATOM      2  C   UNL     1       7.965  13.390  24.426  0.00  0.00    +0.000 C 
ATOM      3  C   UNL     1       7.039  14.188  23.492  0.00  0.00    +0.000 C 
ATOM      4  C   UNL     1       7.649  13.720  22.212  0.00  0.00    +0.000 A 
ATOM      5  C   UNL     1       8.565  12.629  22.317  0.00  0.00    +0.000 A 
ATOM      6  C   UNL     1       9.692  12.470  21.493  0.00  0.00    +0.000 A 
ATOM      7  C   UNL     1      10.147  13.747  21.053  0.00  0.00    +0.000 A 
ATOM      8  C   UNL     1       9.082  14.442  20.474  0.00  0.00    +0.000 A 
ATOM      9  N   UNL     1       8.744  14.490  19.125  0.00  0.00    +0.000 N 
ATOM     10  C   UNL     1       7.359  14.641  18.975  0.00  0.00    +0.000 A 
ATOM     11  C   UNL     1       6.553  14.539  17.829  0.00  0.00    +0.000 A 
ATOM     12  C   UNL     1       5.181  14.787  17.972  0.00  0.00    +0.000 A 
ATOM     13  C   UNL     1       4.627  15.088  19.214  0.00  0.00    +0.000 A 
ATOM     14  C   UNL     1       5.418  15.065  20.367  0.00  0.00    +0.000 A 
ATOM     15  C   UNL     1       6.800  14.831  20.248  0.00  0.00    +0.000 A 
ATOM     16  C   UNL     1       7.877  14.586  21.102  0.00  0.00    +0.000 A 
ATOM     17  C   UNL     1      11.497  13.566  20.461  0.00  0.00    +0.000 C 
ATOM     18  C   UNL     1      11.142  12.363  19.631  0.00  0.00    +0.000 A 
ATOM     19  C   UNL     1      11.502  12.259  18.291  0.00  0.00    +0.000 A 
ATOM     20  C   UNL     1      10.697  11.480  17.482  0.00  0.00    +0.000 A 
ATOM     21  C   UNL     1       9.622  10.767  18.035  0.00  0.00    +0.000 A 
ATOM     22  C   UNL     1       9.302  10.846  19.425  0.00  0.00    +0.000 A 
ATOM     23  C   UNL     1      10.029  11.692  20.235  0.00  0.00    +0.000 A 
ATOM     24  N   UNL     1       8.651  12.415  23.696  0.00  0.00    +0.000 N 
ATOM     25  H   UNL     1       9.322  14.110  18.390  0.00  0.00    +0.000 HD
ATOM     26  H   UNL     1       9.452  11.972  24.127  0.00  0.00    +0.000 HD
ENDROOT
TORSDOF 0
ENDMDL
MODEL 6
REMARK VINA RESULT:      -6.8      8.539     10.619
REMARK  Name = 
REMARK  0 active torsions:
REMARK  status: ('A' for Active; 'I' for Inactive)
REMARK                            x       y       z     vdW  Elec       q    Type
REMARK                         _______ _______ _______ _____ _____    ______ ____
ROOT
ATOM      1  O   UNL     1       7.539  18.239  18.958  0.00  0.00    +0.000 OA
ATOM      2  C   UNL     1       7.498  17.072  19.343  0.00  0.00    +0.000 C 
ATOM      3  C   UNL     1       8.235  15.892  18.687  0.00  0.00    +0.000 C 
ATOM      4  C   UNL     1       8.123  14.959  19.847  0.00  0.00    +0.000 A 
ATOM      5  C   UNL     1       7.240  15.366  20.894  0.00  0.00    +0.000 A 
ATOM      6  C   UNL     1       7.455  15.083  22.254  0.00  0.00    +0.000 A 
ATOM      7  C   UNL     1       8.853  14.963  22.503  0.00  0.00    +0.000 A 
ATOM      8  C   UNL     1       9.403  14.039  21.611  0.00  0.00    +0.000 A 
ATOM      9  N   UNL     1       9.606  12.680  21.829  0.00  0.00    +0.000 N 
ATOM     10  C   UNL     1       9.494  11.971  20.625  0.00  0.00    +0.000 A 
ATOM     11  C   UNL     1       9.423  10.589  20.387  0.00  0.00    +0.000 A 
ATOM     12  C   UNL     1       9.359  10.157  19.056  0.00  0.00    +0.000 A 
ATOM     13  C   UNL     1       9.328  11.068  18.003  0.00  0.00    +0.000 A 
ATOM     14  C   UNL     1       9.274  12.442  18.255  0.00  0.00    +0.000 A 
ATOM     15  C   UNL     1       9.350  12.901  19.584  0.00  0.00    +0.000 A 
ATOM     16  C   UNL     1       9.190  14.110  20.263  0.00  0.00    +0.000 A 
ATOM     17  C   UNL     1       9.053  14.984  23.974  0.00  0.00    +0.000 C 
ATOM     18  C   UNL     1       7.959  14.002  24.293  0.00  0.00    +0.000 A 
ATOM     19  C   UNL     1       8.157  12.934  25.162  0.00  0.00    +0.000 A 
ATOM     20  C   UNL     1       7.376  11.811  24.967  0.00  0.00    +0.000 A 
ATOM     21  C   UNL     1       6.377  11.810  23.982  0.00  0.00    +0.000 A 
ATOM     22  C   UNL     1       6.155  12.938  23.134  0.00  0.00    +0.000 A 
ATOM     23  C   UNL     1       6.983  14.034  23.243  0.00  0.00    +0.000 A 
ATOM     24  N   UNL     1       6.820  16.634  20.484  0.00  0.00    +0.000 N 
ATOM     25  H   UNL     1       9.481  12.232  22.725  0.00  0.00    +0.000 HD
ATOM     26  H   UNL     1       6.484  17.331  21.136  0.00  0.00    +0.000 HD
ENDROOT
TORSDOF 0
ENDMDL
MODEL 7
REMARK VINA RESULT:      -6.7      9.285     11.323
REMARK  Name = 
REMARK  0 active torsions:
REMARK  status: ('A' for Active; 'I' for Inactive)
REMARK                            x       y       z     vdW  Elec       q    Type
REMARK                         _______ _______ _______ _____ _____    ______ ____
ROOT
ATOM      1  O   UNL     1      11.062  18.153  22.998  0.00  0.00    +0.000 OA
ATOM      2  C   UNL     1      10.432  17.289  22.390  0.00  0.00    +0.000 C 
ATOM      3  C   UNL     1       9.211  17.546  21.490  0.00  0.00    +0.000 C 
ATOM      4  C   UNL     1       9.253  16.237  20.774  0.00  0.00    +0.000 A 
ATOM      5  C   UNL     1      10.130  15.251  21.322  0.00  0.00    +0.000 A 
ATOM      6  C   UNL     1      10.830  14.308  20.549  0.00  0.00    +0.000 A 
ATOM      7  C   UNL     1      11.073  14.840  19.250  0.00  0.00    +0.000 A 
ATOM      8  C   UNL     1       9.868  15.282  18.698  0.00  0.00    +0.000 A 
ATOM      9  N   UNL     1       9.016  14.568  17.861  0.00  0.00    +0.000 N 
ATOM     10  C   UNL     1       7.688  14.969  18.061  0.00  0.00    +0.000 A 
ATOM     11  C   UNL     1       6.489  14.403  17.598  0.00  0.00    +0.000 A 
ATOM     12  C   UNL     1       5.291  15.053  17.925  0.00  0.00    +0.000 A 
ATOM     13  C   UNL     1       5.285  16.201  18.713  0.00  0.00    +0.000 A 
ATOM     14  C   UNL     1       6.473  16.686  19.270  0.00  0.00    +0.000 A 
ATOM     15  C   UNL     1       7.690  16.057  18.947  0.00  0.00    +0.000 A 
ATOM     16  C   UNL     1       9.018  16.113  19.372  0.00  0.00    +0.000 A 
ATOM     17  C   UNL     1      12.071  13.964  18.583  0.00  0.00    +0.000 C 
ATOM     18  C   UNL     1      11.408  12.666  18.953  0.00  0.00    +0.000 A 
ATOM     19  C   UNL     1      11.197  11.654  18.021  0.00  0.00    +0.000 A 
ATOM     20  C   UNL     1      10.133  10.803  18.247  0.00  0.00    +0.000 A 
ATOM     21  C   UNL     1       9.368  10.925  19.417  0.00  0.00    +0.000 A 
ATOM     22  C   UNL     1       9.635  11.939  20.388  0.00  0.00    +0.000 A 
ATOM     23  C   UNL     1      10.629  12.861  20.141  0.00  0.00    +0.000 A 
ATOM     24  N   UNL     1      10.762  15.931  22.366  0.00  0.00    +0.000 N 
ATOM     25  H   UNL     1       9.248  13.672  17.459  0.00  0.00    +0.000 HD
ATOM     26  H   UNL     1      11.668  15.655  22.724  0.00  0.00    +0.000 HD
ENDROOT
TORSDOF 0
ENDMDL
MODEL 8
REMARK VINA RESULT:      -6.7      9.179     10.835
REMARK  Name = 
REMARK  0 active torsions:
REMARK  status: ('A' for Active; 'I' for Inactive)
REMARK                            x       y       z     vdW  Elec       q    Type
REMARK                         _______ _______ _______ _____ _____    ______ ____
ROOT
ATOM      1  O   UNL     1      12.199  13.031  16.983  0.00  0.00    +0.000 OA
ATOM      2  C   UNL     1      11.128  13.060  17.585  0.00  0.00    +0.000 C 
ATOM      3  C   UNL     1      10.915  12.622  19.044  0.00  0.00    +0.000 C 
ATOM      4  C   UNL     1       9.604  13.310  19.237  0.00  0.00    +0.000 A 
ATOM      5  C   UNL     1       8.986  13.820  18.054  0.00  0.00    +0.000 A 
ATOM      6  C   UNL     1       8.209  14.991  18.018  0.00  0.00    +0.000 A 
ATOM      7  C   UNL     1       8.642  15.884  19.041  0.00  0.00    +0.000 A 
ATOM      8  C   UNL     1       8.648  15.213  20.267  0.00  0.00    +0.000 A 
ATOM      9  N   UNL     1       7.628  15.185  21.213  0.00  0.00    +0.000 N 
ATOM     10  C   UNL     1       7.643  13.967  21.908  0.00  0.00    +0.000 A 
ATOM     11  C   UNL     1       6.703  13.416  22.794  0.00  0.00    +0.000 A 
ATOM     12  C   UNL     1       7.006  12.181  23.382  0.00  0.00    +0.000 A 
ATOM     13  C   UNL     1       8.182  11.503  23.071  0.00  0.00    +0.000 A 
ATOM     14  C   UNL     1       9.051  12.001  22.095  0.00  0.00    +0.000 A 
ATOM     15  C   UNL     1       8.774  13.245  21.499  0.00  0.00    +0.000 A 
ATOM     16  C   UNL     1       9.263  14.005  20.435  0.00  0.00    +0.000 A 
ATOM     17  C   UNL     1       8.029  17.209  18.773  0.00  0.00    +0.000 C 
ATOM     18  C   UNL     1       6.642  16.688  18.512  0.00  0.00    +0.000 A 
ATOM     19  C   UNL     1       5.517  17.263  19.094  0.00  0.00    +0.000 A 
ATOM     20  C   UNL     1       4.421  16.444  19.290  0.00  0.00    +0.000 A 
ATOM     21  C   UNL     1       4.443  15.118  18.833  0.00  0.00    +0.000 A 
ATOM     22  C   UNL     1       5.592  14.562  18.190  0.00  0.00    +0.000 A 
ATOM     23  C   UNL     1       6.731  15.327  18.069  0.00  0.00    +0.000 A 
ATOM     24  N   UNL     1       9.932  13.558  17.060  0.00  0.00    +0.000 N 
ATOM     25  H   UNL     1       6.801  15.760  21.162  0.00  0.00    +0.000 HD
ATOM     26  H   UNL     1       9.974  14.086  16.198  0.00  0.00    +0.000 HD
ENDROOT
TORSDOF 0
ENDMDL
MODEL 9
REMARK VINA RESULT:      -6.6      6.145      9.068
REMARK  Name = 
REMARK  0 active torsions:
REMARK  status: ('A' for Active; 'I' for Inactive)
REMARK                            x       y       z     vdW  Elec       q    Type
REMARK                         _______ _______ _______ _____ _____    ______ ____
ROOT
ATOM      1  O   UNL     1      -2.490  14.090  24.280  0.00  0.00    +0.000 OA
ATOM      2  C   UNL     1      -2.350  13.342  23.314  0.00  0.00    +0.000 C 
ATOM      3  C   UNL     1      -3.363  13.167  22.170  0.00  0.00    +0.000 C 
ATOM      4  C   UNL     1      -2.417  12.531  21.205  0.00  0.00    +0.000 A 
ATOM      5  C   UNL     1      -1.157  12.122  21.741  0.00  0.00    +0.000 A 
ATOM      6  C   UNL     1       0.048  12.153  21.019  0.00  0.00    +0.000 A 
ATOM      7  C   UNL     1      -0.011  13.179  20.032  0.00  0.00    +0.000 A 
ATOM      8  C   UNL     1      -1.161  13.009  19.258  0.00  0.00    +0.000 A 
ATOM      9  N   UNL     1      -1.267  12.329  18.049  0.00  0.00    +0.000 N 
ATOM     10  C   UNL     1      -2.545  11.767  17.916  0.00  0.00    +0.000 A 
ATOM     11  C   UNL     1      -3.039  10.845  16.979  0.00  0.00    +0.000 A 
ATOM     12  C   UNL     1      -4.392  10.489  17.065  0.00  0.00    +0.000 A 
ATOM     13  C   UNL     1      -5.211  11.002  18.067  0.00  0.00    +0.000 A 
ATOM     14  C   UNL     1      -4.680  11.822  19.068  0.00  0.00    +0.000 A 
ATOM     15  C   UNL     1      -3.327  12.203  18.997  0.00  0.00    +0.000 A 
ATOM     16  C   UNL     1      -2.399  12.850  19.815  0.00  0.00    +0.000 A 
ATOM     17  C   UNL     1       1.366  13.390  19.517  0.00  0.00    +0.000 C 
ATOM     18  C   UNL     1       1.687  11.931  19.332  0.00  0.00    +0.000 A 
ATOM     19  C   UNL     1       2.265  11.446  18.163  0.00  0.00    +0.000 A 
ATOM     20  C   UNL     1       2.003  10.131  17.830  0.00  0.00    +0.000 A 
ATOM     21  C   UNL     1       1.253   9.321  18.696  0.00  0.00    +0.000 A 
ATOM     22  C   UNL     1       0.712   9.826  19.919  0.00  0.00    +0.000 A 
ATOM     23  C   UNL     1       0.876  11.159  20.227  0.00  0.00    +0.000 A 
ATOM     24  N   UNL     1      -1.212  12.571  23.063  0.00  0.00    +0.000 N 
ATOM     25  H   UNL     1      -0.474  11.978  17.533  0.00  0.00    +0.000 HD
ATOM     26  H   UNL     1      -0.379  12.760  23.606  0.00  0.00    +0.000 HD
ENDROOT
TORSDOF 0
ENDMDL
