MODEL 1
REMARK VINA RESULT:      -6.3      0.000      0.000
REMARK  Name = 
REMARK  11 active torsions:
REMARK  status: ('A' for Active; 'I' for Inactive)
REMARK    1  A    between atoms: C_1  and  C_2
REMARK    2  A    between atoms: C_2  and  C_3
REMARK    3  A    between atoms: C_3  and  C_4
REMARK    4  A    between atoms: C_4  and  C_5
REMARK    5  A    between atoms: C_5  and  C_6
REMARK    6  A    between atoms: C_6  and  C_7
REMARK    7  A    between atoms: C_7  and  C_8
REMARK    8  A    between atoms: C_8  and  C_9
REMARK    9  A    between atoms: C_9  and  C_10
REMARK   10  A    between atoms: C_11  and  C_12
REMARK   11  A    between atoms: C_12  and  C_13
REMARK                            x       y       z     vdW  Elec       q    Type
REMARK                         _______ _______ _______ _____ _____    ______ ____
ROOT
ATOM      1  C   UNL     1       2.247   3.395  17.765  0.00  0.00    +0.000 C 
ATOM      2  C   UNL     1       3.463   2.896  17.512  0.00  0.00    +0.000 C 
ENDROOT
BRANCH   1   3
ATOM      3  C   UNL     1       1.206   2.626  18.518  0.00  0.00    +0.000 C 
BRANCH   3   4
ATOM      4  C   UNL     1       0.740   3.428  19.724  0.00  0.00    +0.000 C 
BRANCH   4   5
ATOM      5  C   UNL     1       1.700   3.239  20.889  0.00  0.00    +0.000 C 
BRANCH   5   6
ATOM      6  C   UNL     1       2.425   4.542  21.189  0.00  0.00    +0.000 C 
BRANCH   6   7
ATOM      7  C   UNL     1       1.694   5.716  20.555  0.00  0.00    +0.000 C 
BRANCH   7   8
ATOM      8  C   UNL     1       2.668   6.589  19.776  0.00  0.00    +0.000 C 
BRANCH   8   9
ATOM      9  C   UNL     1       2.073   6.981  18.432  0.00  0.00    +0.000 C 
BRANCH   9  11
ATOM     10  C   UNL     1       1.728   9.384  17.824  0.00  0.00    +0.000 C 
ATOM     11  C   UNL     1       2.730   8.247  17.894  0.00  0.00    +0.000 C 
ENDBRANCH   9  11
ENDBRANCH   8   9
ENDBRANCH   7   8
ENDBRANCH   6   7
ENDBRANCH   5   6
ENDBRANCH   4   5
ENDBRANCH   3   4
ENDBRANCH   1   3
BRANCH   2  12
ATOM     12  C   UNL     1       4.550   3.650  16.807  0.00  0.00    +0.000 C 
BRANCH  12  13
ATOM     13  C   UNL     1       4.800   5.008  17.450  0.00  0.00    +0.000 C 
ATOM     14  C   UNL     1       5.406   6.027  16.509  0.00  0.00    +0.000 C 
ATOM     15  C   UNL     1       6.433   6.693  17.351  0.00  0.00    +0.000 C 
ATOM     16  O   UNL     1       7.016   7.724  17.054  0.00  0.00    +0.000 OA
ATOM     17  O   UNL     1       6.684   5.961  18.459  0.00  0.00    +0.000 OA
ATOM     18  C   UNL     1       5.833   4.914  18.530  0.00  0.00    +0.000 C 
ATOM     19  O   UNL     1       5.882   4.047  19.390  0.00  0.00    +0.000 OA
ENDBRANCH  12  13
ENDBRANCH   2  12
TORSDOF 10
ENDMDL
MODEL 2
REMARK VINA RESULT:      -6.1      1.415      3.781
REMARK  Name = 
REMARK  11 active torsions:
REMARK  status: ('A' for Active; 'I' for Inactive)
REMARK    1  A    between atoms: C_1  and  C_2
REMARK    2  A    between atoms: C_2  and  C_3
REMARK    3  A    between atoms: C_3  and  C_4
REMARK    4  A    between atoms: C_4  and  C_5
REMARK    5  A    between atoms: C_5  and  C_6
REMARK    6  A    between atoms: C_6  and  C_7
REMARK    7  A    between atoms: C_7  and  C_8
REMARK    8  A    between atoms: C_8  and  C_9
REMARK    9  A    between atoms: C_9  and  C_10
REMARK   10  A    between atoms: C_11  and  C_12
REMARK   11  A    between atoms: C_12  and  C_13
REMARK                            x       y       z     vdW  Elec       q    Type
REMARK                         _______ _______ _______ _____ _____    ______ ____
ROOT
ATOM      1  C   UNL     1       3.197   6.900  17.593  0.00  0.00    +0.000 C 
ATOM      2  C   UNL     1       4.484   6.553  17.719  0.00  0.00    +0.000 C 
ENDROOT
BRANCH   1   3
ATOM      3  C   UNL     1       2.246   6.887  18.749  0.00  0.00    +0.000 C 
BRANCH   3   4
ATOM      4  C   UNL     1       2.766   5.961  19.838  0.00  0.00    +0.000 C 
BRANCH   4   5
ATOM      5  C   UNL     1       1.689   4.967  20.247  0.00  0.00    +0.000 C 
BRANCH   5   6
ATOM      6  C   UNL     1       2.182   4.102  21.397  0.00  0.00    +0.000 C 
BRANCH   6   7
ATOM      7  C   UNL     1       2.859   2.848  20.867  0.00  0.00    +0.000 C 
BRANCH   7   8
ATOM      8  C   UNL     1       2.116   2.321  19.647  0.00  0.00    +0.000 C 
BRANCH   8   9
ATOM      9  C   UNL     1       3.094   1.710  18.653  0.00  0.00    +0.000 C 
BRANCH   9  11
ATOM     10  C   UNL     1       2.604   3.505  16.980  0.00  0.00    +0.000 C 
ATOM     11  C   UNL     1       3.693   2.781  17.750  0.00  0.00    +0.000 C 
ENDBRANCH   9  11
ENDBRANCH   8   9
ENDBRANCH   7   8
ENDBRANCH   6   7
ENDBRANCH   5   6
ENDBRANCH   4   5
ENDBRANCH   3   4
ENDBRANCH   1   3
BRANCH   2  12
ATOM     12  C   UNL     1       5.480   6.600  16.601  0.00  0.00    +0.000 C 
BRANCH  12  13
ATOM     13  C   UNL     1       6.871   6.194  17.069  0.00  0.00    +0.000 C 
ATOM     14  C   UNL     1       6.864   5.204  18.215  0.00  0.00    +0.000 C 
ATOM     15  C   UNL     1       7.937   5.715  19.107  0.00  0.00    +0.000 C 
ATOM     16  O   UNL     1       8.413   5.100  20.047  0.00  0.00    +0.000 OA
ATOM     17  O   UNL     1       8.262   6.985  18.776  0.00  0.00    +0.000 OA
ATOM     18  C   UNL     1       7.607   7.358  17.656  0.00  0.00    +0.000 C 
ATOM     19  O   UNL     1       7.658   8.480  17.173  0.00  0.00    +0.000 OA
ENDBRANCH  12  13
ENDBRANCH   2  12
TORSDOF 10
ENDMDL
MODEL 3
REMARK VINA RESULT:      -6.1      3.552      6.768
REMARK  Name = 
REMARK  11 active torsions:
REMARK  status: ('A' for Active; 'I' for Inactive)
REMARK    1  A    between atoms: C_1  and  C_2
REMARK    2  A    between atoms: C_2  and  C_3
REMARK    3  A    between atoms: C_3  and  C_4
REMARK    4  A    between atoms: C_4  and  C_5
REMARK    5  A    between atoms: C_5  and  C_6
REMARK    6  A    between atoms: C_6  and  C_7
REMARK    7  A    between atoms: C_7  and  C_8
REMARK    8  A    between atoms: C_8  and  C_9
REMARK    9  A    between atoms: C_9  and  C_10
REMARK   10  A    between atoms: C_11  and  C_12
REMARK   11  A    between atoms: C_12  and  C_13
REMARK                            x       y       z     vdW  Elec       q    Type
REMARK                         _______ _______ _______ _____ _____    ______ ____
ROOT
ATOM      1  C   UNL     1       4.312   5.626  17.241  0.00  0.00    +0.000 C 
ATOM      2  C   UNL     1       3.444   5.214  18.174  0.00  0.00    +0.000 C 
ENDROOT
BRANCH   1   3
ATOM      3  C   UNL     1       5.762   5.851  17.539  0.00  0.00    +0.000 C 
BRANCH   3   4
ATOM      4  C   UNL     1       6.615   5.305  16.404  0.00  0.00    +0.000 C 
BRANCH   4   5
ATOM      5  C   UNL     1       5.788   5.178  15.134  0.00  0.00    +0.000 C 
BRANCH   5   6
ATOM      6  C   UNL     1       6.388   4.119  14.221  0.00  0.00    +0.000 C 
BRANCH   6   7
ATOM      7  C   UNL     1       5.615   4.047  12.912  0.00  0.00    +0.000 C 
BRANCH   7   8
ATOM      8  C   UNL     1       5.986   2.784  12.148  0.00  0.00    +0.000 C 
BRANCH   8   9
ATOM      9  C   UNL     1       4.934   2.474  11.093  0.00  0.00    +0.000 C 
BRANCH   9  11
ATOM     10  C   UNL     1       3.155   3.812   9.949  0.00  0.00    +0.000 C 
ATOM     11  C   UNL     1       3.697   3.343  11.287  0.00  0.00    +0.000 C 
ENDBRANCH   9  11
ENDBRANCH   8   9
ENDBRANCH   7   8
ENDBRANCH   6   7
ENDBRANCH   5   6
ENDBRANCH   4   5
ENDBRANCH   3   4
ENDBRANCH   1   3
BRANCH   2  12
ATOM     12  C   UNL     1       1.997   4.928  17.907  0.00  0.00    +0.000 C 
BRANCH  12  13
ATOM     13  C   UNL     1       1.410   3.984  18.948  0.00  0.00    +0.000 C 
ATOM     14  C   UNL     1       1.621   4.441  20.376  0.00  0.00    +0.000 C 
ATOM     15  C   UNL     1       1.990   3.185  21.080  0.00  0.00    +0.000 C 
ATOM     16  O   UNL     1       2.042   3.055  22.292  0.00  0.00    +0.000 OA
ATOM     17  O   UNL     1       2.328   2.225  20.190  0.00  0.00    +0.000 OA
ATOM     18  C   UNL     1       2.104   2.657  18.929  0.00  0.00    +0.000 C 
ATOM     19  O   UNL     1       2.390   2.021  17.925  0.00  0.00    +0.000 OA
ENDBRANCH  12  13
ENDBRANCH   2  12
TORSDOF 10
ENDMDL
MODEL 4
REMARK VINA RESULT:      -6.0      3.174      6.168
REMARK  Name = 
REMARK  11 active torsions:
REMARK  status: ('A' for Active; 'I' for Inactive)
REMARK    1  A    between atoms: C_1  and  C_2
REMARK    2  A    between atoms: C_2  and  C_3
REMARK    3  A    between atoms: C_3  and  C_4
REMARK    4  A    between atoms: C_4  and  C_5
REMARK    5  A    between atoms: C_5  and  C_6
REMARK    6  A    between atoms: C_6  and  C_7
REMARK    7  A    between atoms: C_7  and  C_8
REMARK    8  A    between atoms: C_8  and  C_9
REMARK    9  A    between atoms: C_9  and  C_10
REMARK   10  A    between atoms: C_11  and  C_12
REMARK   11  A    between atoms: C_12  and  C_13
REMARK                            x       y       z     vdW  Elec       q    Type
REMARK                         _______ _______ _______ _____ _____    ______ ____
ROOT
ATOM      1  C   UNL     1       3.779   2.880  17.945  0.00  0.00    +0.000 C 
ATOM      2  C   UNL     1       2.459   2.679  18.043  0.00  0.00    +0.000 C 
ENDROOT
BRANCH   1   3
ATOM      3  C   UNL     1       4.396   3.602  16.788  0.00  0.00    +0.000 C 
BRANCH   3   4
ATOM      4  C   UNL     1       5.111   4.853  17.278  0.00  0.00    +0.000 C 
BRANCH   4   5
ATOM      5  C   UNL     1       5.714   5.612  16.107  0.00  0.00    +0.000 C 
BRANCH   5   6
ATOM      6  C   UNL     1       5.380   4.911  14.798  0.00  0.00    +0.000 C 
BRANCH   6   7
ATOM      7  C   UNL     1       6.603   4.188  14.256  0.00  0.00    +0.000 C 
BRANCH   7   8
ATOM      8  C   UNL     1       6.341   3.692  12.840  0.00  0.00    +0.000 C 
BRANCH   8   9
ATOM      9  C   UNL     1       4.844   3.574  12.589  0.00  0.00    +0.000 C 
BRANCH   9  11
ATOM     10  C   UNL     1       3.422   3.470  10.532  0.00  0.00    +0.000 C 
ATOM     11  C   UNL     1       4.569   2.827  11.289  0.00  0.00    +0.000 C 
ENDBRANCH   9  11
ENDBRANCH   8   9
ENDBRANCH   7   8
ENDBRANCH   6   7
ENDBRANCH   5   6
ENDBRANCH   4   5
ENDBRANCH   3   4
ENDBRANCH   1   3
BRANCH   2  12
ATOM     12  C   UNL     1       1.796   2.007  19.207  0.00  0.00    +0.000 C 
BRANCH  12  13
ATOM     13  C   UNL     1       1.276   3.019  20.218  0.00  0.00    +0.000 C 
ATOM     14  C   UNL     1       1.134   4.420  19.663  0.00  0.00    +0.000 C 
ATOM     15  C   UNL     1       1.659   5.273  20.761  0.00  0.00    +0.000 C 
ATOM     16  O   UNL     1       1.535   6.485  20.822  0.00  0.00    +0.000 OA
ATOM     17  O   UNL     1       2.354   4.526  21.649  0.00  0.00    +0.000 OA
ATOM     18  C   UNL     1       2.251   3.216  21.338  0.00  0.00    +0.000 C 
ATOM     19  O   UNL     1       2.840   2.323  21.929  0.00  0.00    +0.000 OA
ENDBRANCH  12  13
ENDBRANCH   2  12
TORSDOF 10
ENDMDL
MODEL 5
REMARK VINA RESULT:      -5.9      3.228      5.246
REMARK  Name = 
REMARK  11 active torsions:
REMARK  status: ('A' for Active; 'I' for Inactive)
REMARK    1  A    between atoms: C_1  and  C_2
REMARK    2  A    between atoms: C_2  and  C_3
REMARK    3  A    between atoms: C_3  and  C_4
REMARK    4  A    between atoms: C_4  and  C_5
REMARK    5  A    between atoms: C_5  and  C_6
REMARK    6  A    between atoms: C_6  and  C_7
REMARK    7  A    between atoms: C_7  and  C_8
REMARK    8  A    between atoms: C_8  and  C_9
REMARK    9  A    between atoms: C_9  and  C_10
REMARK   10  A    between atoms: C_11  and  C_12
REMARK   11  A    between atoms: C_12  and  C_13
REMARK                            x       y       z     vdW  Elec       q    Type
REMARK                         _______ _______ _______ _____ _____    ______ ____
ROOT
ATOM      1  C   UNL     1       5.259   6.165  16.285  0.00  0.00    +0.000 C 
ATOM      2  C   UNL     1       6.485   5.669  16.492  0.00  0.00    +0.000 C 
ENDROOT
BRANCH   1   3
ATOM      3  C   UNL     1       4.492   6.881  17.353  0.00  0.00    +0.000 C 
BRANCH   3   4
ATOM      4  C   UNL     1       4.105   5.906  18.455  0.00  0.00    +0.000 C 
BRANCH   4   5
ATOM      5  C   UNL     1       3.495   4.647  17.858  0.00  0.00    +0.000 C 
BRANCH   5   6
ATOM      6  C   UNL     1       1.992   4.628  18.093  0.00  0.00    +0.000 C 
BRANCH   6   7
ATOM      7  C   UNL     1       1.438   3.229  17.872  0.00  0.00    +0.000 C 
BRANCH   7   8
ATOM      8  C   UNL     1       0.729   2.736  19.126  0.00  0.00    +0.000 C 
BRANCH   8   9
ATOM      9  C   UNL     1       0.917   3.727  20.266  0.00  0.00    +0.000 C 
BRANCH   9  11
ATOM     10  C   UNL     1       2.913   2.641  21.313  0.00  0.00    +0.000 C 
ATOM     11  C   UNL     1       1.460   3.031  21.508  0.00  0.00    +0.000 C 
ENDBRANCH   9  11
ENDBRANCH   8   9
ENDBRANCH   7   8
ENDBRANCH   6   7
ENDBRANCH   5   6
ENDBRANCH   4   5
ENDBRANCH   3   4
ENDBRANCH   1   3
BRANCH   2  12
ATOM     12  C   UNL     1       7.307   4.992  15.437  0.00  0.00    +0.000 C 
BRANCH  12  13
ATOM     13  C   UNL     1       6.572   4.931  14.105  0.00  0.00    +0.000 C 
ATOM     14  C   UNL     1       5.903   3.600  13.836  0.00  0.00    +0.000 C 
ATOM     15  C   UNL     1       6.206   3.355  12.402  0.00  0.00    +0.000 C 
ATOM     16  O   UNL     1       5.680   2.494  11.716  0.00  0.00    +0.000 OA
ATOM     17  O   UNL     1       7.198   4.172  11.982  0.00  0.00    +0.000 OA
ATOM     18  C   UNL     1       7.523   5.051  12.955  0.00  0.00    +0.000 C 
ATOM     19  O   UNL     1       8.438   5.857  12.873  0.00  0.00    +0.000 OA
ENDBRANCH  12  13
ENDBRANCH   2  12
TORSDOF 10
ENDMDL
MODEL 6
REMARK VINA RESULT:      -5.9      1.210      2.213
REMARK  Name = 
REMARK  11 active torsions:
REMARK  status: ('A' for Active; 'I' for Inactive)
REMARK    1  A    between atoms: C_1  and  C_2
REMARK    2  A    between atoms: C_2  and  C_3
REMARK    3  A    between atoms: C_3  and  C_4
REMARK    4  A    between atoms: C_4  and  C_5
REMARK    5  A    between atoms: C_5  and  C_6
REMARK    6  A    between atoms: C_6  and  C_7
REMARK    7  A    between atoms: C_7  and  C_8
REMARK    8  A    between atoms: C_8  and  C_9
REMARK    9  A    between atoms: C_9  and  C_10
REMARK   10  A    between atoms: C_11  and  C_12
REMARK   11  A    between atoms: C_12  and  C_13
REMARK                            x       y       z     vdW  Elec       q    Type
REMARK                         _______ _______ _______ _____ _____    ______ ____
ROOT
ATOM      1  C   UNL     1       3.679   2.868  17.139  0.00  0.00    +0.000 C 
ATOM      2  C   UNL     1       3.815   4.195  17.256  0.00  0.00    +0.000 C 
ENDROOT
BRANCH   1   3
ATOM      3  C   UNL     1       2.511   2.129  17.714  0.00  0.00    +0.000 C 
BRANCH   3   4
ATOM      4  C   UNL     1       2.610   2.102  19.232  0.00  0.00    +0.000 C 
BRANCH   4   5
ATOM      5  C   UNL     1       1.226   2.197  19.855  0.00  0.00    +0.000 C 
BRANCH   5   6
ATOM      6  C   UNL     1       1.270   3.066  21.103  0.00  0.00    +0.000 C 
BRANCH   6   7
ATOM      7  C   UNL     1       2.381   4.098  20.993  0.00  0.00    +0.000 C 
BRANCH   7   8
ATOM      8  C   UNL     1       1.796   5.484  20.758  0.00  0.00    +0.000 C 
BRANCH   8   9
ATOM      9  C   UNL     1       1.968   5.894  19.303  0.00  0.00    +0.000 C 
BRANCH   9  11
ATOM     10  C   UNL     1       2.642   7.804  17.834  0.00  0.00    +0.000 C 
ATOM     11  C   UNL     1       2.826   7.148  19.189  0.00  0.00    +0.000 C 
ENDBRANCH   9  11
ENDBRANCH   8   9
ENDBRANCH   7   8
ENDBRANCH   6   7
ENDBRANCH   5   6
ENDBRANCH   4   5
ENDBRANCH   3   4
ENDBRANCH   1   3
BRANCH   2  12
ATOM     12  C   UNL     1       4.941   4.980  16.652  0.00  0.00    +0.000 C 
BRANCH  12  13
ATOM     13  C   UNL     1       6.253   4.733  17.384  0.00  0.00    +0.000 C 
ATOM     14  C   UNL     1       6.124   4.749  18.892  0.00  0.00    +0.000 C 
ATOM     15  C   UNL     1       7.324   5.512  19.324  0.00  0.00    +0.000 C 
ATOM     16  O   UNL     1       7.728   5.584  20.474  0.00  0.00    +0.000 OA
ATOM     17  O   UNL     1       7.865   6.175  18.278  0.00  0.00    +0.000 OA
ATOM     18  C   UNL     1       7.230   5.840  17.134  0.00  0.00    +0.000 C 
ATOM     19  O   UNL     1       7.464   6.345  16.045  0.00  0.00    +0.000 OA
ENDBRANCH  12  13
ENDBRANCH   2  12
TORSDOF 10
ENDMDL
MODEL 7
REMARK VINA RESULT:      -5.9      1.253      3.767
REMARK  Name = 
REMARK  11 active torsions:
REMARK  status: ('A' for Active; 'I' for Inactive)
REMARK    1  A    between atoms: C_1  and  C_2
REMARK    2  A    between atoms: C_2  and  C_3
REMARK    3  A    between atoms: C_3  and  C_4
REMARK    4  A    between atoms: C_4  and  C_5
REMARK    5  A    between atoms: C_5  and  C_6
REMARK    6  A    between atoms: C_6  and  C_7
REMARK    7  A    between atoms: C_7  and  C_8
REMARK    8  A    between atoms: C_8  and  C_9
REMARK    9  A    between atoms: C_9  and  C_10
REMARK   10  A    between atoms: C_11  and  C_12
REMARK   11  A    between atoms: C_12  and  C_13
REMARK                            x       y       z     vdW  Elec       q    Type
REMARK                         _______ _______ _______ _____ _____    ______ ____
ROOT
ATOM      1  C   UNL     1       3.035   6.446  17.965  0.00  0.00    +0.000 C 
ATOM      2  C   UNL     1       4.173   6.567  17.271  0.00  0.00    +0.000 C 
ENDROOT
BRANCH   1   3
ATOM      3  C   UNL     1       2.385   7.609  18.648  0.00  0.00    +0.000 C 
BRANCH   3   4
ATOM      4  C   UNL     1       2.222   7.314  20.132  0.00  0.00    +0.000 C 
BRANCH   4   5
ATOM      5  C   UNL     1       1.279   6.138  20.338  0.00  0.00    +0.000 C 
BRANCH   5   6
ATOM      6  C   UNL     1       2.073   4.862  20.575  0.00  0.00    +0.000 C 
BRANCH   6   7
ATOM      7  C   UNL     1       1.134   3.687  20.801  0.00  0.00    +0.000 C 
BRANCH   7   8
ATOM      8  C   UNL     1       1.329   2.638  19.715  0.00  0.00    +0.000 C 
BRANCH   8   9
ATOM      9  C   UNL     1       1.599   3.306  18.374  0.00  0.00    +0.000 C 
BRANCH   9  11
ATOM     10  C   UNL     1       3.523   1.706  18.313  0.00  0.00    +0.000 C 
ATOM     11  C   UNL     1       2.466   2.418  17.489  0.00  0.00    +0.000 C 
ENDBRANCH   9  11
ENDBRANCH   8   9
ENDBRANCH   7   8
ENDBRANCH   6   7
ENDBRANCH   5   6
ENDBRANCH   4   5
ENDBRANCH   3   4
ENDBRANCH   1   3
BRANCH   2  12
ATOM     12  C   UNL     1       4.828   5.441  16.530  0.00  0.00    +0.000 C 
BRANCH  12  13
ATOM     13  C   UNL     1       6.050   4.916  17.271  0.00  0.00    +0.000 C 
ATOM     14  C   UNL     1       5.910   4.948  18.778  0.00  0.00    +0.000 C 
ATOM     15  C   UNL     1       7.239   5.436  19.230  0.00  0.00    +0.000 C 
ATOM     16  O   UNL     1       7.636   5.412  20.384  0.00  0.00    +0.000 OA
ATOM     17  O   UNL     1       7.921   5.977  18.195  0.00  0.00    +0.000 OA
ATOM     18  C   UNL     1       7.242   5.793  17.041  0.00  0.00    +0.000 C 
ATOM     19  O   UNL     1       7.591   6.244  15.960  0.00  0.00    +0.000 OA
ENDBRANCH  12  13
ENDBRANCH   2  12
TORSDOF 10
ENDMDL
MODEL 8
REMARK VINA RESULT:      -5.9      2.308      5.457
REMARK  Name = 
REMARK  11 active torsions:
REMARK  status: ('A' for Active; 'I' for Inactive)
REMARK    1  A    between atoms: C_1  and  C_2
REMARK    2  A    between atoms: C_2  and  C_3
REMARK    3  A    between atoms: C_3  and  C_4
REMARK    4  A    between atoms: C_4  and  C_5
REMARK    5  A    between atoms: C_5  and  C_6
REMARK    6  A    between atoms: C_6  and  C_7
REMARK    7  A    between atoms: C_7  and  C_8
REMARK    8  A    between atoms: C_8  and  C_9
REMARK    9  A    between atoms: C_9  and  C_10
REMARK   10  A    between atoms: C_11  and  C_12
REMARK   11  A    between atoms: C_12  and  C_13
REMARK                            x       y       z     vdW  Elec       q    Type
REMARK                         _______ _______ _______ _____ _____    ______ ____
ROOT
ATOM      1  C   UNL     1       3.281   5.245  18.161  0.00  0.00    +0.000 C 
ATOM      2  C   UNL     1       2.609   4.122  17.880  0.00  0.00    +0.000 C 
ENDROOT
BRANCH   1   3
ATOM      3  C   UNL     1       2.621   6.588  18.190  0.00  0.00    +0.000 C 
BRANCH   3   4
ATOM      4  C   UNL     1       3.552   7.637  17.600  0.00  0.00    +0.000 C 
BRANCH   4   5
ATOM      5  C   UNL     1       4.776   6.973  16.988  0.00  0.00    +0.000 C 
BRANCH   5   6
ATOM      6  C   UNL     1       6.037   7.722  17.392  0.00  0.00    +0.000 C 
BRANCH   6   7
ATOM      7  C   UNL     1       7.259   6.830  17.233  0.00  0.00    +0.000 C 
BRANCH   7   8
ATOM      8  C   UNL     1       7.281   5.764  18.320  0.00  0.00    +0.000 C 
BRANCH   8   9
ATOM      9  C   UNL     1       6.940   4.401  17.734  0.00  0.00    +0.000 C 
BRANCH   9  11
ATOM     10  C   UNL     1       5.922   3.777  15.534  0.00  0.00    +0.000 C 
ATOM     11  C   UNL     1       7.124   4.399  16.220  0.00  0.00    +0.000 C 
ENDBRANCH   9  11
ENDBRANCH   8   9
ENDBRANCH   7   8
ENDBRANCH   6   7
ENDBRANCH   5   6
ENDBRANCH   4   5
ENDBRANCH   3   4
ENDBRANCH   1   3
BRANCH   2  12
ATOM     12  C   UNL     1       3.219   2.753  17.891  0.00  0.00    +0.000 C 
BRANCH  12  13
ATOM     13  C   UNL     1       2.922   2.015  19.189  0.00  0.00    +0.000 C 
ATOM     14  C   UNL     1       1.631   2.444  19.854  0.00  0.00    +0.000 C 
ATOM     15  C   UNL     1       2.001   2.518  21.292  0.00  0.00    +0.000 C 
ATOM     16  O   UNL     1       1.206   2.623  22.211  0.00  0.00    +0.000 OA
ATOM     17  O   UNL     1       3.346   2.524  21.434  0.00  0.00    +0.000 OA
ATOM     18  C   UNL     1       3.943   2.331  20.238  0.00  0.00    +0.000 C 
ATOM     19  O   UNL     1       5.152   2.364  20.062  0.00  0.00    +0.000 OA
ENDBRANCH  12  13
ENDBRANCH   2  12
TORSDOF 10
ENDMDL
MODEL 9
REMARK VINA RESULT:      -5.9      2.189      4.076
REMARK  Name = 
REMARK  11 active torsions:
REMARK  status: ('A' for Active; 'I' for Inactive)
REMARK    1  A    between atoms: C_1  and  C_2
REMARK    2  A    between atoms: C_2  and  C_3
REMARK    3  A    between atoms: C_3  and  C_4
REMARK    4  A    between atoms: C_4  and  C_5
REMARK    5  A    between atoms: C_5  and  C_6
REMARK    6  A    between atoms: C_6  and  C_7
REMARK    7  A    between atoms: C_7  and  C_8
REMARK    8  A    between atoms: C_8  and  C_9
REMARK    9  A    between atoms: C_9  and  C_10
REMARK   10  A    between atoms: C_11  and  C_12
REMARK   11  A    between atoms: C_12  and  C_13
REMARK                            x       y       z     vdW  Elec       q    Type
REMARK                         _______ _______ _______ _____ _____    ______ ____
ROOT
ATOM      1  C   UNL     1       3.871   6.288  18.210  0.00  0.00    +0.000 C 
ATOM      2  C   UNL     1       3.806   5.415  17.197  0.00  0.00    +0.000 C 
ENDROOT
BRANCH   1   3
ATOM      3  C   UNL     1       2.662   7.003  18.730  0.00  0.00    +0.000 C 
BRANCH   3   4
ATOM      4  C   UNL     1       2.217   6.380  20.044  0.00  0.00    +0.000 C 
BRANCH   4   5
ATOM      5  C   UNL     1       2.915   5.046  20.261  0.00  0.00    +0.000 C 
BRANCH   5   6
ATOM      6  C   UNL     1       2.080   4.157  21.171  0.00  0.00    +0.000 C 
BRANCH   6   7
ATOM      7  C   UNL     1       0.811   3.713  20.460  0.00  0.00    +0.000 C 
BRANCH   7   8
ATOM      8  C   UNL     1       1.059   3.586  18.963  0.00  0.00    +0.000 C 
BRANCH   8   9
ATOM      9  C   UNL     1       1.368   2.142  18.597  0.00  0.00    +0.000 C 
BRANCH   9  11
ATOM     10  C   UNL     1       3.758   1.400  18.539  0.00  0.00    +0.000 C 
ATOM     11  C   UNL     1       2.635   2.053  17.754  0.00  0.00    +0.000 C 
ENDBRANCH   9  11
ENDBRANCH   8   9
ENDBRANCH   7   8
ENDBRANCH   6   7
ENDBRANCH   5   6
ENDBRANCH   4   5
ENDBRANCH   3   4
ENDBRANCH   1   3
BRANCH   2  12
ATOM     12  C   UNL     1       4.981   4.641  16.680  0.00  0.00    +0.000 C 
BRANCH  12  13
ATOM     13  C   UNL     1       5.511   5.226  15.378  0.00  0.00    +0.000 C 
ATOM     14  C   UNL     1       5.530   4.242  14.228  0.00  0.00    +0.000 C 
ATOM     15  C   UNL     1       6.837   4.513  13.574  0.00  0.00    +0.000 C 
ATOM     16  O   UNL     1       7.169   4.088  12.480  0.00  0.00    +0.000 OA
ATOM     17  O   UNL     1       7.634   5.236  14.392  0.00  0.00    +0.000 OA
ATOM     18  C   UNL     1       6.955   5.604  15.501  0.00  0.00    +0.000 C 
ATOM     19  O   UNL     1       7.453   6.202  16.443  0.00  0.00    +0.000 OA
ENDBRANCH  12  13
ENDBRANCH   2  12
TORSDOF 10
ENDMDL
