MODEL 1
REMARK VINA RESULT:      -7.7      0.000      0.000
REMARK  Name = 
REMARK  7 active torsions:
REMARK  status: ('A' for Active; 'I' for Inactive)
REMARK    1  A    between atoms: C_1  and  C_2
REMARK    2  A    between atoms: C_2  and  C_3
REMARK    3  A    between atoms: C_2  and  O_4
REMARK    4  A    between atoms: O_4  and  C_5
REMARK    5  A    between atoms: C_5  and  C_7
REMARK    6  A    between atoms: C_11  and  C_12
REMARK    7  A    between atoms: C_15  and  C_16
REMARK                            x       y       z     vdW  Elec       q    Type
REMARK                         _______ _______ _______ _____ _____    ______ ____
ROOT
ATOM      1  C   UNL     1       5.498   5.050  15.722  0.00  0.00    +0.000 A 
ATOM      2  C   UNL     1       5.383   6.398  16.087  0.00  0.00    +0.000 A 
ATOM      3  C   UNL     1       4.467   6.784  17.061  0.00  0.00    +0.000 A 
ATOM      4  C   UNL     1       3.678   5.822  17.693  0.00  0.00    +0.000 A 
ATOM      5  C   UNL     1       3.789   4.462  17.364  0.00  0.00    +0.000 A 
ATOM      6  C   UNL     1       4.692   4.090  16.355  0.00  0.00    +0.000 A 
ENDROOT
BRANCH   5   7
ATOM      7  C   UNL     1       3.018   3.463  18.105  0.00  0.00    +0.000 A 
ATOM      8  C   UNL     1       2.300   2.341  17.741  0.00  0.00    +0.000 A 
ATOM      9  C   UNL     1       1.701   1.834  18.918  0.00  0.00    +0.000 A 
ATOM     10  C   UNL     1       2.097   2.664  19.944  0.00  0.00    +0.000 A 
ATOM     11  O   UNL     1       2.906   3.651  19.456  0.00  0.00    +0.000 OA
BRANCH  10  12
ATOM     12  C   UNL     1       1.794   2.653  21.351  0.00  0.00    +0.000 C 
ATOM     13  O   UNL     1       2.274   3.419  22.182  0.00  0.00    +0.000 OA
ENDBRANCH  10  12
ENDBRANCH   5   7
BRANCH   1  14
ATOM     14  C   UNL     1       6.523   4.694  14.701  0.00  0.00    +0.000 C 
ATOM     15  O   UNL     1       7.581   5.293  14.585  0.00  0.00    +0.000 OA
BRANCH  14  16
ATOM     16  O   UNL     1       6.124   3.630  13.962  0.00  0.00    +0.000 OA
BRANCH  16  18
ATOM     17  C   UNL     1       7.156   3.081  11.844  0.00  0.00    +0.000 C 
ATOM     18  C   UNL     1       6.044   3.855  12.542  0.00  0.00    +0.000 C 
ATOM     19  C   UNL     1       4.679   3.367  12.073  0.00  0.00    +0.000 C 
ENDBRANCH  16  18
ENDBRANCH  14  16
ENDBRANCH   1  14
TORSDOF 5
ENDMDL
MODEL 2
REMARK VINA RESULT:      -7.6      1.206      1.416
REMARK  Name = 
REMARK  7 active torsions:
REMARK  status: ('A' for Active; 'I' for Inactive)
REMARK    1  A    between atoms: C_1  and  C_2
REMARK    2  A    between atoms: C_2  and  C_3
REMARK    3  A    between atoms: C_2  and  O_4
REMARK    4  A    between atoms: O_4  and  C_5
REMARK    5  A    between atoms: C_5  and  C_7
REMARK    6  A    between atoms: C_11  and  C_12
REMARK    7  A    between atoms: C_15  and  C_16
REMARK                            x       y       z     vdW  Elec       q    Type
REMARK                         _______ _______ _______ _____ _____    ______ ____
ROOT
ATOM      1  C   UNL     1       6.183   4.415  15.603  0.00  0.00    +0.000 A 
ATOM      2  C   UNL     1       7.268   4.616  16.466  0.00  0.00    +0.000 A 
ATOM      3  C   UNL     1       7.078   4.601  17.845  0.00  0.00    +0.000 A 
ATOM      4  C   UNL     1       5.807   4.361  18.369  0.00  0.00    +0.000 A 
ATOM      5  C   UNL     1       4.707   4.133  17.528  0.00  0.00    +0.000 A 
ATOM      6  C   UNL     1       4.905   4.185  16.138  0.00  0.00    +0.000 A 
ENDROOT
BRANCH   5   7
ATOM      7  C   UNL     1       3.404   3.792  18.100  0.00  0.00    +0.000 A 
ATOM      8  C   UNL     1       2.103   3.868  17.642  0.00  0.00    +0.000 A 
ATOM      9  C   UNL     1       1.266   3.464  18.708  0.00  0.00    +0.000 A 
ATOM     10  C   UNL     1       2.099   3.147  19.758  0.00  0.00    +0.000 A 
ATOM     11  O   UNL     1       3.401   3.335  19.391  0.00  0.00    +0.000 OA
BRANCH  10  12
ATOM     12  C   UNL     1       1.817   2.692  21.094  0.00  0.00    +0.000 C 
ATOM     13  O   UNL     1       2.234   3.220  22.122  0.00  0.00    +0.000 OA
ENDBRANCH  10  12
ENDBRANCH   5   7
BRANCH   1  14
ATOM     14  C   UNL     1       6.455   4.404  14.138  0.00  0.00    +0.000 C 
ATOM     15  O   UNL     1       7.286   5.128  13.612  0.00  0.00    +0.000 OA
BRANCH  14  16
ATOM     16  O   UNL     1       5.681   3.487  13.507  0.00  0.00    +0.000 OA
BRANCH  16  18
ATOM     17  C   UNL     1       6.712   2.251  11.700  0.00  0.00    +0.000 C 
ATOM     18  C   UNL     1       5.825   3.433  12.075  0.00  0.00    +0.000 C 
ATOM     19  C   UNL     1       4.434   3.269  11.476  0.00  0.00    +0.000 C 
ENDBRANCH  16  18
ENDBRANCH  14  16
ENDBRANCH   1  14
TORSDOF 5
ENDMDL
MODEL 3
REMARK VINA RESULT:      -7.2      1.233      6.720
REMARK  Name = 
REMARK  7 active torsions:
REMARK  status: ('A' for Active; 'I' for Inactive)
REMARK    1  A    between atoms: C_1  and  C_2
REMARK    2  A    between atoms: C_2  and  C_3
REMARK    3  A    between atoms: C_2  and  O_4
REMARK    4  A    between atoms: O_4  and  C_5
REMARK    5  A    between atoms: C_5  and  C_7
REMARK    6  A    between atoms: C_11  and  C_12
REMARK    7  A    between atoms: C_15  and  C_16
REMARK                            x       y       z     vdW  Elec       q    Type
REMARK                         _______ _______ _______ _____ _____    ______ ____
ROOT
ATOM      1  C   UNL     1       4.490   4.602  18.012  0.00  0.00    +0.000 A 
ATOM      2  C   UNL     1       4.180   5.961  18.143  0.00  0.00    +0.000 A 
ATOM      3  C   UNL     1       4.481   6.850  17.114  0.00  0.00    +0.000 A 
ATOM      4  C   UNL     1       5.072   6.381  15.940  0.00  0.00    +0.000 A 
ATOM      5  C   UNL     1       5.371   5.020  15.773  0.00  0.00    +0.000 A 
ATOM      6  C   UNL     1       5.095   4.139  16.832  0.00  0.00    +0.000 A 
ENDROOT
BRANCH   5   7
ATOM      7  C   UNL     1       5.905   4.538  14.499  0.00  0.00    +0.000 A 
ATOM      8  C   UNL     1       7.124   4.659  13.861  0.00  0.00    +0.000 A 
ATOM      9  C   UNL     1       6.992   4.036  12.597  0.00  0.00    +0.000 A 
ATOM     10  C   UNL     1       5.703   3.552  12.535  0.00  0.00    +0.000 A 
ATOM     11  O   UNL     1       5.041   3.846  13.693  0.00  0.00    +0.000 OA
BRANCH  10  12
ATOM     12  C   UNL     1       4.999   2.846  11.498  0.00  0.00    +0.000 C 
ATOM     13  O   UNL     1       3.851   3.088  11.133  0.00  0.00    +0.000 OA
ENDBRANCH  10  12
ENDBRANCH   5   7
BRANCH   1  14
ATOM     14  C   UNL     1       4.109   3.693  19.130  0.00  0.00    +0.000 C 
ATOM     15  O   UNL     1       4.895   2.919  19.653  0.00  0.00    +0.000 OA
BRANCH  14  16
ATOM     16  O   UNL     1       2.810   3.866  19.476  0.00  0.00    +0.000 OA
BRANCH  16  18
ATOM     17  C   UNL     1       1.358   2.968  21.191  0.00  0.00    +0.000 C 
ATOM     18  C   UNL     1       2.116   2.677  19.900  0.00  0.00    +0.000 C 
ATOM     19  C   UNL     1       1.150   2.284  18.790  0.00  0.00    +0.000 C 
ENDBRANCH  16  18
ENDBRANCH  14  16
ENDBRANCH   1  14
TORSDOF 5
ENDMDL
MODEL 4
REMARK VINA RESULT:      -7.1      0.969      1.071
REMARK  Name = 
REMARK  7 active torsions:
REMARK  status: ('A' for Active; 'I' for Inactive)
REMARK    1  A    between atoms: C_1  and  C_2
REMARK    2  A    between atoms: C_2  and  C_3
REMARK    3  A    between atoms: C_2  and  O_4
REMARK    4  A    between atoms: O_4  and  C_5
REMARK    5  A    between atoms: C_5  and  C_7
REMARK    6  A    between atoms: C_11  and  C_12
REMARK    7  A    between atoms: C_15  and  C_16
REMARK                            x       y       z     vdW  Elec       q    Type
REMARK                         _______ _______ _______ _____ _____    ______ ____
ROOT
ATOM      1  C   UNL     1       5.652   5.127  15.540  0.00  0.00    +0.000 A 
ATOM      2  C   UNL     1       5.257   6.471  15.576  0.00  0.00    +0.000 A 
ATOM      3  C   UNL     1       4.444   6.934  16.607  0.00  0.00    +0.000 A 
ATOM      4  C   UNL     1       4.042   6.063  17.620  0.00  0.00    +0.000 A 
ATOM      5  C   UNL     1       4.443   4.718  17.622  0.00  0.00    +0.000 A 
ATOM      6  C   UNL     1       5.234   4.254  16.558  0.00  0.00    +0.000 A 
ENDROOT
BRANCH   5   7
ATOM      7  C   UNL     1       4.085   3.847  18.742  0.00  0.00    +0.000 A 
ATOM      8  C   UNL     1       4.685   2.757  19.341  0.00  0.00    +0.000 A 
ATOM      9  C   UNL     1       3.794   2.290  20.336  0.00  0.00    +0.000 A 
ATOM     10  C   UNL     1       2.702   3.130  20.305  0.00  0.00    +0.000 A 
ATOM     11  O   UNL     1       2.878   4.084  19.343  0.00  0.00    +0.000 OA
BRANCH  10  12
ATOM     12  C   UNL     1       1.484   3.139  21.071  0.00  0.00    +0.000 C 
ATOM     13  O   UNL     1       1.336   2.605  22.167  0.00  0.00    +0.000 OA
ENDBRANCH  10  12
ENDBRANCH   5   7
BRANCH   1  14
ATOM     14  C   UNL     1       6.553   4.699  14.433  0.00  0.00    +0.000 C 
ATOM     15  O   UNL     1       7.607   5.262  14.180  0.00  0.00    +0.000 OA
BRANCH  14  16
ATOM     16  O   UNL     1       6.051   3.618  13.788  0.00  0.00    +0.000 OA
BRANCH  16  18
ATOM     17  C   UNL     1       7.030   2.732  11.760  0.00  0.00    +0.000 C 
ATOM     18  C   UNL     1       6.021   3.710  12.352  0.00  0.00    +0.000 C 
ATOM     19  C   UNL     1       4.610   3.362  11.896  0.00  0.00    +0.000 C 
ENDBRANCH  16  18
ENDBRANCH  14  16
ENDBRANCH   1  14
TORSDOF 5
ENDMDL
MODEL 5
REMARK VINA RESULT:      -7.0      1.746      6.640
REMARK  Name = 
REMARK  7 active torsions:
REMARK  status: ('A' for Active; 'I' for Inactive)
REMARK    1  A    between atoms: C_1  and  C_2
REMARK    2  A    between atoms: C_2  and  C_3
REMARK    3  A    between atoms: C_2  and  O_4
REMARK    4  A    between atoms: O_4  and  C_5
REMARK    5  A    between atoms: C_5  and  C_7
REMARK    6  A    between atoms: C_11  and  C_12
REMARK    7  A    between atoms: C_15  and  C_16
REMARK                            x       y       z     vdW  Elec       q    Type
REMARK                         _______ _______ _______ _____ _____    ______ ____
ROOT
ATOM      1  C   UNL     1       5.514   4.483  18.231  0.00  0.00    +0.000 A 
ATOM      2  C   UNL     1       6.191   5.578  18.782  0.00  0.00    +0.000 A 
ATOM      3  C   UNL     1       7.081   6.314  18.005  0.00  0.00    +0.000 A 
ATOM      4  C   UNL     1       7.281   5.974  16.666  0.00  0.00    +0.000 A 
ATOM      5  C   UNL     1       6.597   4.897  16.082  0.00  0.00    +0.000 A 
ATOM      6  C   UNL     1       5.729   4.141  16.885  0.00  0.00    +0.000 A 
ENDROOT
BRANCH   5   7
ATOM      7  C   UNL     1       6.753   4.618  14.654  0.00  0.00    +0.000 A 
ATOM      8  C   UNL     1       7.581   5.110  13.663  0.00  0.00    +0.000 A 
ATOM      9  C   UNL     1       7.185   4.496  12.452  0.00  0.00    +0.000 A 
ATOM     10  C   UNL     1       6.145   3.648  12.767  0.00  0.00    +0.000 A 
ATOM     11  O   UNL     1       5.885   3.711  14.106  0.00  0.00    +0.000 OA
BRANCH  10  12
ATOM     12  C   UNL     1       5.342   2.779  11.948  0.00  0.00    +0.000 C 
ATOM     13  O   UNL     1       4.259   3.079  11.452  0.00  0.00    +0.000 OA
ENDBRANCH  10  12
ENDBRANCH   5   7
BRANCH   1  14
ATOM     14  C   UNL     1       4.546   3.757  19.100  0.00  0.00    +0.000 C 
ATOM     15  O   UNL     1       4.797   2.681  19.619  0.00  0.00    +0.000 OA
BRANCH  14  16
ATOM     16  O   UNL     1       3.393   4.458  19.235  0.00  0.00    +0.000 OA
BRANCH  16  18
ATOM     17  C   UNL     1       1.235   3.915  20.184  0.00  0.00    +0.000 C 
ATOM     18  C   UNL     1       2.182   3.713  19.007  0.00  0.00    +0.000 C 
ATOM     19  C   UNL     1       1.555   4.235  17.721  0.00  0.00    +0.000 C 
ENDBRANCH  16  18
ENDBRANCH  14  16
ENDBRANCH   1  14
TORSDOF 5
ENDMDL
MODEL 6
REMARK VINA RESULT:      -6.9      1.295      7.006
REMARK  Name = 
REMARK  7 active torsions:
REMARK  status: ('A' for Active; 'I' for Inactive)
REMARK    1  A    between atoms: C_1  and  C_2
REMARK    2  A    between atoms: C_2  and  C_3
REMARK    3  A    between atoms: C_2  and  O_4
REMARK    4  A    between atoms: O_4  and  C_5
REMARK    5  A    between atoms: C_5  and  C_7
REMARK    6  A    between atoms: C_11  and  C_12
REMARK    7  A    between atoms: C_15  and  C_16
REMARK                            x       y       z     vdW  Elec       q    Type
REMARK                         _______ _______ _______ _____ _____    ______ ____
ROOT
ATOM      1  C   UNL     1       3.896   4.427  17.565  0.00  0.00    +0.000 A 
ATOM      2  C   UNL     1       4.009   5.760  17.982  0.00  0.00    +0.000 A 
ATOM      3  C   UNL     1       4.797   6.653  17.263  0.00  0.00    +0.000 A 
ATOM      4  C   UNL     1       5.460   6.226  16.111  0.00  0.00    +0.000 A 
ATOM      5  C   UNL     1       5.346   4.903  15.658  0.00  0.00    +0.000 A 
ATOM      6  C   UNL     1       4.575   4.002  16.411  0.00  0.00    +0.000 A 
ENDROOT
BRANCH   5   7
ATOM      7  C   UNL     1       5.974   4.503  14.399  0.00  0.00    +0.000 A 
ATOM      8  C   UNL     1       7.133   4.871  13.744  0.00  0.00    +0.000 A 
ATOM      9  C   UNL     1       7.145   4.183  12.508  0.00  0.00    +0.000 A 
ATOM     10  C   UNL     1       5.999   3.418  12.477  0.00  0.00    +0.000 A 
ATOM     11  O   UNL     1       5.288   3.602  13.629  0.00  0.00    +0.000 OA
BRANCH  10  12
ATOM     12  C   UNL     1       5.473   2.529  11.476  0.00  0.00    +0.000 C 
ATOM     13  O   UNL     1       5.866   1.383  11.272  0.00  0.00    +0.000 OA
ENDBRANCH  10  12
ENDBRANCH   5   7
BRANCH   1  14
ATOM     14  C   UNL     1       3.007   3.527  18.352  0.00  0.00    +0.000 C 
ATOM     15  O   UNL     1       2.288   2.687  17.835  0.00  0.00    +0.000 OA
BRANCH  14  16
ATOM     16  O   UNL     1       3.129   3.764  19.682  0.00  0.00    +0.000 OA
BRANCH  16  18
ATOM     17  C   UNL     1       2.057   3.006  21.714  0.00  0.00    +0.000 C 
ATOM     18  C   UNL     1       1.895   3.799  20.422  0.00  0.00    +0.000 C 
ATOM     19  C   UNL     1       1.581   5.258  20.728  0.00  0.00    +0.000 C 
ENDBRANCH  16  18
ENDBRANCH  14  16
ENDBRANCH   1  14
TORSDOF 5
ENDMDL
MODEL 7
REMARK VINA RESULT:      -6.9      1.276      1.495
REMARK  Name = 
REMARK  7 active torsions:
REMARK  status: ('A' for Active; 'I' for Inactive)
REMARK    1  A    between atoms: C_1  and  C_2
REMARK    2  A    between atoms: C_2  and  C_3
REMARK    3  A    between atoms: C_2  and  O_4
REMARK    4  A    between atoms: O_4  and  C_5
REMARK    5  A    between atoms: C_5  and  C_7
REMARK    6  A    between atoms: C_11  and  C_12
REMARK    7  A    between atoms: C_15  and  C_16
REMARK                            x       y       z     vdW  Elec       q    Type
REMARK                         _______ _______ _______ _____ _____    ______ ____
ROOT
ATOM      1  C   UNL     1       5.564   5.533  16.971  0.00  0.00    +0.000 A 
ATOM      2  C   UNL     1       5.241   6.893  16.880  0.00  0.00    +0.000 A 
ATOM      3  C   UNL     1       3.979   7.340  17.261  0.00  0.00    +0.000 A 
ATOM      4  C   UNL     1       3.040   6.434  17.757  0.00  0.00    +0.000 A 
ATOM      5  C   UNL     1       3.345   5.069  17.880  0.00  0.00    +0.000 A 
ATOM      6  C   UNL     1       4.609   4.625  17.461  0.00  0.00    +0.000 A 
ENDROOT
BRANCH   5   7
ATOM      7  C   UNL     1       2.378   4.155  18.488  0.00  0.00    +0.000 A 
ATOM      8  C   UNL     1       1.218   3.549  18.045  0.00  0.00    +0.000 A 
ATOM      9  C   UNL     1       0.679   2.836  19.142  0.00  0.00    +0.000 A 
ATOM     10  C   UNL     1       1.547   3.030  20.195  0.00  0.00    +0.000 A 
ATOM     11  O   UNL     1       2.586   3.823  19.800  0.00  0.00    +0.000 OA
BRANCH  10  12
ATOM     12  C   UNL     1       1.512   2.564  21.556  0.00  0.00    +0.000 C 
ATOM     13  O   UNL     1       2.454   2.615  22.343  0.00  0.00    +0.000 OA
ENDBRANCH  10  12
ENDBRANCH   5   7
BRANCH   1  14
ATOM     14  C   UNL     1       6.942   5.120  16.586  0.00  0.00    +0.000 C 
ATOM     15  O   UNL     1       7.939   5.498  17.181  0.00  0.00    +0.000 OA
BRANCH  14  16
ATOM     16  O   UNL     1       6.919   4.276  15.526  0.00  0.00    +0.000 OA
BRANCH  16  18
ATOM     17  C   UNL     1       7.760   5.053  13.394  0.00  0.00    +0.000 C 
ATOM     18  C   UNL     1       6.527   4.865  14.271  0.00  0.00    +0.000 C 
ATOM     19  C   UNL     1       5.537   3.919  13.605  0.00  0.00    +0.000 C 
ENDBRANCH  16  18
ENDBRANCH  14  16
ENDBRANCH   1  14
TORSDOF 5
ENDMDL
MODEL 8
REMARK VINA RESULT:      -6.9      1.275      6.740
REMARK  Name = 
REMARK  7 active torsions:
REMARK  status: ('A' for Active; 'I' for Inactive)
REMARK    1  A    between atoms: C_1  and  C_2
REMARK    2  A    between atoms: C_2  and  C_3
REMARK    3  A    between atoms: C_2  and  O_4
REMARK    4  A    between atoms: O_4  and  C_5
REMARK    5  A    between atoms: C_5  and  C_7
REMARK    6  A    between atoms: C_11  and  C_12
REMARK    7  A    between atoms: C_15  and  C_16
REMARK                            x       y       z     vdW  Elec       q    Type
REMARK                         _______ _______ _______ _____ _____    ______ ____
ROOT
ATOM      1  C   UNL     1       3.479   4.868  17.605  0.00  0.00    +0.000 A 
ATOM      2  C   UNL     1       3.748   6.161  18.070  0.00  0.00    +0.000 A 
ATOM      3  C   UNL     1       4.728   6.936  17.456  0.00  0.00    +0.000 A 
ATOM      4  C   UNL     1       5.427   6.431  16.359  0.00  0.00    +0.000 A 
ATOM      5  C   UNL     1       5.161   5.147  15.858  0.00  0.00    +0.000 A 
ATOM      6  C   UNL     1       4.195   4.363  16.507  0.00  0.00    +0.000 A 
ENDROOT
BRANCH   5   7
ATOM      7  C   UNL     1       5.842   4.676  14.651  0.00  0.00    +0.000 A 
ATOM      8  C   UNL     1       7.083   4.915  14.093  0.00  0.00    +0.000 A 
ATOM      9  C   UNL     1       7.120   4.224  12.859  0.00  0.00    +0.000 A 
ATOM     10  C   UNL     1       5.905   3.585  12.734  0.00  0.00    +0.000 A 
ATOM     11  O   UNL     1       5.128   3.849  13.826  0.00  0.00    +0.000 OA
BRANCH  10  12
ATOM     12  C   UNL     1       5.369   2.752  11.691  0.00  0.00    +0.000 C 
ATOM     13  O   UNL     1       4.241   2.855  11.215  0.00  0.00    +0.000 OA
ENDBRANCH  10  12
ENDBRANCH   5   7
BRANCH   1  14
ATOM     14  C   UNL     1       2.393   4.101  18.278  0.00  0.00    +0.000 C 
ATOM     15  O   UNL     1       1.457   3.604  17.671  0.00  0.00    +0.000 OA
BRANCH  14  16
ATOM     16  O   UNL     1       2.606   4.027  19.615  0.00  0.00    +0.000 OA
BRANCH  16  18
ATOM     17  C   UNL     1       4.282   2.354  20.109  0.00  0.00    +0.000 C 
ATOM     18  C   UNL     1       2.798   2.700  20.140  0.00  0.00    +0.000 C 
ATOM     19  C   UNL     1       2.277   2.691  21.572  0.00  0.00    +0.000 C 
ENDBRANCH  16  18
ENDBRANCH  14  16
ENDBRANCH   1  14
TORSDOF 5
ENDMDL
MODEL 9
REMARK VINA RESULT:      -6.9      1.762      6.708
REMARK  Name = 
REMARK  7 active torsions:
REMARK  status: ('A' for Active; 'I' for Inactive)
REMARK    1  A    between atoms: C_1  and  C_2
REMARK    2  A    between atoms: C_2  and  C_3
REMARK    3  A    between atoms: C_2  and  O_4
REMARK    4  A    between atoms: O_4  and  C_5
REMARK    5  A    between atoms: C_5  and  C_7
REMARK    6  A    between atoms: C_11  and  C_12
REMARK    7  A    between atoms: C_15  and  C_16
REMARK                            x       y       z     vdW  Elec       q    Type
REMARK                         _______ _______ _______ _____ _____    ______ ____
ROOT
ATOM      1  C   UNL     1       4.788   5.281  17.795  0.00  0.00    +0.000 A 
ATOM      2  C   UNL     1       5.864   5.283  18.691  0.00  0.00    +0.000 A 
ATOM      3  C   UNL     1       7.144   4.956  18.249  0.00  0.00    +0.000 A 
ATOM      4  C   UNL     1       7.358   4.649  16.904  0.00  0.00    +0.000 A 
ATOM      5  C   UNL     1       6.302   4.663  15.980  0.00  0.00    +0.000 A 
ATOM      6  C   UNL     1       5.010   4.960  16.445  0.00  0.00    +0.000 A 
ENDROOT
BRANCH   5   7
ATOM      7  C   UNL     1       6.566   4.428  14.561  0.00  0.00    +0.000 A 
ATOM      8  C   UNL     1       7.472   4.944  13.654  0.00  0.00    +0.000 A 
ATOM      9  C   UNL     1       7.168   4.373  12.396  0.00  0.00    +0.000 A 
ATOM     10  C   UNL     1       6.101   3.525  12.602  0.00  0.00    +0.000 A 
ATOM     11  O   UNL     1       5.738   3.547  13.918  0.00  0.00    +0.000 OA
BRANCH  10  12
ATOM     12  C   UNL     1       5.359   2.689  11.695  0.00  0.00    +0.000 C 
ATOM     13  O   UNL     1       5.689   1.559  11.347  0.00  0.00    +0.000 OA
ENDBRANCH  10  12
ENDBRANCH   5   7
BRANCH   1  14
ATOM     14  C   UNL     1       3.450   5.676  18.317  0.00  0.00    +0.000 C 
ATOM     15  O   UNL     1       2.871   6.689  17.960  0.00  0.00    +0.000 OA
BRANCH  14  16
ATOM     16  O   UNL     1       2.985   4.762  19.204  0.00  0.00    +0.000 OA
BRANCH  16  18
ATOM     17  C   UNL     1       1.932   2.907  18.061  0.00  0.00    +0.000 C 
ATOM     18  C   UNL     1       1.711   4.174  18.879  0.00  0.00    +0.000 C 
ATOM     19  C   UNL     1       1.005   3.848  20.189  0.00  0.00    +0.000 C 
ENDBRANCH  16  18
ENDBRANCH  14  16
ENDBRANCH   1  14
TORSDOF 5
ENDMDL
