MODEL 1
REMARK VINA RESULT:      -8.3      0.000      0.000
REMARK  Name = 
REMARK  11 active torsions:
REMARK  status: ('A' for Active; 'I' for Inactive)
REMARK    1  A    between atoms: C_1  and  O_2
REMARK    2  A    between atoms: O_2  and  C_3
REMARK    3  A    between atoms: C_6  and  C_7
REMARK    4  A    between atoms: C_7  and  C_8
REMARK    5  A    between atoms: C_8  and  N_9
REMARK    6  A    between atoms: C_10  and  C_12
REMARK    7  A    between atoms: C_17  and  O_18
REMARK    8  A    between atoms: O_18  and  C_19
REMARK    9  A    between atoms: C_19  and  C_20
REMARK   10  A    between atoms: C_21  and  C_22
REMARK   11  A    between atoms: C_25  and  C_26
REMARK                            x       y       z     vdW  Elec       q    Type
REMARK                         _______ _______ _______ _____ _____    ______ ____
ROOT
ATOM      1  C   UNL     1       6.840   5.348  17.692  0.00  0.00    +0.000 A 
ATOM      2  C   UNL     1       7.577   4.852  16.598  0.00  0.00    +0.000 A 
ATOM      3  C   UNL     1       6.985   4.594  15.365  0.00  0.00    +0.000 A 
ATOM      4  C   UNL     1       5.609   4.647  15.262  0.00  0.00    +0.000 A 
ATOM      5  C   UNL     1       4.848   4.936  16.395  0.00  0.00    +0.000 A 
ATOM      6  C   UNL     1       5.440   5.316  17.617  0.00  0.00    +0.000 A 
ENDROOT
BRANCH   1   8
ATOM      7  N   UNL     1       8.259   7.119  18.714  0.00  0.00    +0.000 N 
ATOM      8  C   UNL     1       7.651   5.874  18.831  0.00  0.00    +0.000 C 
ATOM      9  O   UNL     1       7.779   5.229  19.868  0.00  0.00    +0.000 OA
ATOM     10  H   UNL     1       8.657   7.440  19.591  0.00  0.00    +0.000 HD
BRANCH   7  11
ATOM     11  C   UNL     1       8.080   8.101  17.643  0.00  0.00    +0.000 C 
BRANCH  11  12
ATOM     12  C   UNL     1       7.797   9.533  18.077  0.00  0.00    +0.000 C 
BRANCH  12  16
ATOM     13  C   UNL     1      11.240  11.763  19.324  0.00  0.00    +0.000 A 
ATOM     14  C   UNL     1      10.937  11.644  17.969  0.00  0.00    +0.000 A 
ATOM     15  C   UNL     1       9.825  10.912  17.561  0.00  0.00    +0.000 A 
ATOM     16  C   UNL     1       9.020  10.277  18.510  0.00  0.00    +0.000 A 
ATOM     17  C   UNL     1       9.356  10.357  19.868  0.00  0.00    +0.000 A 
ATOM     18  C   UNL     1      10.463  11.095  20.271  0.00  0.00    +0.000 A 
BRANCH  13  20
ATOM     19  C   UNL     1      12.077  13.931  19.655  0.00  0.00    +0.000 C 
ATOM     20  O   UNL     1      12.333  12.532  19.616  0.00  0.00    +0.000 OA
ENDBRANCH  13  20
ENDBRANCH  12  16
ENDBRANCH  11  12
ENDBRANCH   7  11
ENDBRANCH   1   8
BRANCH   6  21
ATOM     21  O   UNL     1       4.483   5.534  18.567  0.00  0.00    +0.000 OA
BRANCH  21  22
ATOM     22  C   UNL     1       3.115   5.702  18.213  0.00  0.00    +0.000 C 
BRANCH  22  23
ATOM     23  C   UNL     1       2.268   4.759  19.009  0.00  0.00    +0.000 A 
ATOM     24  C   UNL     1       1.509   5.024  20.187  0.00  0.00    +0.000 A 
ATOM     25  C   UNL     1       1.351   6.295  20.932  0.00  0.00    +0.000 C 
ATOM     26  N   UNL     1       0.880   3.927  20.624  0.00  0.00    +0.000 NA
ATOM     27  O   UNL     1       1.200   2.928  19.731  0.00  0.00    +0.000 OA
ATOM     28  C   UNL     1       2.019   3.424  18.768  0.00  0.00    +0.000 A 
ATOM     29  C   UNL     1       2.429   2.478  17.714  0.00  0.00    +0.000 C 
ENDBRANCH  22  23
ENDBRANCH  21  22
ENDBRANCH   6  21
TORSDOF 8
ENDMDL
MODEL 2
REMARK VINA RESULT:      -8.3      0.763      1.228
REMARK  Name = 
REMARK  11 active torsions:
REMARK  status: ('A' for Active; 'I' for Inactive)
REMARK    1  A    between atoms: C_1  and  O_2
REMARK    2  A    between atoms: O_2  and  C_3
REMARK    3  A    between atoms: C_6  and  C_7
REMARK    4  A    between atoms: C_7  and  C_8
REMARK    5  A    between atoms: C_8  and  N_9
REMARK    6  A    between atoms: C_10  and  C_12
REMARK    7  A    between atoms: C_17  and  O_18
REMARK    8  A    between atoms: O_18  and  C_19
REMARK    9  A    between atoms: C_19  and  C_20
REMARK   10  A    between atoms: C_21  and  C_22
REMARK   11  A    between atoms: C_25  and  C_26
REMARK                            x       y       z     vdW  Elec       q    Type
REMARK                         _______ _______ _______ _____ _____    ______ ____
ROOT
ATOM      1  C   UNL     1       6.836   5.305  17.828  0.00  0.00    +0.000 A 
ATOM      2  C   UNL     1       7.575   4.896  16.700  0.00  0.00    +0.000 A 
ATOM      3  C   UNL     1       6.965   4.597  15.485  0.00  0.00    +0.000 A 
ATOM      4  C   UNL     1       5.587   4.517  15.434  0.00  0.00    +0.000 A 
ATOM      5  C   UNL     1       4.845   4.718  16.599  0.00  0.00    +0.000 A 
ATOM      6  C   UNL     1       5.444   5.138  17.804  0.00  0.00    +0.000 A 
ENDROOT
BRANCH   1   8
ATOM      7  N   UNL     1       8.247   7.129  18.765  0.00  0.00    +0.000 N 
ATOM      8  C   UNL     1       7.635   5.893  18.945  0.00  0.00    +0.000 C 
ATOM      9  O   UNL     1       7.750   5.307  20.018  0.00  0.00    +0.000 OA
ATOM     10  H   UNL     1       8.635   7.498  19.626  0.00  0.00    +0.000 HD
BRANCH   7  11
ATOM     11  C   UNL     1       8.082   8.049  17.638  0.00  0.00    +0.000 C 
BRANCH  11  12
ATOM     12  C   UNL     1       7.760   9.496  17.987  0.00  0.00    +0.000 C 
BRANCH  12  16
ATOM     13  C   UNL     1      11.233  11.642  19.294  0.00  0.00    +0.000 A 
ATOM     14  C   UNL     1      10.369  11.075  20.229  0.00  0.00    +0.000 A 
ATOM     15  C   UNL     1       9.235  10.386  19.807  0.00  0.00    +0.000 A 
ATOM     16  C   UNL     1       8.949  10.278  18.444  0.00  0.00    +0.000 A 
ATOM     17  C   UNL     1       9.793  10.893  17.509  0.00  0.00    +0.000 A 
ATOM     18  C   UNL     1      10.928  11.574  17.934  0.00  0.00    +0.000 A 
BRANCH  13  20
ATOM     19  C   UNL     1      12.249  13.687  19.837  0.00  0.00    +0.000 C 
ATOM     20  O   UNL     1      12.333  12.267  19.814  0.00  0.00    +0.000 OA
ENDBRANCH  13  20
ENDBRANCH  12  16
ENDBRANCH  11  12
ENDBRANCH   7  11
ENDBRANCH   1   8
BRANCH   6  21
ATOM     21  O   UNL     1       4.507   5.250  18.791  0.00  0.00    +0.000 OA
BRANCH  21  22
ATOM     22  C   UNL     1       4.316   4.214  19.749  0.00  0.00    +0.000 C 
BRANCH  22  23
ATOM     23  C   UNL     1       2.996   3.549  19.515  0.00  0.00    +0.000 A 
ATOM     24  C   UNL     1       1.702   3.965  19.949  0.00  0.00    +0.000 A 
ATOM     25  C   UNL     1       1.318   5.160  20.737  0.00  0.00    +0.000 C 
ATOM     26  N   UNL     1       0.752   3.109  19.553  0.00  0.00    +0.000 NA
ATOM     27  O   UNL     1       1.404   2.127  18.839  0.00  0.00    +0.000 OA
ATOM     28  C   UNL     1       2.735   2.394  18.810  0.00  0.00    +0.000 A 
ATOM     29  C   UNL     1       3.571   1.443  18.054  0.00  0.00    +0.000 C 
ENDBRANCH  22  23
ENDBRANCH  21  22
ENDBRANCH   6  21
TORSDOF 8
ENDMDL
MODEL 3
REMARK VINA RESULT:      -8.3      4.474      7.678
REMARK  Name = 
REMARK  11 active torsions:
REMARK  status: ('A' for Active; 'I' for Inactive)
REMARK    1  A    between atoms: C_1  and  O_2
REMARK    2  A    between atoms: O_2  and  C_3
REMARK    3  A    between atoms: C_6  and  C_7
REMARK    4  A    between atoms: C_7  and  C_8
REMARK    5  A    between atoms: C_8  and  N_9
REMARK    6  A    between atoms: C_10  and  C_12
REMARK    7  A    between atoms: C_17  and  O_18
REMARK    8  A    between atoms: O_18  and  C_19
REMARK    9  A    between atoms: C_19  and  C_20
REMARK   10  A    between atoms: C_21  and  C_22
REMARK   11  A    between atoms: C_25  and  C_26
REMARK                            x       y       z     vdW  Elec       q    Type
REMARK                         _______ _______ _______ _____ _____    ______ ____
ROOT
ATOM      1  C   UNL     1       2.833   4.572  18.841  0.00  0.00    +0.000 A 
ATOM      2  C   UNL     1       1.736   4.398  19.708  0.00  0.00    +0.000 A 
ATOM      3  C   UNL     1       0.969   3.236  19.704  0.00  0.00    +0.000 A 
ATOM      4  C   UNL     1       1.169   2.308  18.701  0.00  0.00    +0.000 A 
ATOM      5  C   UNL     1       2.117   2.565  17.710  0.00  0.00    +0.000 A 
ATOM      6  C   UNL     1       2.980   3.678  17.770  0.00  0.00    +0.000 A 
ENDROOT
BRANCH   1   8
ATOM      7  N   UNL     1       3.442   6.980  18.696  0.00  0.00    +0.000 N 
ATOM      8  C   UNL     1       3.743   5.710  19.173  0.00  0.00    +0.000 C 
ATOM      9  O   UNL     1       4.742   5.539  19.865  0.00  0.00    +0.000 OA
ATOM     10  H   UNL     1       4.038   7.697  19.098  0.00  0.00    +0.000 HD
BRANCH   7  11
ATOM     11  C   UNL     1       2.220   7.411  18.013  0.00  0.00    +0.000 C 
BRANCH  11  12
ATOM     12  C   UNL     1       2.025   8.913  17.857  0.00  0.00    +0.000 C 
BRANCH  12  16
ATOM     13  C   UNL     1      -0.525  10.691  20.809  0.00  0.00    +0.000 A 
ATOM     14  C   UNL     1       0.394   9.711  21.179  0.00  0.00    +0.000 A 
ATOM     15  C   UNL     1       1.217   9.125  20.220  0.00  0.00    +0.000 A 
ATOM     16  C   UNL     1       1.109   9.505  18.880  0.00  0.00    +0.000 A 
ATOM     17  C   UNL     1       0.148  10.453  18.504  0.00  0.00    +0.000 A 
ATOM     18  C   UNL     1      -0.665  11.042  19.466  0.00  0.00    +0.000 A 
BRANCH  13  20
ATOM     19  C   UNL     1      -1.067  10.586  23.090  0.00  0.00    +0.000 C 
ATOM     20  O   UNL     1      -1.258  11.225  21.833  0.00  0.00    +0.000 OA
ENDBRANCH  13  20
ENDBRANCH  12  16
ENDBRANCH  11  12
ENDBRANCH   7  11
ENDBRANCH   1   8
BRANCH   6  21
ATOM     21  O   UNL     1       3.802   3.708  16.680  0.00  0.00    +0.000 OA
BRANCH  21  22
ATOM     22  C   UNL     1       5.160   3.288  16.766  0.00  0.00    +0.000 C 
BRANCH  22  23
ATOM     23  C   UNL     1       6.027   4.224  15.984  0.00  0.00    +0.000 A 
ATOM     24  C   UNL     1       7.017   5.130  16.467  0.00  0.00    +0.000 A 
ATOM     25  C   UNL     1       7.455   5.384  17.860  0.00  0.00    +0.000 C 
ATOM     26  N   UNL     1       7.590   5.811  15.467  0.00  0.00    +0.000 NA
ATOM     27  O   UNL     1       6.997   5.351  14.310  0.00  0.00    +0.000 OA
ATOM     28  C   UNL     1       6.075   4.403  14.618  0.00  0.00    +0.000 A 
ATOM     29  C   UNL     1       5.371   3.789  13.478  0.00  0.00    +0.000 C 
ENDBRANCH  22  23
ENDBRANCH  21  22
ENDBRANCH   6  21
TORSDOF 8
ENDMDL
MODEL 4
REMARK VINA RESULT:      -8.1      4.660      7.682
REMARK  Name = 
REMARK  11 active torsions:
REMARK  status: ('A' for Active; 'I' for Inactive)
REMARK    1  A    between atoms: C_1  and  O_2
REMARK    2  A    between atoms: O_2  and  C_3
REMARK    3  A    between atoms: C_6  and  C_7
REMARK    4  A    between atoms: C_7  and  C_8
REMARK    5  A    between atoms: C_8  and  N_9
REMARK    6  A    between atoms: C_10  and  C_12
REMARK    7  A    between atoms: C_17  and  O_18
REMARK    8  A    between atoms: O_18  and  C_19
REMARK    9  A    between atoms: C_19  and  C_20
REMARK   10  A    between atoms: C_21  and  C_22
REMARK   11  A    between atoms: C_25  and  C_26
REMARK                            x       y       z     vdW  Elec       q    Type
REMARK                         _______ _______ _______ _____ _____    ______ ____
ROOT
ATOM      1  C   UNL     1       2.031   3.814  19.092  0.00  0.00    +0.000 A 
ATOM      2  C   UNL     1       1.149   3.654  20.179  0.00  0.00    +0.000 A 
ATOM      3  C   UNL     1       1.560   3.104  21.390  0.00  0.00    +0.000 A 
ATOM      4  C   UNL     1       2.813   2.529  21.470  0.00  0.00    +0.000 A 
ATOM      5  C   UNL     1       3.625   2.495  20.335  0.00  0.00    +0.000 A 
ATOM      6  C   UNL     1       3.268   3.153  19.140  0.00  0.00    +0.000 A 
ENDROOT
BRANCH   1   8
ATOM      7  N   UNL     1       1.829   6.056  18.034  0.00  0.00    +0.000 N 
ATOM      8  C   UNL     1       1.545   4.696  17.990  0.00  0.00    +0.000 C 
ATOM      9  O   UNL     1       0.909   4.237  17.045  0.00  0.00    +0.000 OA
ATOM     10  H   UNL     1       1.582   6.532  17.172  0.00  0.00    +0.000 HD
BRANCH   7  11
ATOM     11  C   UNL     1       2.712   6.753  18.972  0.00  0.00    +0.000 C 
BRANCH  11  12
ATOM     12  C   UNL     1       2.071   7.253  20.260  0.00  0.00    +0.000 C 
BRANCH  12  16
ATOM     13  C   UNL     1      -0.033  10.957  19.781  0.00  0.00    +0.000 A 
ATOM     14  C   UNL     1       0.751  10.459  18.743  0.00  0.00    +0.000 A 
ATOM     15  C   UNL     1       1.444   9.261  18.899  0.00  0.00    +0.000 A 
ATOM     16  C   UNL     1       1.369   8.564  20.108  0.00  0.00    +0.000 A 
ATOM     17  C   UNL     1       0.621   9.094  21.168  0.00  0.00    +0.000 A 
ATOM     18  C   UNL     1      -0.075  10.286  21.004  0.00  0.00    +0.000 A 
BRANCH  13  20
ATOM     19  C   UNL     1      -2.115  12.009  19.522  0.00  0.00    +0.000 C 
ATOM     20  O   UNL     1      -0.696  12.122  19.511  0.00  0.00    +0.000 OA
ENDBRANCH  13  20
ENDBRANCH  12  16
ENDBRANCH  11  12
ENDBRANCH   7  11
ENDBRANCH   1   8
BRANCH   6  21
ATOM     21  O   UNL     1       4.222   2.959  18.182  0.00  0.00    +0.000 OA
BRANCH  21  22
ATOM     22  C   UNL     1       4.270   3.769  17.012  0.00  0.00    +0.000 C 
BRANCH  22  23
ATOM     23  C   UNL     1       5.646   4.332  16.844  0.00  0.00    +0.000 A 
ATOM     24  C   UNL     1       6.466   4.980  17.815  0.00  0.00    +0.000 A 
ATOM     25  C   UNL     1       6.181   5.264  19.241  0.00  0.00    +0.000 C 
ATOM     26  N   UNL     1       7.641   5.356  17.294  0.00  0.00    +0.000 NA
ATOM     27  O   UNL     1       7.618   4.946  15.979  0.00  0.00    +0.000 OA
ATOM     28  C   UNL     1       6.437   4.331  15.714  0.00  0.00    +0.000 A 
ATOM     29  C   UNL     1       6.270   3.806  14.347  0.00  0.00    +0.000 C 
ENDBRANCH  22  23
ENDBRANCH  21  22
ENDBRANCH   6  21
TORSDOF 8
ENDMDL
MODEL 5
REMARK VINA RESULT:      -8.1      4.609      7.844
REMARK  Name = 
REMARK  11 active torsions:
REMARK  status: ('A' for Active; 'I' for Inactive)
REMARK    1  A    between atoms: C_1  and  O_2
REMARK    2  A    between atoms: O_2  and  C_3
REMARK    3  A    between atoms: C_6  and  C_7
REMARK    4  A    between atoms: C_7  and  C_8
REMARK    5  A    between atoms: C_8  and  N_9
REMARK    6  A    between atoms: C_10  and  C_12
REMARK    7  A    between atoms: C_17  and  O_18
REMARK    8  A    between atoms: O_18  and  C_19
REMARK    9  A    between atoms: C_19  and  C_20
REMARK   10  A    between atoms: C_21  and  C_22
REMARK   11  A    between atoms: C_25  and  C_26
REMARK                            x       y       z     vdW  Elec       q    Type
REMARK                         _______ _______ _______ _____ _____    ______ ____
ROOT
ATOM      1  C   UNL     1       2.027   3.642  19.076  0.00  0.00    +0.000 A 
ATOM      2  C   UNL     1       1.129   3.483  20.150  0.00  0.00    +0.000 A 
ATOM      3  C   UNL     1       1.546   3.048  21.404  0.00  0.00    +0.000 A 
ATOM      4  C   UNL     1       2.838   2.582  21.552  0.00  0.00    +0.000 A 
ATOM      5  C   UNL     1       3.682   2.539  20.442  0.00  0.00    +0.000 A 
ATOM      6  C   UNL     1       3.310   3.088  19.197  0.00  0.00    +0.000 A 
ENDROOT
BRANCH   1   8
ATOM      7  N   UNL     1       1.771   5.771  17.813  0.00  0.00    +0.000 N 
ATOM      8  C   UNL     1       1.505   4.409  17.906  0.00  0.00    +0.000 C 
ATOM      9  O   UNL     1       0.855   3.855  17.024  0.00  0.00    +0.000 OA
ATOM     10  H   UNL     1       1.500   6.159  16.915  0.00  0.00    +0.000 HD
BRANCH   7  11
ATOM     11  C   UNL     1       2.665   6.564  18.660  0.00  0.00    +0.000 C 
BRANCH  11  12
ATOM     12  C   UNL     1       2.803   8.038  18.304  0.00  0.00    +0.000 C 
BRANCH  12  16
ATOM     13  C   UNL     1      -0.392  10.411  19.897  0.00  0.00    +0.000 A 
ATOM     14  C   UNL     1       0.033  10.603  18.584  0.00  0.00    +0.000 A 
ATOM     15  C   UNL     1       1.077   9.840  18.067  0.00  0.00    +0.000 A 
ATOM     16  C   UNL     1       1.716   8.893  18.872  0.00  0.00    +0.000 A 
ATOM     17  C   UNL     1       1.320   8.739  20.207  0.00  0.00    +0.000 A 
ATOM     18  C   UNL     1       0.272   9.497  20.716  0.00  0.00    +0.000 A 
BRANCH  13  20
ATOM     19  C   UNL     1      -2.084  11.898  19.238  0.00  0.00    +0.000 C 
ATOM     20  O   UNL     1      -1.446  11.188  20.293  0.00  0.00    +0.000 OA
ENDBRANCH  13  20
ENDBRANCH  12  16
ENDBRANCH  11  12
ENDBRANCH   7  11
ENDBRANCH   1   8
BRANCH   6  21
ATOM     21  O   UNL     1       4.303   2.909  18.277  0.00  0.00    +0.000 OA
BRANCH  21  22
ATOM     22  C   UNL     1       4.320   3.642  17.057  0.00  0.00    +0.000 C 
BRANCH  22  23
ATOM     23  C   UNL     1       5.666   4.267  16.863  0.00  0.00    +0.000 A 
ATOM     24  C   UNL     1       6.447   4.344  15.672  0.00  0.00    +0.000 A 
ATOM     25  C   UNL     1       6.136   3.837  14.314  0.00  0.00    +0.000 C 
ATOM     26  N   UNL     1       7.607   4.977  15.884  0.00  0.00    +0.000 NA
ATOM     27  O   UNL     1       7.600   5.340  17.214  0.00  0.00    +0.000 OA
ATOM     28  C   UNL     1       6.444   4.925  17.792  0.00  0.00    +0.000 A 
ATOM     29  C   UNL     1       6.272   5.266  19.217  0.00  0.00    +0.000 C 
ENDBRANCH  22  23
ENDBRANCH  21  22
ENDBRANCH   6  21
TORSDOF 8
ENDMDL
MODEL 6
REMARK VINA RESULT:      -8.1      3.763      7.673
REMARK  Name = 
REMARK  11 active torsions:
REMARK  status: ('A' for Active; 'I' for Inactive)
REMARK    1  A    between atoms: C_1  and  O_2
REMARK    2  A    between atoms: O_2  and  C_3
REMARK    3  A    between atoms: C_6  and  C_7
REMARK    4  A    between atoms: C_7  and  C_8
REMARK    5  A    between atoms: C_8  and  N_9
REMARK    6  A    between atoms: C_10  and  C_12
REMARK    7  A    between atoms: C_17  and  O_18
REMARK    8  A    between atoms: O_18  and  C_19
REMARK    9  A    between atoms: C_19  and  C_20
REMARK   10  A    between atoms: C_21  and  C_22
REMARK   11  A    between atoms: C_25  and  C_26
REMARK                            x       y       z     vdW  Elec       q    Type
REMARK                         _______ _______ _______ _____ _____    ______ ____
ROOT
ATOM      1  C   UNL     1       2.130   3.798  19.130  0.00  0.00    +0.000 A 
ATOM      2  C   UNL     1       1.078   3.349  19.953  0.00  0.00    +0.000 A 
ATOM      3  C   UNL     1       1.306   2.806  21.214  0.00  0.00    +0.000 A 
ATOM      4  C   UNL     1       2.604   2.528  21.595  0.00  0.00    +0.000 A 
ATOM      5  C   UNL     1       3.648   2.777  20.703  0.00  0.00    +0.000 A 
ATOM      6  C   UNL     1       3.441   3.436  19.474  0.00  0.00    +0.000 A 
ENDROOT
BRANCH   1   8
ATOM      7  N   UNL     1       1.974   6.004  17.990  0.00  0.00    +0.000 N 
ATOM      8  C   UNL     1       1.724   4.637  17.963  0.00  0.00    +0.000 C 
ATOM      9  O   UNL     1       1.183   4.136  16.981  0.00  0.00    +0.000 OA
ATOM     10  H   UNL     1       1.795   6.449  17.096  0.00  0.00    +0.000 HD
BRANCH   7  11
ATOM     11  C   UNL     1       2.756   6.748  18.980  0.00  0.00    +0.000 C 
BRANCH  11  12
ATOM     12  C   UNL     1       2.034   7.131  20.265  0.00  0.00    +0.000 C 
BRANCH  12  16
ATOM     13  C   UNL     1       0.228  11.016  20.112  0.00  0.00    +0.000 A 
ATOM     14  C   UNL     1       0.159  10.258  21.280  0.00  0.00    +0.000 A 
ATOM     15  C   UNL     1       0.736   8.992  21.329  0.00  0.00    +0.000 A 
ATOM     16  C   UNL     1       1.370   8.469  20.199  0.00  0.00    +0.000 A 
ATOM     17  C   UNL     1       1.393   9.212  19.011  0.00  0.00    +0.000 A 
ATOM     18  C   UNL     1       0.822  10.479  18.970  0.00  0.00    +0.000 A 
BRANCH  13  20
ATOM     19  C   UNL     1      -1.747  12.275  19.960  0.00  0.00    +0.000 C 
ATOM     20  O   UNL     1      -0.341  12.258  20.183  0.00  0.00    +0.000 OA
ENDBRANCH  13  20
ENDBRANCH  12  16
ENDBRANCH  11  12
ENDBRANCH   7  11
ENDBRANCH   1   8
BRANCH   6  21
ATOM     21  O   UNL     1       4.615   3.548  18.786  0.00  0.00    +0.000 OA
BRANCH  21  22
ATOM     22  C   UNL     1       5.566   4.558  19.106  0.00  0.00    +0.000 C 
BRANCH  22  23
ATOM     23  C   UNL     1       6.121   5.145  17.846  0.00  0.00    +0.000 A 
ATOM     24  C   UNL     1       7.199   6.067  17.695  0.00  0.00    +0.000 A 
ATOM     25  C   UNL     1       8.056   6.683  18.734  0.00  0.00    +0.000 C 
ATOM     26  N   UNL     1       7.408   6.372  16.408  0.00  0.00    +0.000 NA
ATOM     27  O   UNL     1       6.483   5.643  15.693  0.00  0.00    +0.000 OA
ATOM     28  C   UNL     1       5.724   4.908  16.547  0.00  0.00    +0.000 A 
ATOM     29  C   UNL     1       4.701   4.046  15.928  0.00  0.00    +0.000 C 
ENDBRANCH  22  23
ENDBRANCH  21  22
ENDBRANCH   6  21
TORSDOF 8
ENDMDL
MODEL 7
REMARK VINA RESULT:      -8.0      4.609      7.816
REMARK  Name = 
REMARK  11 active torsions:
REMARK  status: ('A' for Active; 'I' for Inactive)
REMARK    1  A    between atoms: C_1  and  O_2
REMARK    2  A    between atoms: O_2  and  C_3
REMARK    3  A    between atoms: C_6  and  C_7
REMARK    4  A    between atoms: C_7  and  C_8
REMARK    5  A    between atoms: C_8  and  N_9
REMARK    6  A    between atoms: C_10  and  C_12
REMARK    7  A    between atoms: C_17  and  O_18
REMARK    8  A    between atoms: O_18  and  C_19
REMARK    9  A    between atoms: C_19  and  C_20
REMARK   10  A    between atoms: C_21  and  C_22
REMARK   11  A    between atoms: C_25  and  C_26
REMARK                            x       y       z     vdW  Elec       q    Type
REMARK                         _______ _______ _______ _____ _____    ______ ____
ROOT
ATOM      1  C   UNL     1       1.959   3.794  19.045  0.00  0.00    +0.000 A 
ATOM      2  C   UNL     1       1.146   3.683  20.190  0.00  0.00    +0.000 A 
ATOM      3  C   UNL     1       1.648   3.246  21.413  0.00  0.00    +0.000 A 
ATOM      4  C   UNL     1       2.928   2.730  21.462  0.00  0.00    +0.000 A 
ATOM      5  C   UNL     1       3.676   2.642  20.287  0.00  0.00    +0.000 A 
ATOM      6  C   UNL     1       3.225   3.191  19.070  0.00  0.00    +0.000 A 
ENDROOT
BRANCH   1   8
ATOM      7  N   UNL     1       1.493   5.954  17.900  0.00  0.00    +0.000 N 
ATOM      8  C   UNL     1       1.373   4.569  17.910  0.00  0.00    +0.000 C 
ATOM      9  O   UNL     1       0.798   4.001  16.986  0.00  0.00    +0.000 OA
ATOM     10  H   UNL     1       1.193   6.363  17.021  0.00  0.00    +0.000 HD
BRANCH   7  11
ATOM     11  C   UNL     1       2.284   6.787  18.808  0.00  0.00    +0.000 C 
BRANCH  11  12
ATOM     12  C   UNL     1       2.099   8.293  18.680  0.00  0.00    +0.000 C 
BRANCH  12  16
ATOM     13  C   UNL     1       0.313  10.075  22.146  0.00  0.00    +0.000 A 
ATOM     14  C   UNL     1       0.436  10.809  20.968  0.00  0.00    +0.000 A 
ATOM     15  C   UNL     1       1.025  10.235  19.844  0.00  0.00    +0.000 A 
ATOM     16  C   UNL     1       1.512   8.927  19.900  0.00  0.00    +0.000 A 
ATOM     17  C   UNL     1       1.433   8.210  21.101  0.00  0.00    +0.000 A 
ATOM     18  C   UNL     1       0.837   8.784  22.219  0.00  0.00    +0.000 A 
BRANCH  13  20
ATOM     19  C   UNL     1      -1.460  11.467  22.798  0.00  0.00    +0.000 C 
ATOM     20  O   UNL     1      -0.310  10.721  23.178  0.00  0.00    +0.000 OA
ENDBRANCH  13  20
ENDBRANCH  12  16
ENDBRANCH  11  12
ENDBRANCH   7  11
ENDBRANCH   1   8
BRANCH   6  21
ATOM     21  O   UNL     1       4.132   2.962  18.075  0.00  0.00    +0.000 OA
BRANCH  21  22
ATOM     22  C   UNL     1       4.263   3.857  16.975  0.00  0.00    +0.000 C 
BRANCH  22  23
ATOM     23  C   UNL     1       5.684   4.312  16.861  0.00  0.00    +0.000 A 
ATOM     24  C   UNL     1       6.539   4.282  15.720  0.00  0.00    +0.000 A 
ATOM     25  C   UNL     1       6.252   3.800  14.348  0.00  0.00    +0.000 C 
ATOM     26  N   UNL     1       7.752   4.772  16.001  0.00  0.00    +0.000 NA
ATOM     27  O   UNL     1       7.708   5.149  17.326  0.00  0.00    +0.000 OA
ATOM     28  C   UNL     1       6.477   4.882  17.834  0.00  0.00    +0.000 A 
ATOM     29  C   UNL     1       6.262   5.258  19.244  0.00  0.00    +0.000 C 
ENDBRANCH  22  23
ENDBRANCH  21  22
ENDBRANCH   6  21
TORSDOF 8
ENDMDL
MODEL 8
REMARK VINA RESULT:      -8.0      3.708      8.126
REMARK  Name = 
REMARK  11 active torsions:
REMARK  status: ('A' for Active; 'I' for Inactive)
REMARK    1  A    between atoms: C_1  and  O_2
REMARK    2  A    between atoms: O_2  and  C_3
REMARK    3  A    between atoms: C_6  and  C_7
REMARK    4  A    between atoms: C_7  and  C_8
REMARK    5  A    between atoms: C_8  and  N_9
REMARK    6  A    between atoms: C_10  and  C_12
REMARK    7  A    between atoms: C_17  and  O_18
REMARK    8  A    between atoms: O_18  and  C_19
REMARK    9  A    between atoms: C_19  and  C_20
REMARK   10  A    between atoms: C_21  and  C_22
REMARK   11  A    between atoms: C_25  and  C_26
REMARK                            x       y       z     vdW  Elec       q    Type
REMARK                         _______ _______ _______ _____ _____    ______ ____
ROOT
ATOM      1  C   UNL     1       2.818   5.812  18.556  0.00  0.00    +0.000 A 
ATOM      2  C   UNL     1       1.765   5.035  18.034  0.00  0.00    +0.000 A 
ATOM      3  C   UNL     1       1.593   3.697  18.376  0.00  0.00    +0.000 A 
ATOM      4  C   UNL     1       2.585   3.061  19.097  0.00  0.00    +0.000 A 
ATOM      5  C   UNL     1       3.737   3.766  19.447  0.00  0.00    +0.000 A 
ATOM      6  C   UNL     1       3.867   5.150  19.211  0.00  0.00    +0.000 A 
ENDROOT
BRANCH   1   8
ATOM      7  N   UNL     1       2.133   8.061  19.370  0.00  0.00    +0.000 N 
ATOM      8  C   UNL     1       2.691   7.287  18.359  0.00  0.00    +0.000 C 
ATOM      9  O   UNL     1       3.081   7.823  17.326  0.00  0.00    +0.000 OA
ATOM     10  H   UNL     1       2.230   9.056  19.195  0.00  0.00    +0.000 HD
BRANCH   7  11
ATOM     11  C   UNL     1       1.778   7.636  20.726  0.00  0.00    +0.000 C 
BRANCH  11  12
ATOM     12  C   UNL     1       0.297   7.665  21.078  0.00  0.00    +0.000 C 
BRANCH  12  16
ATOM     13  C   UNL     1      -1.047  11.617  22.052  0.00  0.00    +0.000 A 
ATOM     14  C   UNL     1      -0.857  10.676  23.061  0.00  0.00    +0.000 A 
ATOM     15  C   UNL     1      -0.430   9.388  22.746  0.00  0.00    +0.000 A 
ATOM     16  C   UNL     1      -0.210   9.031  21.414  0.00  0.00    +0.000 A 
ATOM     17  C   UNL     1      -0.452   9.965  20.398  0.00  0.00    +0.000 A 
ATOM     18  C   UNL     1      -0.870  11.252  20.717  0.00  0.00    +0.000 A 
BRANCH  13  20
ATOM     19  C   UNL     1      -0.393  13.828  22.490  0.00  0.00    +0.000 C 
ATOM     20  O   UNL     1      -1.435  12.860  22.473  0.00  0.00    +0.000 OA
ENDBRANCH  13  20
ENDBRANCH  12  16
ENDBRANCH  11  12
ENDBRANCH   7  11
ENDBRANCH   1   8
BRANCH   6  21
ATOM     21  O   UNL     1       5.087   5.596  19.634  0.00  0.00    +0.000 OA
BRANCH  21  22
ATOM     22  C   UNL     1       6.290   4.947  19.237  0.00  0.00    +0.000 C 
BRANCH  22  23
ATOM     23  C   UNL     1       6.740   5.483  17.915  0.00  0.00    +0.000 A 
ATOM     24  C   UNL     1       6.424   5.005  16.608  0.00  0.00    +0.000 A 
ATOM     25  C   UNL     1       5.568   3.863  16.210  0.00  0.00    +0.000 C 
ATOM     26  N   UNL     1       7.017   5.740  15.659  0.00  0.00    +0.000 NA
ATOM     27  O   UNL     1       7.718   6.722  16.326  0.00  0.00    +0.000 OA
ATOM     28  C   UNL     1       7.546   6.573  17.665  0.00  0.00    +0.000 A 
ATOM     29  C   UNL     1       8.214   7.572  18.519  0.00  0.00    +0.000 C 
ENDBRANCH  22  23
ENDBRANCH  21  22
ENDBRANCH   6  21
TORSDOF 8
ENDMDL
MODEL 9
REMARK VINA RESULT:      -8.0      3.757      6.420
REMARK  Name = 
REMARK  11 active torsions:
REMARK  status: ('A' for Active; 'I' for Inactive)
REMARK    1  A    between atoms: C_1  and  O_2
REMARK    2  A    between atoms: O_2  and  C_3
REMARK    3  A    between atoms: C_6  and  C_7
REMARK    4  A    between atoms: C_7  and  C_8
REMARK    5  A    between atoms: C_8  and  N_9
REMARK    6  A    between atoms: C_10  and  C_12
REMARK    7  A    between atoms: C_17  and  O_18
REMARK    8  A    between atoms: O_18  and  C_19
REMARK    9  A    between atoms: C_19  and  C_20
REMARK   10  A    between atoms: C_21  and  C_22
REMARK   11  A    between atoms: C_25  and  C_26
REMARK                            x       y       z     vdW  Elec       q    Type
REMARK                         _______ _______ _______ _____ _____    ______ ____
ROOT
ATOM      1  C   UNL     1       5.912   6.376  17.475  0.00  0.00    +0.000 A 
ATOM      2  C   UNL     1       6.947   7.312  17.669  0.00  0.00    +0.000 A 
ATOM      3  C   UNL     1       8.053   7.036  18.466  0.00  0.00    +0.000 A 
ATOM      4  C   UNL     1       8.050   5.890  19.237  0.00  0.00    +0.000 A 
ATOM      5  C   UNL     1       6.935   5.051  19.212  0.00  0.00    +0.000 A 
ATOM      6  C   UNL     1       5.863   5.258  18.321  0.00  0.00    +0.000 A 
ENDROOT
BRANCH   1   8
ATOM      7  N   UNL     1       3.690   7.143  16.657  0.00  0.00    +0.000 N 
ATOM      8  C   UNL     1       4.967   6.680  16.359  0.00  0.00    +0.000 C 
ATOM      9  O   UNL     1       5.304   6.537  15.187  0.00  0.00    +0.000 OA
ATOM     10  H   UNL     1       3.188   7.455  15.832  0.00  0.00    +0.000 HD
BRANCH   7  11
ATOM     11  C   UNL     1       3.169   7.540  17.967  0.00  0.00    +0.000 C 
BRANCH  11  12
ATOM     12  C   UNL     1       1.920   8.410  17.963  0.00  0.00    +0.000 C 
BRANCH  12  16
ATOM     13  C   UNL     1       0.655   9.715  21.846  0.00  0.00    +0.000 A 
ATOM     14  C   UNL     1       0.547  10.571  20.752  0.00  0.00    +0.000 A 
ATOM     15  C   UNL     1       0.967  10.153  19.492  0.00  0.00    +0.000 A 
ATOM     16  C   UNL     1       1.516   8.879  19.324  0.00  0.00    +0.000 A 
ATOM     17  C   UNL     1       1.670   8.040  20.436  0.00  0.00    +0.000 A 
ATOM     18  C   UNL     1       1.242   8.459  21.691  0.00  0.00    +0.000 A 
BRANCH  13  20
ATOM     19  C   UNL     1      -0.965  11.042  22.905  0.00  0.00    +0.000 C 
ATOM     20  O   UNL     1       0.183  10.212  23.030  0.00  0.00    +0.000 OA
ENDBRANCH  13  20
ENDBRANCH  12  16
ENDBRANCH  11  12
ENDBRANCH   7  11
ENDBRANCH   1   8
BRANCH   6  21
ATOM     21  O   UNL     1       4.896   4.310  18.504  0.00  0.00    +0.000 OA
BRANCH  21  22
ATOM     22  C   UNL     1       4.124   4.263  19.699  0.00  0.00    +0.000 C 
BRANCH  22  23
ATOM     23  C   UNL     1       2.783   3.667  19.409  0.00  0.00    +0.000 A 
ATOM     24  C   UNL     1       2.181   3.406  18.143  0.00  0.00    +0.000 A 
ATOM     25  C   UNL     1       2.719   3.647  16.783  0.00  0.00    +0.000 C 
ATOM     26  N   UNL     1       0.963   2.869  18.279  0.00  0.00    +0.000 NA
ATOM     27  O   UNL     1       0.752   2.752  19.636  0.00  0.00    +0.000 OA
ATOM     28  C   UNL     1       1.836   3.219  20.306  0.00  0.00    +0.000 A 
ATOM     29  C   UNL     1       1.776   3.135  21.777  0.00  0.00    +0.000 C 
ENDBRANCH  22  23
ENDBRANCH  21  22
ENDBRANCH   6  21
TORSDOF 8
ENDMDL
