MODEL 1
REMARK VINA RESULT:      -6.1      0.000      0.000
REMARK  Name = 
REMARK  13 active torsions:
REMARK  status: ('A' for Active; 'I' for Inactive)
REMARK    1  A    between atoms: C_2  and  O_3
REMARK    2  A    between atoms: C_2  and  C_4
REMARK    3  A    between atoms: C_4  and  C_5
REMARK    4  A    between atoms: C_5  and  C_6
REMARK    5  A    between atoms: C_6  and  C_7
REMARK    6  A    between atoms: C_8  and  C_9
REMARK    7  A    between atoms: C_10  and  C_11
REMARK    8  A    between atoms: C_12  and  C_13
REMARK    9  A    between atoms: C_13  and  C_14
REMARK   10  A    between atoms: C_14  and  C_15
REMARK   11  A    between atoms: C_15  and  C_16
REMARK   12  A    between atoms: C_16  and  C_17
REMARK   13  A    between atoms: C_18  and  C_19
REMARK                            x       y       z     vdW  Elec       q    Type
REMARK                         _______ _______ _______ _____ _____    ______ ____
ROOT
ATOM      1  C   UNL     1       8.749   9.193  18.528  0.00  0.00    +0.000 C 
ATOM      2  C   UNL     1       8.252   7.991  18.438  0.00  0.00    +0.000 C 
ENDROOT
BRANCH   1   4
ATOM      3  C   UNL     1       9.823  11.797  18.721  0.00  0.00    +0.000 C 
ATOM      4  C   UNL     1       9.327  10.595  18.632  0.00  0.00    +0.000 C 
BRANCH   3   5
ATOM      5  C   UNL     1      10.401  13.199  18.826  0.00  0.00    +0.000 C 
BRANCH   5   6
ATOM      6  C   UNL     1      10.859  13.662  17.439  0.00  0.00    +0.000 C 
BRANCH   6   7
ATOM      7  C   UNL     1      11.705  14.940  17.490  0.00  0.00    +0.000 C 
BRANCH   7   9
ATOM      8  O   UNL     1      10.589  17.079  17.703  0.00  0.00    +0.000 OA
ATOM      9  C   UNL     1      10.933  16.140  17.001  0.00  0.00    +0.000 C 
BRANCH   9  10
ATOM     10  O   UNL     1      10.609  16.062  15.690  0.00  0.00    +0.000 OA
ATOM     11  H   UNL     1       9.656  16.160  15.504  0.00  0.00    +0.000 HD
ENDBRANCH   9  10
ENDBRANCH   7   9
ENDBRANCH   6   7
ENDBRANCH   5   6
ENDBRANCH   3   5
ENDBRANCH   1   4
BRANCH   2  12
ATOM     12  C   UNL     1       7.674   6.589  18.333  0.00  0.00    +0.000 C 
ATOM     13  C   UNL     1       7.477   6.001  17.145  0.00  0.00    +0.000 C 
BRANCH  13  14
ATOM     14  C   UNL     1       6.899   4.621  16.997  0.00  0.00    +0.000 C 
BRANCH  14  15
ATOM     15  C   UNL     1       5.383   4.652  16.775  0.00  0.00    +0.000 C 
BRANCH  15  16
ATOM     16  C   UNL     1       4.963   5.926  16.034  0.00  0.00    +0.000 C 
BRANCH  16  17
ATOM     17  C   UNL     1       4.211   6.896  16.946  0.00  0.00    +0.000 C 
BRANCH  17  18
ATOM     18  C   UNL     1       3.510   6.181  18.024  0.00  0.00    +0.000 C 
ATOM     19  C   UNL     1       2.937   5.613  18.916  0.00  0.00    +0.000 C 
BRANCH  19  20
ATOM     20  C   UNL     1       2.277   4.951  19.986  0.00  0.00    +0.000 C 
ATOM     21  C   UNL     1       2.443   3.644  20.210  0.00  0.00    +0.000 C 
ATOM     22 BR   UNL     1       1.613   2.716  21.587  0.00  0.00    +0.000 Br
ENDBRANCH  19  20
ENDBRANCH  17  18
ENDBRANCH  16  17
ENDBRANCH  15  16
ENDBRANCH  14  15
ENDBRANCH  13  14
ENDBRANCH   2  12
TORSDOF 13
ENDMDL
MODEL 2
REMARK VINA RESULT:      -6.0      7.191      9.313
REMARK  Name = 
REMARK  13 active torsions:
REMARK  status: ('A' for Active; 'I' for Inactive)
REMARK    1  A    between atoms: C_2  and  O_3
REMARK    2  A    between atoms: C_2  and  C_4
REMARK    3  A    between atoms: C_4  and  C_5
REMARK    4  A    between atoms: C_5  and  C_6
REMARK    5  A    between atoms: C_6  and  C_7
REMARK    6  A    between atoms: C_8  and  C_9
REMARK    7  A    between atoms: C_10  and  C_11
REMARK    8  A    between atoms: C_12  and  C_13
REMARK    9  A    between atoms: C_13  and  C_14
REMARK   10  A    between atoms: C_14  and  C_15
REMARK   11  A    between atoms: C_15  and  C_16
REMARK   12  A    between atoms: C_16  and  C_17
REMARK   13  A    between atoms: C_18  and  C_19
REMARK                            x       y       z     vdW  Elec       q    Type
REMARK                         _______ _______ _______ _____ _____    ______ ____
ROOT
ATOM      1  C   UNL     1       5.045   3.540  16.255  0.00  0.00    +0.000 C 
ATOM      2  C   UNL     1       4.287   3.101  17.221  0.00  0.00    +0.000 C 
ENDROOT
BRANCH   1   4
ATOM      3  C   UNL     1       6.684   4.491  14.162  0.00  0.00    +0.000 C 
ATOM      4  C   UNL     1       5.927   4.052  15.128  0.00  0.00    +0.000 C 
BRANCH   3   5
ATOM      5  C   UNL     1       7.566   5.003  13.035  0.00  0.00    +0.000 C 
BRANCH   5   6
ATOM      6  C   UNL     1       7.196   4.283  11.735  0.00  0.00    +0.000 C 
BRANCH   6   7
ATOM      7  C   UNL     1       6.040   3.292  11.915  0.00  0.00    +0.000 C 
BRANCH   7   9
ATOM      8  O   UNL     1       5.605   1.008  11.237  0.00  0.00    +0.000 OA
ATOM      9  C   UNL     1       6.402   1.916  11.412  0.00  0.00    +0.000 C 
BRANCH   9  10
ATOM     10  O   UNL     1       7.730   1.760  11.208  0.00  0.00    +0.000 OA
ATOM     11  H   UNL     1       8.260   1.710  12.027  0.00  0.00    +0.000 HD
ENDBRANCH   9  10
ENDBRANCH   7   9
ENDBRANCH   6   7
ENDBRANCH   5   6
ENDBRANCH   3   5
ENDBRANCH   1   4
BRANCH   2  12
ATOM     12  C   UNL     1       3.405   2.589  18.348  0.00  0.00    +0.000 C 
ATOM     13  C   UNL     1       2.068   2.626  18.260  0.00  0.00    +0.000 C 
BRANCH  13  14
ATOM     14  C   UNL     1       1.159   2.139  19.354  0.00  0.00    +0.000 C 
BRANCH  14  15
ATOM     15  C   UNL     1       0.574   3.294  20.174  0.00  0.00    +0.000 C 
BRANCH  15  16
ATOM     16  C   UNL     1       1.678   4.050  20.922  0.00  0.00    +0.000 C 
BRANCH  16  17
ATOM     17  C   UNL     1       1.629   5.553  20.646  0.00  0.00    +0.000 C 
BRANCH  17  18
ATOM     18  C   UNL     1       2.677   5.957  19.695  0.00  0.00    +0.000 C 
ATOM     19  C   UNL     1       3.541   6.270  18.920  0.00  0.00    +0.000 C 
BRANCH  19  20
ATOM     20  C   UNL     1       4.579   6.631  18.019  0.00  0.00    +0.000 C 
ATOM     21  C   UNL     1       5.863   6.387  18.296  0.00  0.00    +0.000 C 
ATOM     22 BR   UNL     1       7.269   6.831  17.168  0.00  0.00    +0.000 Br
ENDBRANCH  19  20
ENDBRANCH  17  18
ENDBRANCH  16  17
ENDBRANCH  15  16
ENDBRANCH  14  15
ENDBRANCH  13  14
ENDBRANCH   2  12
TORSDOF 13
ENDMDL
MODEL 3
REMARK VINA RESULT:      -6.0      6.559      9.520
REMARK  Name = 
REMARK  13 active torsions:
REMARK  status: ('A' for Active; 'I' for Inactive)
REMARK    1  A    between atoms: C_2  and  O_3
REMARK    2  A    between atoms: C_2  and  C_4
REMARK    3  A    between atoms: C_4  and  C_5
REMARK    4  A    between atoms: C_5  and  C_6
REMARK    5  A    between atoms: C_6  and  C_7
REMARK    6  A    between atoms: C_8  and  C_9
REMARK    7  A    between atoms: C_10  and  C_11
REMARK    8  A    between atoms: C_12  and  C_13
REMARK    9  A    between atoms: C_13  and  C_14
REMARK   10  A    between atoms: C_14  and  C_15
REMARK   11  A    between atoms: C_15  and  C_16
REMARK   12  A    between atoms: C_16  and  C_17
REMARK   13  A    between atoms: C_18  and  C_19
REMARK                            x       y       z     vdW  Elec       q    Type
REMARK                         _______ _______ _______ _____ _____    ______ ____
ROOT
ATOM      1  C   UNL     1       1.888   8.331  18.514  0.00  0.00    +0.000 C 
ATOM      2  C   UNL     1       2.669   7.290  18.431  0.00  0.00    +0.000 C 
ENDROOT
BRANCH   1   4
ATOM      3  C   UNL     1       0.194  10.583  18.694  0.00  0.00    +0.000 C 
ATOM      4  C   UNL     1       0.976   9.543  18.611  0.00  0.00    +0.000 C 
BRANCH   3   5
ATOM      5  C   UNL     1      -0.718  11.795  18.791  0.00  0.00    +0.000 C 
BRANCH   5   6
ATOM      6  C   UNL     1      -2.004  11.526  18.003  0.00  0.00    +0.000 C 
BRANCH   6   7
ATOM      7  C   UNL     1      -1.867  10.349  17.029  0.00  0.00    +0.000 C 
BRANCH   7   9
ATOM      8  O   UNL     1      -3.361   9.462  15.342  0.00  0.00    +0.000 OA
ATOM      9  C   UNL     1      -2.880  10.428  15.913  0.00  0.00    +0.000 C 
BRANCH   9  10
ATOM     10  O   UNL     1      -3.185  11.699  15.565  0.00  0.00    +0.000 OA
ATOM     11  H   UNL     1      -3.359  12.293  16.320  0.00  0.00    +0.000 HD
ENDBRANCH   9  10
ENDBRANCH   7   9
ENDBRANCH   6   7
ENDBRANCH   5   6
ENDBRANCH   3   5
ENDBRANCH   1   4
BRANCH   2  12
ATOM     12  C   UNL     1       3.581   6.078  18.334  0.00  0.00    +0.000 C 
ATOM     13  C   UNL     1       4.537   5.848  19.245  0.00  0.00    +0.000 C 
BRANCH  13  14
ATOM     14  C   UNL     1       5.466   4.668  19.182  0.00  0.00    +0.000 C 
BRANCH  14  15
ATOM     15  C   UNL     1       6.420   4.748  17.986  0.00  0.00    +0.000 C 
BRANCH  15  16
ATOM     16  C   UNL     1       7.520   5.788  18.232  0.00  0.00    +0.000 C 
BRANCH  16  17
ATOM     17  C   UNL     1       7.494   6.904  17.187  0.00  0.00    +0.000 C 
BRANCH  17  18
ATOM     18  C   UNL     1       7.965   8.177  17.753  0.00  0.00    +0.000 C 
ATOM     19  C   UNL     1       8.366   9.216  18.207  0.00  0.00    +0.000 C 
BRANCH  19  20
ATOM     20  C   UNL     1       8.861  10.431  18.752  0.00  0.00    +0.000 C 
ATOM     21  C   UNL     1       9.660  10.445  19.822  0.00  0.00    +0.000 C 
ATOM     22 BR   UNL     1      10.343  11.993  20.586  0.00  0.00    +0.000 Br
ENDBRANCH  19  20
ENDBRANCH  17  18
ENDBRANCH  16  17
ENDBRANCH  15  16
ENDBRANCH  14  15
ENDBRANCH  13  14
ENDBRANCH   2  12
TORSDOF 13
ENDMDL
MODEL 4
REMARK VINA RESULT:      -6.0      5.809      8.406
REMARK  Name = 
REMARK  13 active torsions:
REMARK  status: ('A' for Active; 'I' for Inactive)
REMARK    1  A    between atoms: C_2  and  O_3
REMARK    2  A    between atoms: C_2  and  C_4
REMARK    3  A    between atoms: C_4  and  C_5
REMARK    4  A    between atoms: C_5  and  C_6
REMARK    5  A    between atoms: C_6  and  C_7
REMARK    6  A    between atoms: C_8  and  C_9
REMARK    7  A    between atoms: C_10  and  C_11
REMARK    8  A    between atoms: C_12  and  C_13
REMARK    9  A    between atoms: C_13  and  C_14
REMARK   10  A    between atoms: C_14  and  C_15
REMARK   11  A    between atoms: C_15  and  C_16
REMARK   12  A    between atoms: C_16  and  C_17
REMARK   13  A    between atoms: C_18  and  C_19
REMARK                            x       y       z     vdW  Elec       q    Type
REMARK                         _______ _______ _______ _____ _____    ______ ____
ROOT
ATOM      1  C   UNL     1       2.931   7.935  17.708  0.00  0.00    +0.000 C 
ATOM      2  C   UNL     1       2.184   8.979  17.934  0.00  0.00    +0.000 C 
ENDROOT
BRANCH   1   4
ATOM      3  C   UNL     1       4.549   5.672  17.220  0.00  0.00    +0.000 C 
ATOM      4  C   UNL     1       3.801   6.717  17.445  0.00  0.00    +0.000 C 
BRANCH   3   5
ATOM      5  C   UNL     1       5.419   4.455  16.958  0.00  0.00    +0.000 C 
BRANCH   5   6
ATOM      6  C   UNL     1       6.847   4.912  16.643  0.00  0.00    +0.000 C 
BRANCH   6   7
ATOM      7  C   UNL     1       7.828   4.626  17.787  0.00  0.00    +0.000 C 
BRANCH   7   9
ATOM      8  O   UNL     1       7.269   5.375  20.022  0.00  0.00    +0.000 OA
ATOM      9  C   UNL     1       7.690   5.631  18.904  0.00  0.00    +0.000 C 
BRANCH   9  10
ATOM     10  O   UNL     1       8.042   6.883  18.535  0.00  0.00    +0.000 OA
ATOM     11  H   UNL     1       7.293   7.453  18.278  0.00  0.00    +0.000 HD
ENDBRANCH   9  10
ENDBRANCH   7   9
ENDBRANCH   6   7
ENDBRANCH   5   6
ENDBRANCH   3   5
ENDBRANCH   1   4
BRANCH   2  12
ATOM     12  C   UNL     1       1.312  10.198  18.196  0.00  0.00    +0.000 C 
ATOM     13  C   UNL     1      -0.024  10.129  18.124  0.00  0.00    +0.000 C 
BRANCH  13  14
ATOM     14  C   UNL     1      -0.922  11.310  18.366  0.00  0.00    +0.000 C 
BRANCH  14  15
ATOM     15  C   UNL     1      -1.542  11.283  19.767  0.00  0.00    +0.000 C 
BRANCH  15  16
ATOM     16  C   UNL     1      -0.769  12.194  20.727  0.00  0.00    +0.000 C 
BRANCH  16  17
ATOM     17  C   UNL     1      -0.446  11.491  22.046  0.00  0.00    +0.000 C 
BRANCH  17  18
ATOM     18  C   UNL     1       0.282  10.233  21.817  0.00  0.00    +0.000 C 
ATOM     19  C   UNL     1       0.885   9.207  21.646  0.00  0.00    +0.000 C 
BRANCH  19  20
ATOM     20  C   UNL     1       1.619   8.006  21.452  0.00  0.00    +0.000 C 
ATOM     21  C   UNL     1       1.088   6.954  20.822  0.00  0.00    +0.000 C 
ATOM     22 BR   UNL     1       1.988   5.356  20.534  0.00  0.00    +0.000 Br
ENDBRANCH  19  20
ENDBRANCH  17  18
ENDBRANCH  16  17
ENDBRANCH  15  16
ENDBRANCH  14  15
ENDBRANCH  13  14
ENDBRANCH   2  12
TORSDOF 13
ENDMDL
MODEL 5
REMARK VINA RESULT:      -6.0      7.757     10.066
REMARK  Name = 
REMARK  13 active torsions:
REMARK  status: ('A' for Active; 'I' for Inactive)
REMARK    1  A    between atoms: C_2  and  O_3
REMARK    2  A    between atoms: C_2  and  C_4
REMARK    3  A    between atoms: C_4  and  C_5
REMARK    4  A    between atoms: C_5  and  C_6
REMARK    5  A    between atoms: C_6  and  C_7
REMARK    6  A    between atoms: C_8  and  C_9
REMARK    7  A    between atoms: C_10  and  C_11
REMARK    8  A    between atoms: C_12  and  C_13
REMARK    9  A    between atoms: C_13  and  C_14
REMARK   10  A    between atoms: C_14  and  C_15
REMARK   11  A    between atoms: C_15  and  C_16
REMARK   12  A    between atoms: C_16  and  C_17
REMARK   13  A    between atoms: C_18  and  C_19
REMARK                            x       y       z     vdW  Elec       q    Type
REMARK                         _______ _______ _______ _____ _____    ______ ____
ROOT
ATOM      1  C   UNL     1       3.683   7.257  17.317  0.00  0.00    +0.000 C 
ATOM      2  C   UNL     1       2.836   8.162  17.721  0.00  0.00    +0.000 C 
ENDROOT
BRANCH   1   4
ATOM      3  C   UNL     1       5.517   5.295  16.443  0.00  0.00    +0.000 C 
ATOM      4  C   UNL     1       4.670   6.201  16.846  0.00  0.00    +0.000 C 
BRANCH   3   5
ATOM      5  C   UNL     1       6.503   4.240  15.972  0.00  0.00    +0.000 C 
BRANCH   5   6
ATOM      6  C   UNL     1       6.659   4.335  14.451  0.00  0.00    +0.000 C 
BRANCH   6   7
ATOM      7  C   UNL     1       5.335   4.131  13.705  0.00  0.00    +0.000 C 
BRANCH   7   9
ATOM      8  O   UNL     1       4.640   3.096  11.629  0.00  0.00    +0.000 OA
ATOM      9  C   UNL     1       5.533   3.379  12.413  0.00  0.00    +0.000 C 
BRANCH   9  10
ATOM     10  O   UNL     1       6.815   2.997  12.214  0.00  0.00    +0.000 OA
ATOM     11  H   UNL     1       7.480   3.634  12.541  0.00  0.00    +0.000 HD
ENDBRANCH   9  10
ENDBRANCH   7   9
ENDBRANCH   6   7
ENDBRANCH   5   6
ENDBRANCH   3   5
ENDBRANCH   1   4
BRANCH   2  12
ATOM     12  C   UNL     1       1.849   9.218  18.192  0.00  0.00    +0.000 C 
ATOM     13  C   UNL     1       1.159   9.071  19.331  0.00  0.00    +0.000 C 
BRANCH  13  14
ATOM     14  C   UNL     1       0.167  10.085  19.828  0.00  0.00    +0.000 C 
BRANCH  14  15
ATOM     15  C   UNL     1       0.153  11.350  18.963  0.00  0.00    +0.000 C 
BRANCH  15  16
ATOM     16  C   UNL     1      -1.262  11.652  18.457  0.00  0.00    +0.000 C 
BRANCH  16  17
ATOM     17  C   UNL     1      -2.062  10.374  18.199  0.00  0.00    +0.000 C 
BRANCH  17  18
ATOM     18  C   UNL     1      -2.345  10.200  16.766  0.00  0.00    +0.000 C 
ATOM     19  C   UNL     1      -2.588  10.044  15.599  0.00  0.00    +0.000 C 
BRANCH  19  20
ATOM     20  C   UNL     1      -2.874   9.835  14.223  0.00  0.00    +0.000 C 
ATOM     21  C   UNL     1      -4.089  10.063  13.716  0.00  0.00    +0.000 C 
ATOM     22 BR   UNL     1      -4.531   9.811  11.931  0.00  0.00    +0.000 Br
ENDBRANCH  19  20
ENDBRANCH  17  18
ENDBRANCH  16  17
ENDBRANCH  15  16
ENDBRANCH  14  15
ENDBRANCH  13  14
ENDBRANCH   2  12
TORSDOF 13
ENDMDL
MODEL 6
REMARK VINA RESULT:      -5.9      2.366      2.870
REMARK  Name = 
REMARK  13 active torsions:
REMARK  status: ('A' for Active; 'I' for Inactive)
REMARK    1  A    between atoms: C_2  and  O_3
REMARK    2  A    between atoms: C_2  and  C_4
REMARK    3  A    between atoms: C_4  and  C_5
REMARK    4  A    between atoms: C_5  and  C_6
REMARK    5  A    between atoms: C_6  and  C_7
REMARK    6  A    between atoms: C_8  and  C_9
REMARK    7  A    between atoms: C_10  and  C_11
REMARK    8  A    between atoms: C_12  and  C_13
REMARK    9  A    between atoms: C_13  and  C_14
REMARK   10  A    between atoms: C_14  and  C_15
REMARK   11  A    between atoms: C_15  and  C_16
REMARK   12  A    between atoms: C_16  and  C_17
REMARK   13  A    between atoms: C_18  and  C_19
REMARK                            x       y       z     vdW  Elec       q    Type
REMARK                         _______ _______ _______ _____ _____    ______ ____
ROOT
ATOM      1  C   UNL     1       8.252   8.931  18.196  0.00  0.00    +0.000 C 
ATOM      2  C   UNL     1       7.435   8.069  17.658  0.00  0.00    +0.000 C 
ENDROOT
BRANCH   1   4
ATOM      3  C   UNL     1      10.023  10.797  19.360  0.00  0.00    +0.000 C 
ATOM      4  C   UNL     1       9.205   9.935  18.822  0.00  0.00    +0.000 C 
BRANCH   3   5
ATOM      5  C   UNL     1      10.976  11.801  19.986  0.00  0.00    +0.000 C 
BRANCH   5   6
ATOM      6  C   UNL     1      10.196  13.055  20.392  0.00  0.00    +0.000 C 
BRANCH   6   7
ATOM      7  C   UNL     1       9.489  13.724  19.206  0.00  0.00    +0.000 C 
BRANCH   7   9
ATOM      8  O   UNL     1      11.368  14.954  18.299  0.00  0.00    +0.000 OA
ATOM      9  C   UNL     1      10.469  14.143  18.138  0.00  0.00    +0.000 C 
BRANCH   9  10
ATOM     10  O   UNL     1      10.230  13.558  16.942  0.00  0.00    +0.000 OA
ATOM     11  H   UNL     1       9.362  13.115  16.877  0.00  0.00    +0.000 HD
ENDBRANCH   9  10
ENDBRANCH   7   9
ENDBRANCH   6   7
ENDBRANCH   5   6
ENDBRANCH   3   5
ENDBRANCH   1   4
BRANCH   2  12
ATOM     12  C   UNL     1       6.481   7.065  17.031  0.00  0.00    +0.000 C 
ATOM     13  C   UNL     1       6.913   6.138  16.165  0.00  0.00    +0.000 C 
BRANCH  13  14
ATOM     14  C   UNL     1       6.003   5.132  15.515  0.00  0.00    +0.000 C 
BRANCH  14  15
ATOM     15  C   UNL     1       5.971   3.806  16.281  0.00  0.00    +0.000 C 
BRANCH  15  16
ATOM     16  C   UNL     1       4.578   3.544  16.866  0.00  0.00    +0.000 C 
BRANCH  16  17
ATOM     17  C   UNL     1       4.502   3.913  18.348  0.00  0.00    +0.000 C 
BRANCH  17  18
ATOM     18  C   UNL     1       3.745   5.157  18.551  0.00  0.00    +0.000 C 
ATOM     19  C   UNL     1       3.134   6.182  18.703  0.00  0.00    +0.000 C 
BRANCH  19  20
ATOM     20  C   UNL     1       2.434   7.406  18.879  0.00  0.00    +0.000 C 
ATOM     21  C   UNL     1       2.430   8.353  17.936  0.00  0.00    +0.000 C 
ATOM     22 BR   UNL     1       1.539   9.973  18.099  0.00  0.00    +0.000 Br
ENDBRANCH  19  20
ENDBRANCH  17  18
ENDBRANCH  16  17
ENDBRANCH  15  16
ENDBRANCH  14  15
ENDBRANCH  13  14
ENDBRANCH   2  12
TORSDOF 13
ENDMDL
MODEL 7
REMARK VINA RESULT:      -5.9      6.642      8.611
REMARK  Name = 
REMARK  13 active torsions:
REMARK  status: ('A' for Active; 'I' for Inactive)
REMARK    1  A    between atoms: C_2  and  O_3
REMARK    2  A    between atoms: C_2  and  C_4
REMARK    3  A    between atoms: C_4  and  C_5
REMARK    4  A    between atoms: C_5  and  C_6
REMARK    5  A    between atoms: C_6  and  C_7
REMARK    6  A    between atoms: C_8  and  C_9
REMARK    7  A    between atoms: C_10  and  C_11
REMARK    8  A    between atoms: C_12  and  C_13
REMARK    9  A    between atoms: C_13  and  C_14
REMARK   10  A    between atoms: C_14  and  C_15
REMARK   11  A    between atoms: C_15  and  C_16
REMARK   12  A    between atoms: C_16  and  C_17
REMARK   13  A    between atoms: C_18  and  C_19
REMARK                            x       y       z     vdW  Elec       q    Type
REMARK                         _______ _______ _______ _____ _____    ______ ____
ROOT
ATOM      1  C   UNL     1       3.505   7.643  17.183  0.00  0.00    +0.000 C 
ATOM      2  C   UNL     1       2.483   8.371  17.540  0.00  0.00    +0.000 C 
ENDROOT
BRANCH   1   4
ATOM      3  C   UNL     1       5.717   6.069  16.408  0.00  0.00    +0.000 C 
ATOM      4  C   UNL     1       4.696   6.796  16.766  0.00  0.00    +0.000 C 
BRANCH   3   5
ATOM      5  C   UNL     1       6.908   5.222  15.991  0.00  0.00    +0.000 C 
BRANCH   5   6
ATOM      6  C   UNL     1       6.406   3.923  15.354  0.00  0.00    +0.000 C 
BRANCH   6   7
ATOM      7  C   UNL     1       5.632   4.161  14.052  0.00  0.00    +0.000 C 
BRANCH   7   9
ATOM      8  O   UNL     1       7.304   4.510  12.334  0.00  0.00    +0.000 OA
ATOM      9  C   UNL     1       6.453   3.794  12.840  0.00  0.00    +0.000 C 
BRANCH   9  10
ATOM     10  O   UNL     1       6.124   2.588  12.324  0.00  0.00    +0.000 OA
ATOM     11  H   UNL     1       6.658   2.321  11.551  0.00  0.00    +0.000 HD
ENDBRANCH   9  10
ENDBRANCH   7   9
ENDBRANCH   6   7
ENDBRANCH   5   6
ENDBRANCH   3   5
ENDBRANCH   1   4
BRANCH   2  12
ATOM     12  C   UNL     1       1.292   9.219  17.957  0.00  0.00    +0.000 C 
ATOM     13  C   UNL     1       1.412  10.188  18.874  0.00  0.00    +0.000 C 
BRANCH  13  14
ATOM     14  C   UNL     1       0.259  11.043  19.322  0.00  0.00    +0.000 C 
BRANCH  14  15
ATOM     15  C   UNL     1       0.105  11.050  20.846  0.00  0.00    +0.000 C 
BRANCH  15  16
ATOM     16  C   UNL     1       1.063  10.047  21.499  0.00  0.00    +0.000 C 
BRANCH  16  17
ATOM     17  C   UNL     1       0.355   8.746  21.880  0.00  0.00    +0.000 C 
BRANCH  17  18
ATOM     18  C   UNL     1       0.971   7.587  21.215  0.00  0.00    +0.000 C 
ATOM     19  C   UNL     1       1.480   6.650  20.658  0.00  0.00    +0.000 C 
BRANCH  19  20
ATOM     20  C   UNL     1       2.068   5.550  19.978  0.00  0.00    +0.000 C 
ATOM     21  C   UNL     1       3.380   5.307  20.041  0.00  0.00    +0.000 C 
ATOM     22 BR   UNL     1       4.214   3.891  19.179  0.00  0.00    +0.000 Br
ENDBRANCH  19  20
ENDBRANCH  17  18
ENDBRANCH  16  17
ENDBRANCH  15  16
ENDBRANCH  14  15
ENDBRANCH  13  14
ENDBRANCH   2  12
TORSDOF 13
ENDMDL
MODEL 8
REMARK VINA RESULT:      -5.9      6.576      9.277
REMARK  Name = 
REMARK  13 active torsions:
REMARK  status: ('A' for Active; 'I' for Inactive)
REMARK    1  A    between atoms: C_2  and  O_3
REMARK    2  A    between atoms: C_2  and  C_4
REMARK    3  A    between atoms: C_4  and  C_5
REMARK    4  A    between atoms: C_5  and  C_6
REMARK    5  A    between atoms: C_6  and  C_7
REMARK    6  A    between atoms: C_8  and  C_9
REMARK    7  A    between atoms: C_10  and  C_11
REMARK    8  A    between atoms: C_12  and  C_13
REMARK    9  A    between atoms: C_13  and  C_14
REMARK   10  A    between atoms: C_14  and  C_15
REMARK   11  A    between atoms: C_15  and  C_16
REMARK   12  A    between atoms: C_16  and  C_17
REMARK   13  A    between atoms: C_18  and  C_19
REMARK                            x       y       z     vdW  Elec       q    Type
REMARK                         _______ _______ _______ _____ _____    ______ ____
ROOT
ATOM      1  C   UNL     1       2.593   7.248  19.240  0.00  0.00    +0.000 C 
ATOM      2  C   UNL     1       1.813   7.498  20.254  0.00  0.00    +0.000 C 
ENDROOT
BRANCH   1   4
ATOM      3  C   UNL     1       4.284   6.705  17.044  0.00  0.00    +0.000 C 
ATOM      4  C   UNL     1       3.503   6.956  18.058  0.00  0.00    +0.000 C 
BRANCH   3   5
ATOM      5  C   UNL     1       5.194   6.413  15.863  0.00  0.00    +0.000 C 
BRANCH   5   6
ATOM      6  C   UNL     1       6.518   5.838  16.374  0.00  0.00    +0.000 C 
BRANCH   6   7
ATOM      7  C   UNL     1       6.959   6.457  17.706  0.00  0.00    +0.000 C 
BRANCH   7   9
ATOM      8  O   UNL     1       7.303   5.565  19.931  0.00  0.00    +0.000 OA
ATOM      9  C   UNL     1       7.315   5.399  18.721  0.00  0.00    +0.000 C 
BRANCH   9  10
ATOM     10  O   UNL     1       7.700   4.232  18.156  0.00  0.00    +0.000 OA
ATOM     11  H   UNL     1       7.021   3.814  17.592  0.00  0.00    +0.000 HD
ENDBRANCH   9  10
ENDBRANCH   7   9
ENDBRANCH   6   7
ENDBRANCH   5   6
ENDBRANCH   3   5
ENDBRANCH   1   4
BRANCH   2  12
ATOM     12  C   UNL     1       0.902   7.791  21.436  0.00  0.00    +0.000 C 
ATOM     13  C   UNL     1       0.661   9.046  21.838  0.00  0.00    +0.000 C 
BRANCH  13  14
ATOM     14  C   UNL     1      -0.224   9.379  23.007  0.00  0.00    +0.000 C 
BRANCH  14  15
ATOM     15  C   UNL     1      -0.832  10.781  22.888  0.00  0.00    +0.000 C 
BRANCH  15  16
ATOM     16  C   UNL     1      -0.317  11.497  21.634  0.00  0.00    +0.000 C 
BRANCH  16  17
ATOM     17  C   UNL     1      -1.435  12.240  20.901  0.00  0.00    +0.000 C 
BRANCH  17  18
ATOM     18  C   UNL     1      -1.606  11.731  19.532  0.00  0.00    +0.000 C 
ATOM     19  C   UNL     1      -1.737  11.329  18.406  0.00  0.00    +0.000 C 
BRANCH  19  20
ATOM     20  C   UNL     1      -1.899  10.878  17.068  0.00  0.00    +0.000 C 
ATOM     21  C   UNL     1      -3.108  10.751  16.513  0.00  0.00    +0.000 C 
ATOM     22 BR   UNL     1      -3.392  10.168  14.774  0.00  0.00    +0.000 Br
ENDBRANCH  19  20
ENDBRANCH  17  18
ENDBRANCH  16  17
ENDBRANCH  15  16
ENDBRANCH  14  15
ENDBRANCH  13  14
ENDBRANCH   2  12
TORSDOF 13
ENDMDL
MODEL 9
REMARK VINA RESULT:      -5.9      6.021      7.909
REMARK  Name = 
REMARK  13 active torsions:
REMARK  status: ('A' for Active; 'I' for Inactive)
REMARK    1  A    between atoms: C_2  and  O_3
REMARK    2  A    between atoms: C_2  and  C_4
REMARK    3  A    between atoms: C_4  and  C_5
REMARK    4  A    between atoms: C_5  and  C_6
REMARK    5  A    between atoms: C_6  and  C_7
REMARK    6  A    between atoms: C_8  and  C_9
REMARK    7  A    between atoms: C_10  and  C_11
REMARK    8  A    between atoms: C_12  and  C_13
REMARK    9  A    between atoms: C_13  and  C_14
REMARK   10  A    between atoms: C_14  and  C_15
REMARK   11  A    between atoms: C_15  and  C_16
REMARK   12  A    between atoms: C_16  and  C_17
REMARK   13  A    between atoms: C_18  and  C_19
REMARK                            x       y       z     vdW  Elec       q    Type
REMARK                         _______ _______ _______ _____ _____    ______ ____
ROOT
ATOM      1  C   UNL     1       2.600   8.467  17.766  0.00  0.00    +0.000 C 
ATOM      2  C   UNL     1       3.626   7.797  17.318  0.00  0.00    +0.000 C 
ENDROOT
BRANCH   1   4
ATOM      3  C   UNL     1       0.381   9.917  18.736  0.00  0.00    +0.000 C 
ATOM      4  C   UNL     1       1.406   9.247  18.288  0.00  0.00    +0.000 C 
BRANCH   3   5
ATOM      5  C   UNL     1      -0.814  10.698  19.259  0.00  0.00    +0.000 C 
BRANCH   5   6
ATOM      6  C   UNL     1      -0.777  10.715  20.790  0.00  0.00    +0.000 C 
BRANCH   6   7
ATOM      7  C   UNL     1      -0.324   9.378  21.388  0.00  0.00    +0.000 C 
BRANCH   7   9
ATOM      8  O   UNL     1       1.779   9.335  22.589  0.00  0.00    +0.000 OA
ATOM      9  C   UNL     1       0.582   9.577  22.578  0.00  0.00    +0.000 C 
BRANCH   9  10
ATOM     10  O   UNL     1      -0.075  10.020  23.674  0.00  0.00    +0.000 OA
ATOM     11  H   UNL     1      -0.659   9.356  24.088  0.00  0.00    +0.000 HD
ENDBRANCH   9  10
ENDBRANCH   7   9
ENDBRANCH   6   7
ENDBRANCH   5   6
ENDBRANCH   3   5
ENDBRANCH   1   4
BRANCH   2  12
ATOM     12  C   UNL     1       4.821   7.016  16.795  0.00  0.00    +0.000 C 
ATOM     13  C   UNL     1       6.005   7.050  17.421  0.00  0.00    +0.000 C 
BRANCH  13  14
ATOM     14  C   UNL     1       7.215   6.301  16.934  0.00  0.00    +0.000 C 
BRANCH  14  15
ATOM     15  C   UNL     1       7.081   4.790  17.147  0.00  0.00    +0.000 C 
BRANCH  15  16
ATOM     16  C   UNL     1       6.801   4.071  15.821  0.00  0.00    +0.000 C 
BRANCH  16  17
ATOM     17  C   UNL     1       5.344   3.622  15.712  0.00  0.00    +0.000 C 
BRANCH  17  18
ATOM     18  C   UNL     1       4.670   3.670  17.018  0.00  0.00    +0.000 C 
ATOM     19  C   UNL     1       4.102   3.707  18.078  0.00  0.00    +0.000 C 
BRANCH  19  20
ATOM     20  C   UNL     1       3.415   3.768  19.320  0.00  0.00    +0.000 C 
ATOM     21  C   UNL     1       2.759   2.713  19.810  0.00  0.00    +0.000 C 
ATOM     22 BR   UNL     1       1.840   2.722  21.424  0.00  0.00    +0.000 Br
ENDBRANCH  19  20
ENDBRANCH  17  18
ENDBRANCH  16  17
ENDBRANCH  15  16
ENDBRANCH  14  15
ENDBRANCH  13  14
ENDBRANCH   2  12
TORSDOF 13
ENDMDL
