MODEL 1
REMARK VINA RESULT:      -7.2      0.000      0.000
REMARK  Name = 
REMARK  3 active torsions:
REMARK  status: ('A' for Active; 'I' for Inactive)
REMARK    1  A    between atoms: N_5  and  C_6
REMARK    2  A    between atoms: C_6  and  C_7
REMARK    3  A    between atoms: C_9  and  C_10
REMARK                            x       y       z     vdW  Elec       q    Type
REMARK                         _______ _______ _______ _____ _____    ______ ____
ROOT
ATOM      1  C   UNL     1       2.177   7.038  19.878  0.00  0.00    +0.000 A 
ATOM      2  N   UNL     1       1.532   7.606  20.872  0.00  0.00    +0.000 NA
ATOM      3  C   UNL     1       1.144   8.810  20.325  0.00  0.00    +0.000 A 
ATOM      4  N   UNL     1       1.548   8.986  19.054  0.00  0.00    +0.000 NA
ATOM      5  O   UNL     1       2.235   7.809  18.758  0.00  0.00    +0.000 OA
ENDROOT
BRANCH   3   6
ATOM      6  C   UNL     1       0.309   9.753  21.061  0.00  0.00    +0.000 A 
ATOM      7  C   UNL     1      -0.012   9.505  22.405  0.00  0.00    +0.000 A 
ATOM      8  C   UNL     1      -0.856  10.369  23.109  0.00  0.00    +0.000 A 
ATOM      9  C   UNL     1      -1.384  11.488  22.473  0.00  0.00    +0.000 A 
ATOM     10 CL   UNL     1      -2.443  12.538  23.329  0.00  0.00    +0.000 Cl
ATOM     11  C   UNL     1      -1.067  11.758  21.143  0.00  0.00    +0.000 A 
ATOM     12  C   UNL     1      -0.221  10.895  20.440  0.00  0.00    +0.000 A 
ENDBRANCH   3   6
BRANCH   1  13
ATOM     13  C   UNL     1       2.746   5.662  19.795  0.00  0.00    +0.000 C 
BRANCH  13  18
ATOM     14  O   UNL     1       3.932   0.789  18.261  0.00  0.00    +0.000 OA
ATOM     15  C   UNL     1       3.414   1.873  18.523  0.00  0.00    +0.000 C 
ATOM     16  C   UNL     1       4.218   3.032  19.052  0.00  0.00    +0.000 C 
ATOM     17  C   UNL     1       4.077   4.294  18.207  0.00  0.00    +0.000 C 
ATOM     18  N   UNL     1       2.882   5.126  18.426  0.00  0.00    +0.000 NA
ATOM     19  C   UNL     1       1.651   4.453  17.979  0.00  0.00    +0.000 C 
ATOM     20  C   UNL     1       1.259   3.163  18.721  0.00  0.00    +0.000 C 
ATOM     21  N   UNL     1       2.070   2.018  18.368  0.00  0.00    +0.000 N 
ATOM     22  H   UNL     1       1.607   1.169  18.063  0.00  0.00    +0.000 HD
ENDBRANCH  13  18
ENDBRANCH   1  13
TORSDOF 3
ENDMDL
MODEL 2
REMARK VINA RESULT:      -7.2      1.282      2.092
REMARK  Name = 
REMARK  3 active torsions:
REMARK  status: ('A' for Active; 'I' for Inactive)
REMARK    1  A    between atoms: N_5  and  C_6
REMARK    2  A    between atoms: C_6  and  C_7
REMARK    3  A    between atoms: C_9  and  C_10
REMARK                            x       y       z     vdW  Elec       q    Type
REMARK                         _______ _______ _______ _____ _____    ______ ____
ROOT
ATOM      1  C   UNL     1       2.403   7.888  18.444  0.00  0.00    +0.000 A 
ATOM      2  N   UNL     1       1.834   8.191  19.590  0.00  0.00    +0.000 NA
ATOM      3  C   UNL     1       1.173   9.364  19.293  0.00  0.00    +0.000 A 
ATOM      4  N   UNL     1       1.343   9.777  18.025  0.00  0.00    +0.000 NA
ATOM      5  O   UNL     1       2.160   8.798  17.461  0.00  0.00    +0.000 OA
ENDROOT
BRANCH   3   6
ATOM      6  C   UNL     1       0.318  10.030  20.269  0.00  0.00    +0.000 A 
ATOM      7  C   UNL     1      -0.465  11.128  19.881  0.00  0.00    +0.000 A 
ATOM      8  C   UNL     1      -1.249  11.813  20.814  0.00  0.00    +0.000 A 
ATOM      9  C   UNL     1      -1.255  11.401  22.144  0.00  0.00    +0.000 A 
ATOM     10 CL   UNL     1      -2.198  12.257  23.300  0.00  0.00    +0.000 Cl
ATOM     11  C   UNL     1      -0.494  10.304  22.545  0.00  0.00    +0.000 A 
ATOM     12  C   UNL     1       0.287   9.619  21.611  0.00  0.00    +0.000 A 
ENDBRANCH   3   6
BRANCH   1  13
ATOM     13  C   UNL     1       3.170   6.665  18.074  0.00  0.00    +0.000 C 
BRANCH  13  18
ATOM     14  O   UNL     1       3.438   1.427  18.108  0.00  0.00    +0.000 OA
ATOM     15  C   UNL     1       3.638   2.640  18.134  0.00  0.00    +0.000 C 
ATOM     16  C   UNL     1       2.506   3.633  18.144  0.00  0.00    +0.000 C 
ATOM     17  C   UNL     1       2.569   4.602  19.320  0.00  0.00    +0.000 C 
ATOM     18  N   UNL     1       3.474   5.757  19.198  0.00  0.00    +0.000 NA
ATOM     19  C   UNL     1       4.890   5.351  19.203  0.00  0.00    +0.000 C 
ATOM     20  C   UNL     1       5.363   4.474  18.030  0.00  0.00    +0.000 C 
ATOM     21  N   UNL     1       4.919   3.099  18.115  0.00  0.00    +0.000 N 
ATOM     22  H   UNL     1       5.610   2.360  18.050  0.00  0.00    +0.000 HD
ENDBRANCH  13  18
ENDBRANCH   1  13
TORSDOF 3
ENDMDL
MODEL 3
REMARK VINA RESULT:      -7.2      1.288      1.827
REMARK  Name = 
REMARK  3 active torsions:
REMARK  status: ('A' for Active; 'I' for Inactive)
REMARK    1  A    between atoms: N_5  and  C_6
REMARK    2  A    between atoms: C_6  and  C_7
REMARK    3  A    between atoms: C_9  and  C_10
REMARK                            x       y       z     vdW  Elec       q    Type
REMARK                         _______ _______ _______ _____ _____    ______ ____
ROOT
ATOM      1  C   UNL     1       2.411   7.931  18.442  0.00  0.00    +0.000 A 
ATOM      2  N   UNL     1       1.905   8.266  19.608  0.00  0.00    +0.000 NA
ATOM      3  C   UNL     1       1.185   9.402  19.304  0.00  0.00    +0.000 A 
ATOM      4  N   UNL     1       1.259   9.763  18.010  0.00  0.00    +0.000 NA
ATOM      5  O   UNL     1       2.074   8.786  17.438  0.00  0.00    +0.000 OA
ENDROOT
BRANCH   3   6
ATOM      6  C   UNL     1       0.370  10.083  20.303  0.00  0.00    +0.000 A 
ATOM      7  C   UNL     1       0.271   9.561  21.602  0.00  0.00    +0.000 A 
ATOM      8  C   UNL     1      -0.549  10.170  22.557  0.00  0.00    +0.000 A 
ATOM      9  C   UNL     1      -1.276  11.307  22.218  0.00  0.00    +0.000 A 
ATOM     10 CL   UNL     1      -2.305  12.043  23.382  0.00  0.00    +0.000 Cl
ATOM     11  C   UNL     1      -1.180  11.848  20.936  0.00  0.00    +0.000 A 
ATOM     12  C   UNL     1      -0.358  11.240  19.983  0.00  0.00    +0.000 A 
ENDBRANCH   3   6
BRANCH   1  13
ATOM     13  C   UNL     1       3.196   6.718  18.076  0.00  0.00    +0.000 C 
BRANCH  13  18
ATOM     14  O   UNL     1       3.416   1.480  17.931  0.00  0.00    +0.000 OA
ATOM     15  C   UNL     1       3.624   2.688  18.015  0.00  0.00    +0.000 C 
ATOM     16  C   UNL     1       2.503   3.693  17.992  0.00  0.00    +0.000 C 
ATOM     17  C   UNL     1       2.502   4.618  19.205  0.00  0.00    +0.000 C 
ATOM     18  N   UNL     1       3.423   5.766  19.182  0.00  0.00    +0.000 NA
ATOM     19  C   UNL     1       4.833   5.345  19.258  0.00  0.00    +0.000 C 
ATOM     20  C   UNL     1       5.368   4.506  18.084  0.00  0.00    +0.000 C 
ATOM     21  N   UNL     1       4.908   3.134  18.091  0.00  0.00    +0.000 N 
ATOM     22  H   UNL     1       5.595   2.390  18.041  0.00  0.00    +0.000 HD
ENDBRANCH  13  18
ENDBRANCH   1  13
TORSDOF 3
ENDMDL
MODEL 4
REMARK VINA RESULT:      -7.2      0.201      1.071
REMARK  Name = 
REMARK  3 active torsions:
REMARK  status: ('A' for Active; 'I' for Inactive)
REMARK    1  A    between atoms: N_5  and  C_6
REMARK    2  A    between atoms: C_6  and  C_7
REMARK    3  A    between atoms: C_9  and  C_10
REMARK                            x       y       z     vdW  Elec       q    Type
REMARK                         _______ _______ _______ _____ _____    ______ ____
ROOT
ATOM      1  C   UNL     1       2.036   6.971  20.070  0.00  0.00    +0.000 A 
ATOM      2  N   UNL     1       1.330   7.532  21.025  0.00  0.00    +0.000 NA
ATOM      3  C   UNL     1       1.041   8.771  20.494  0.00  0.00    +0.000 A 
ATOM      4  N   UNL     1       1.564   8.974  19.272  0.00  0.00    +0.000 NA
ATOM      5  O   UNL     1       2.225   7.779  18.990  0.00  0.00    +0.000 OA
ENDROOT
BRANCH   3   6
ATOM      6  C   UNL     1       0.184   9.723  21.191  0.00  0.00    +0.000 A 
ATOM      7  C   UNL     1      -0.205  10.913  20.556  0.00  0.00    +0.000 A 
ATOM      8  C   UNL     1      -0.980  11.863  21.228  0.00  0.00    +0.000 A 
ATOM      9  C   UNL     1      -1.375  11.626  22.542  0.00  0.00    +0.000 A 
ATOM     10 CL   UNL     1      -2.307  12.802  23.380  0.00  0.00    +0.000 Cl
ATOM     11  C   UNL     1      -1.010  10.444  23.185  0.00  0.00    +0.000 A 
ATOM     12  C   UNL     1      -0.236   9.495  22.511  0.00  0.00    +0.000 A 
ENDBRANCH   3   6
BRANCH   1  13
ATOM     13  C   UNL     1       2.552   5.576  19.982  0.00  0.00    +0.000 C 
BRANCH  13  18
ATOM     14  O   UNL     1       3.964   0.787  18.376  0.00  0.00    +0.000 OA
ATOM     15  C   UNL     1       3.405   1.852  18.630  0.00  0.00    +0.000 C 
ATOM     16  C   UNL     1       4.133   2.998  19.282  0.00  0.00    +0.000 C 
ATOM     17  C   UNL     1       4.055   4.292  18.479  0.00  0.00    +0.000 C 
ATOM     18  N   UNL     1       2.831   5.099  18.613  0.00  0.00    +0.000 NA
ATOM     19  C   UNL     1       1.660   4.430  18.020  0.00  0.00    +0.000 C 
ATOM     20  C   UNL     1       1.219   3.105  18.668  0.00  0.00    +0.000 C 
ATOM     21  N   UNL     1       2.079   1.986  18.349  0.00  0.00    +0.000 N 
ATOM     22  H   UNL     1       1.663   1.145  17.967  0.00  0.00    +0.000 HD
ENDBRANCH  13  18
ENDBRANCH   1  13
TORSDOF 3
ENDMDL
MODEL 5
REMARK VINA RESULT:      -7.1      1.770      2.435
REMARK  Name = 
REMARK  3 active torsions:
REMARK  status: ('A' for Active; 'I' for Inactive)
REMARK    1  A    between atoms: N_5  and  C_6
REMARK    2  A    between atoms: C_6  and  C_7
REMARK    3  A    between atoms: C_9  and  C_10
REMARK                            x       y       z     vdW  Elec       q    Type
REMARK                         _______ _______ _______ _____ _____    ______ ____
ROOT
ATOM      1  C   UNL     1       2.355   7.506  19.405  0.00  0.00    +0.000 A 
ATOM      2  N   UNL     1       1.711   7.904  20.479  0.00  0.00    +0.000 NA
ATOM      3  C   UNL     1       1.109   9.068  20.052  0.00  0.00    +0.000 A 
ATOM      4  N   UNL     1       1.385   9.385  18.775  0.00  0.00    +0.000 NA
ATOM      5  O   UNL     1       2.213   8.348  18.345  0.00  0.00    +0.000 OA
ENDROOT
BRANCH   3   6
ATOM      6  C   UNL     1       0.203   9.822  20.910  0.00  0.00    +0.000 A 
ATOM      7  C   UNL     1      -0.467  10.948  20.405  0.00  0.00    +0.000 A 
ATOM      8  C   UNL     1      -1.297  11.715  21.229  0.00  0.00    +0.000 A 
ATOM      9  C   UNL     1      -1.462  11.359  22.564  0.00  0.00    +0.000 A 
ATOM     10 CL   UNL     1      -2.462  12.315  23.586  0.00  0.00    +0.000 Cl
ATOM     11  C   UNL     1      -0.816  10.237  23.080  0.00  0.00    +0.000 A 
ATOM     12  C   UNL     1       0.012   9.469  22.255  0.00  0.00    +0.000 A 
ENDBRANCH   3   6
BRANCH   1  13
ATOM     13  C   UNL     1       3.112   6.242  19.181  0.00  0.00    +0.000 C 
BRANCH  13  18
ATOM     14  O   UNL     1       7.580   4.618  16.966  0.00  0.00    +0.000 OA
ATOM     15  C   UNL     1       6.451   4.753  17.431  0.00  0.00    +0.000 C 
ATOM     16  C   UNL     1       5.937   6.087  17.904  0.00  0.00    +0.000 C 
ATOM     17  C   UNL     1       4.631   6.499  17.233  0.00  0.00    +0.000 C 
ATOM     18  N   UNL     1       3.385   5.921  17.765  0.00  0.00    +0.000 NA
ATOM     19  C   UNL     1       3.291   4.475  17.505  0.00  0.00    +0.000 C 
ATOM     20  C   UNL     1       4.348   3.581  18.179  0.00  0.00    +0.000 C 
ATOM     21  N   UNL     1       5.654   3.656  17.560  0.00  0.00    +0.000 N 
ATOM     22  H   UNL     1       6.106   2.796  17.270  0.00  0.00    +0.000 HD
ENDBRANCH  13  18
ENDBRANCH   1  13
TORSDOF 3
ENDMDL
MODEL 6
REMARK VINA RESULT:      -7.1      2.188      3.058
REMARK  Name = 
REMARK  3 active torsions:
REMARK  status: ('A' for Active; 'I' for Inactive)
REMARK    1  A    between atoms: N_5  and  C_6
REMARK    2  A    between atoms: C_6  and  C_7
REMARK    3  A    between atoms: C_9  and  C_10
REMARK                            x       y       z     vdW  Elec       q    Type
REMARK                         _______ _______ _______ _____ _____    ______ ____
ROOT
ATOM      1  C   UNL     1       2.592   6.963  19.098  0.00  0.00    +0.000 A 
ATOM      2  N   UNL     1       2.073   8.154  19.294  0.00  0.00    +0.000 NA
ATOM      3  C   UNL     1       1.340   7.973  20.448  0.00  0.00    +0.000 A 
ATOM      4  N   UNL     1       1.390   6.719  20.932  0.00  0.00    +0.000 NA
ATOM      5  O   UNL     1       2.220   6.048  20.034  0.00  0.00    +0.000 OA
ENDROOT
BRANCH   3   6
ATOM      6  C   UNL     1       0.647   9.079  21.098  0.00  0.00    +0.000 A 
ATOM      7  C   UNL     1       0.607  10.340  20.482  0.00  0.00    +0.000 A 
ATOM      8  C   UNL     1      -0.005  11.426  21.116  0.00  0.00    +0.000 A 
ATOM      9  C   UNL     1      -0.584  11.256  22.371  0.00  0.00    +0.000 A 
ATOM     10 CL   UNL     1      -1.315  12.595  23.163  0.00  0.00    +0.000 Cl
ATOM     11  C   UNL     1      -0.565  10.008  22.992  0.00  0.00    +0.000 A 
ATOM     12  C   UNL     1       0.045   8.923  22.357  0.00  0.00    +0.000 A 
ENDBRANCH   3   6
BRANCH   1  13
ATOM     13  C   UNL     1       3.582   6.531  18.070  0.00  0.00    +0.000 C 
BRANCH  13  18
ATOM     14  O   UNL     1       7.964   4.173  16.413  0.00  0.00    +0.000 OA
ATOM     15  C   UNL     1       7.029   4.664  17.042  0.00  0.00    +0.000 C 
ATOM     16  C   UNL     1       5.799   5.198  16.355  0.00  0.00    +0.000 C 
ATOM     17  C   UNL     1       4.507   4.568  16.863  0.00  0.00    +0.000 C 
ATOM     18  N   UNL     1       3.941   5.099  18.114  0.00  0.00    +0.000 NA
ATOM     19  C   UNL     1       4.784   4.784  19.280  0.00  0.00    +0.000 C 
ATOM     20  C   UNL     1       6.193   5.403  19.302  0.00  0.00    +0.000 C 
ATOM     21  N   UNL     1       7.124   4.764  18.397  0.00  0.00    +0.000 N 
ATOM     22  H   UNL     1       8.009   4.432  18.763  0.00  0.00    +0.000 HD
ENDBRANCH  13  18
ENDBRANCH   1  13
TORSDOF 3
ENDMDL
MODEL 7
REMARK VINA RESULT:      -7.0      2.541      3.251
REMARK  Name = 
REMARK  3 active torsions:
REMARK  status: ('A' for Active; 'I' for Inactive)
REMARK    1  A    between atoms: N_5  and  C_6
REMARK    2  A    between atoms: C_6  and  C_7
REMARK    3  A    between atoms: C_9  and  C_10
REMARK                            x       y       z     vdW  Elec       q    Type
REMARK                         _______ _______ _______ _____ _____    ______ ____
ROOT
ATOM      1  C   UNL     1       2.799   6.309  18.644  0.00  0.00    +0.000 A 
ATOM      2  N   UNL     1       2.311   7.521  18.787  0.00  0.00    +0.000 NA
ATOM      3  C   UNL     1       1.746   7.467  20.044  0.00  0.00    +0.000 A 
ATOM      4  N   UNL     1       1.863   6.268  20.641  0.00  0.00    +0.000 NA
ATOM      5  O   UNL     1       2.562   5.499  19.711  0.00  0.00    +0.000 OA
ENDROOT
BRANCH   3   6
ATOM      6  C   UNL     1       1.148   8.642  20.666  0.00  0.00    +0.000 A 
ATOM      7  C   UNL     1       0.769   8.604  22.018  0.00  0.00    +0.000 A 
ATOM      8  C   UNL     1       0.144   9.702  22.616  0.00  0.00    +0.000 A 
ATOM      9  C   UNL     1      -0.105  10.848  21.866  0.00  0.00    +0.000 A 
ATOM     10 CL   UNL     1      -0.895  12.191  22.593  0.00  0.00    +0.000 Cl
ATOM     11  C   UNL     1       0.276  10.909  20.526  0.00  0.00    +0.000 A 
ATOM     12  C   UNL     1       0.903   9.812  19.929  0.00  0.00    +0.000 A 
ENDBRANCH   3   6
BRANCH   1  13
ATOM     13  C   UNL     1       3.637   5.762  17.539  0.00  0.00    +0.000 C 
BRANCH  13  18
ATOM     14  O   UNL     1       8.603   4.091  17.782  0.00  0.00    +0.000 OA
ATOM     15  C   UNL     1       7.485   4.491  17.464  0.00  0.00    +0.000 C 
ATOM     16  C   UNL     1       6.464   4.903  18.492  0.00  0.00    +0.000 C 
ATOM     17  C   UNL     1       5.940   6.320  18.282  0.00  0.00    +0.000 C 
ATOM     18  N   UNL     1       4.884   6.509  17.274  0.00  0.00    +0.000 NA
ATOM     19  C   UNL     1       5.377   6.278  15.906  0.00  0.00    +0.000 C 
ATOM     20  C   UNL     1       5.856   4.854  15.575  0.00  0.00    +0.000 C 
ATOM     21  N   UNL     1       7.145   4.525  16.146  0.00  0.00    +0.000 N 
ATOM     22  H   UNL     1       7.874   4.175  15.534  0.00  0.00    +0.000 HD
ENDBRANCH  13  18
ENDBRANCH   1  13
TORSDOF 3
ENDMDL
MODEL 8
REMARK VINA RESULT:      -7.0      1.878      2.281
REMARK  Name = 
REMARK  3 active torsions:
REMARK  status: ('A' for Active; 'I' for Inactive)
REMARK    1  A    between atoms: N_5  and  C_6
REMARK    2  A    between atoms: C_6  and  C_7
REMARK    3  A    between atoms: C_9  and  C_10
REMARK                            x       y       z     vdW  Elec       q    Type
REMARK                         _______ _______ _______ _____ _____    ______ ____
ROOT
ATOM      1  C   UNL     1       2.368   7.414  19.142  0.00  0.00    +0.000 A 
ATOM      2  N   UNL     1       1.833   7.882  20.248  0.00  0.00    +0.000 NA
ATOM      3  C   UNL     1       1.171   9.008  19.805  0.00  0.00    +0.000 A 
ATOM      4  N   UNL     1       1.308   9.235  18.487  0.00  0.00    +0.000 NA
ATOM      5  O   UNL     1       2.103   8.177  18.047  0.00  0.00    +0.000 OA
ENDROOT
BRANCH   3   6
ATOM      6  C   UNL     1       0.347   9.814  20.698  0.00  0.00    +0.000 A 
ATOM      7  C   UNL     1       0.173   9.424  22.035  0.00  0.00    +0.000 A 
ATOM      8  C   UNL     1      -0.658  10.154  22.891  0.00  0.00    +0.000 A 
ATOM      9  C   UNL     1      -1.318  11.283  22.414  0.00  0.00    +0.000 A 
ATOM     10 CL   UNL     1      -2.359  12.168  23.456  0.00  0.00    +0.000 Cl
ATOM     11  C   UNL     1      -1.146  11.694  21.093  0.00  0.00    +0.000 A 
ATOM     12  C   UNL     1      -0.315  10.964  20.239  0.00  0.00    +0.000 A 
ENDBRANCH   3   6
BRANCH   1  13
ATOM     13  C   UNL     1       3.117   6.143  18.930  0.00  0.00    +0.000 C 
BRANCH  13  18
ATOM     14  O   UNL     1       7.793   4.614  17.114  0.00  0.00    +0.000 OA
ATOM     15  C   UNL     1       6.621   4.729  17.465  0.00  0.00    +0.000 C 
ATOM     16  C   UNL     1       6.060   6.041  17.948  0.00  0.00    +0.000 C 
ATOM     17  C   UNL     1       4.830   6.491  17.166  0.00  0.00    +0.000 C 
ATOM     18  N   UNL     1       3.536   5.893  17.536  0.00  0.00    +0.000 NA
ATOM     19  C   UNL     1       3.471   4.461  17.197  0.00  0.00    +0.000 C 
ATOM     20  C   UNL     1       4.454   3.531  17.931  0.00  0.00    +0.000 C 
ATOM     21  N   UNL     1       5.817   3.631  17.456  0.00  0.00    +0.000 N 
ATOM     22  H   UNL     1       6.297   2.784  17.172  0.00  0.00    +0.000 HD
ENDBRANCH  13  18
ENDBRANCH   1  13
TORSDOF 3
ENDMDL
MODEL 9
REMARK VINA RESULT:      -7.0      7.237      8.187
REMARK  Name = 
REMARK  3 active torsions:
REMARK  status: ('A' for Active; 'I' for Inactive)
REMARK    1  A    between atoms: N_5  and  C_6
REMARK    2  A    between atoms: C_6  and  C_7
REMARK    3  A    between atoms: C_9  and  C_10
REMARK                            x       y       z     vdW  Elec       q    Type
REMARK                         _______ _______ _______ _____ _____    ______ ____
ROOT
ATOM      1  C   UNL     1       7.797   8.182  17.847  0.00  0.00    +0.000 A 
ATOM      2  N   UNL     1       7.896   9.393  17.346  0.00  0.00    +0.000 NA
ATOM      3  C   UNL     1       8.808   9.990  18.191  0.00  0.00    +0.000 A 
ATOM      4  N   UNL     1       9.237   9.189  19.181  0.00  0.00    +0.000 NA
ATOM      5  O   UNL     1       8.565   7.988  18.953  0.00  0.00    +0.000 OA
ENDROOT
BRANCH   3   6
ATOM      6  C   UNL     1       9.295  11.345  17.959  0.00  0.00    +0.000 A 
ATOM      7  C   UNL     1      10.665  11.573  17.754  0.00  0.00    +0.000 A 
ATOM      8  C   UNL     1      11.157  12.871  17.585  0.00  0.00    +0.000 A 
ATOM      9  C   UNL     1      10.280  13.951  17.618  0.00  0.00    +0.000 A 
ATOM     10 CL   UNL     1      10.885  15.550  17.436  0.00  0.00    +0.000 Cl
ATOM     11  C   UNL     1       8.914  13.743  17.807  0.00  0.00    +0.000 A 
ATOM     12  C   UNL     1       8.423  12.445  17.974  0.00  0.00    +0.000 A 
ENDBRANCH   3   6
BRANCH   1  13
ATOM     13  C   UNL     1       7.051   7.007  17.314  0.00  0.00    +0.000 C 
BRANCH  13  18
ATOM     14  O   UNL     1       3.691   3.197  18.619  0.00  0.00    +0.000 OA
ATOM     15  C   UNL     1       4.570   3.911  18.140  0.00  0.00    +0.000 C 
ATOM     16  C   UNL     1       4.899   5.263  18.715  0.00  0.00    +0.000 C 
ATOM     17  C   UNL     1       6.369   5.414  19.092  0.00  0.00    +0.000 C 
ATOM     18  N   UNL     1       7.316   5.732  18.010  0.00  0.00    +0.000 NA
ATOM     19  C   UNL     1       7.470   4.615  17.063  0.00  0.00    +0.000 C 
ATOM     20  C   UNL     1       6.220   4.213  16.259  0.00  0.00    +0.000 C 
ATOM     21  N   UNL     1       5.239   3.484  17.034  0.00  0.00    +0.000 N 
ATOM     22  H   UNL     1       4.910   2.590  16.686  0.00  0.00    +0.000 HD
ENDBRANCH  13  18
ENDBRANCH   1  13
TORSDOF 3
ENDMDL
