MODEL 1
REMARK VINA RESULT:      -8.1      0.000      0.000
REMARK  Name = 
REMARK  7 active torsions:
REMARK  status: ('A' for Active; 'I' for Inactive)
REMARK    1  A    between atoms: C_2  and  C_3
REMARK    2  A    between atoms: C_4  and  N_5
REMARK    3  A    between atoms: C_12  and  C_13
REMARK    4  A    between atoms: C_18  and  C_19
REMARK    5  A    between atoms: C_22  and  N_23
REMARK    6  A    between atoms: N_26  and  N_27
REMARK    7  A    between atoms: C_28  and  C_29
REMARK                            x       y       z     vdW  Elec       q    Type
REMARK                         _______ _______ _______ _____ _____    ______ ____
ROOT
ATOM      1  C   UNL     1      -0.324  11.757  21.977  0.00  0.00    +0.000 A 
ATOM      2  C   UNL     1      -0.423  10.794  22.982  0.00  0.00    +0.000 A 
ATOM      3  C   UNL     1       0.031   9.486  22.778  0.00  0.00    +0.000 A 
ATOM      4  C   UNL     1       0.656   9.109  21.589  0.00  0.00    +0.000 A 
ATOM      5  C   UNL     1       0.778  10.066  20.583  0.00  0.00    +0.000 A 
ATOM      6  C   UNL     1       0.246  11.353  20.758  0.00  0.00    +0.000 A 
ENDROOT
BRANCH   4   7
ATOM      7  N   UNL     1       1.158   7.802  21.353  0.00  0.00    +0.000 N 
ATOM      8  C   UNL     1       1.880   7.410  20.251  0.00  0.00    +0.000 C 
ATOM      9  O   UNL     1       2.159   8.132  19.296  0.00  0.00    +0.000 OA
ATOM     10  N   UNL     1       2.299   6.079  20.298  0.00  0.00    +0.000 N 
ATOM     11  H   UNL     1       1.014   7.123  22.087  0.00  0.00    +0.000 HD
ATOM     12  H   UNL     1       2.012   5.438  21.022  0.00  0.00    +0.000 HD
BRANCH  10  13
ATOM     13  N   UNL     1       3.045   5.656  19.250  0.00  0.00    +0.000 NA
ATOM     14  C   UNL     1       4.325   5.575  19.354  0.00  0.00    +0.000 C 
BRANCH  14  15
ATOM     15  C   UNL     1       5.103   5.094  18.190  0.00  0.00    +0.000 A 
ATOM     16  C   UNL     1       4.438   4.691  17.023  0.00  0.00    +0.000 A 
ATOM     17  C   UNL     1       5.164   4.221  15.930  0.00  0.00    +0.000 A 
ATOM     18  C   UNL     1       6.555   4.152  16.000  0.00  0.00    +0.000 A 
ATOM     19  C   UNL     1       7.218   4.559  17.159  0.00  0.00    +0.000 A 
ATOM     20  C   UNL     1       6.496   5.031  18.260  0.00  0.00    +0.000 A 
ENDBRANCH  14  15
ENDBRANCH  10  13
ENDBRANCH   4   7
BRANCH   1  25
ATOM     21  C   UNL     1      -2.115  13.467  22.811  0.00  0.00    +0.000 A 
ATOM     22  C   UNL     1      -2.385  14.830  22.854  0.00  0.00    +0.000 A 
ATOM     23  S   UNL     1      -1.131  15.688  22.056  0.00  0.00    +0.000 S 
ATOM     24  C   UNL     1      -0.186  14.284  21.791  0.00  0.00    +0.000 A 
ATOM     25  C   UNL     1      -0.843  13.125  22.194  0.00  0.00    +0.000 A 
BRANCH  22  26
ATOM     26  N   UNL     1      -3.459  15.449  23.449  0.00  0.00    +0.000 N 
ATOM     27  C   UNL     1      -4.833  15.283  22.939  0.00  0.00    +0.000 C 
ATOM     28  C   UNL     1      -5.631  16.562  23.258  0.00  0.00    +0.000 C 
ATOM     29  O   UNL     1      -5.641  16.838  24.671  0.00  0.00    +0.000 OA
ATOM     30  C   UNL     1      -4.297  17.008  25.156  0.00  0.00    +0.000 C 
ATOM     31  C   UNL     1      -3.445  15.753  24.897  0.00  0.00    +0.000 C 
ENDBRANCH  22  26
BRANCH  24  32
ATOM     32  C   UNL     1       1.184  14.410  21.175  0.00  0.00    +0.000 A 
ATOM     33  N   UNL     1       2.340  14.191  21.894  0.00  0.00    +0.000 NA
ATOM     34  C   UNL     1       3.292  14.539  21.060  0.00  0.00    +0.000 A 
ATOM     35  N   UNL     1       2.744  14.883  19.869  0.00  0.00    +0.000 N 
ATOM     36  N   UNL     1       1.410  14.800  19.912  0.00  0.00    +0.000 NA
ATOM     37  H   UNL     1       3.194  15.196  19.017  0.00  0.00    +0.000 HD
ENDBRANCH  24  32
BRANCH  21  39
ATOM     38  N   UNL     1      -3.784  11.750  23.824  0.00  0.00    +0.000 NA
ATOM     39  C   UNL     1      -3.029  12.515  23.380  0.00  0.00    +0.000 C 
ENDBRANCH  21  39
ENDBRANCH   1  25
TORSDOF 7
ENDMDL
MODEL 2
REMARK VINA RESULT:      -8.0      0.706      1.329
REMARK  Name = 
REMARK  7 active torsions:
REMARK  status: ('A' for Active; 'I' for Inactive)
REMARK    1  A    between atoms: C_2  and  C_3
REMARK    2  A    between atoms: C_4  and  N_5
REMARK    3  A    between atoms: C_12  and  C_13
REMARK    4  A    between atoms: C_18  and  C_19
REMARK    5  A    between atoms: C_22  and  N_23
REMARK    6  A    between atoms: N_26  and  N_27
REMARK    7  A    between atoms: C_28  and  C_29
REMARK                            x       y       z     vdW  Elec       q    Type
REMARK                         _______ _______ _______ _____ _____    ______ ____
ROOT
ATOM      1  C   UNL     1      -0.718  11.696  21.555  0.00  0.00    +0.000 A 
ATOM      2  C   UNL     1      -0.572  11.120  20.292  0.00  0.00    +0.000 A 
ATOM      3  C   UNL     1       0.025   9.865  20.135  0.00  0.00    +0.000 A 
ATOM      4  C   UNL     1       0.440   9.112  21.235  0.00  0.00    +0.000 A 
ATOM      5  C   UNL     1       0.282   9.667  22.503  0.00  0.00    +0.000 A 
ATOM      6  C   UNL     1      -0.239  10.962  22.652  0.00  0.00    +0.000 A 
ENDROOT
BRANCH   4   7
ATOM      7  N   UNL     1       1.022   7.822  21.121  0.00  0.00    +0.000 N 
ATOM      8  C   UNL     1       1.831   7.397  20.095  0.00  0.00    +0.000 C 
ATOM      9  O   UNL     1       2.132   8.069  19.109  0.00  0.00    +0.000 OA
ATOM     10  N   UNL     1       2.314   6.098  20.260  0.00  0.00    +0.000 N 
ATOM     11  H   UNL     1       0.867   7.187  21.892  0.00  0.00    +0.000 HD
ATOM     12  H   UNL     1       2.016   5.492  21.009  0.00  0.00    +0.000 HD
BRANCH  10  13
ATOM     13  N   UNL     1       3.145   5.648  19.291  0.00  0.00    +0.000 NA
ATOM     14  C   UNL     1       4.419   5.797  19.405  0.00  0.00    +0.000 C 
BRANCH  14  15
ATOM     15  C   UNL     1       5.294   5.278  18.330  0.00  0.00    +0.000 A 
ATOM     16  C   UNL     1       6.661   5.079  18.576  0.00  0.00    +0.000 A 
ATOM     17  C   UNL     1       7.494   4.607  17.563  0.00  0.00    +0.000 A 
ATOM     18  C   UNL     1       6.964   4.333  16.303  0.00  0.00    +0.000 A 
ATOM     19  C   UNL     1       5.603   4.526  16.059  0.00  0.00    +0.000 A 
ATOM     20  C   UNL     1       4.761   4.999  17.071  0.00  0.00    +0.000 A 
ENDBRANCH  14  15
ENDBRANCH  10  13
ENDBRANCH   4   7
BRANCH   1  25
ATOM     21  C   UNL     1      -2.500  13.366  22.486  0.00  0.00    +0.000 A 
ATOM     22  C   UNL     1      -2.883  14.700  22.422  0.00  0.00    +0.000 A 
ATOM     23  S   UNL     1      -1.858  15.538  21.329  0.00  0.00    +0.000 S 
ATOM     24  C   UNL     1      -0.843  14.184  21.066  0.00  0.00    +0.000 A 
ATOM     25  C   UNL     1      -1.318  13.041  21.703  0.00  0.00    +0.000 A 
BRANCH  22  26
ATOM     26  N   UNL     1      -3.899  15.311  23.118  0.00  0.00    +0.000 N 
ATOM     27  C   UNL     1      -5.313  15.158  22.725  0.00  0.00    +0.000 C 
ATOM     28  C   UNL     1      -6.076  16.432  23.134  0.00  0.00    +0.000 C 
ATOM     29  O   UNL     1      -5.963  16.683  24.547  0.00  0.00    +0.000 OA
ATOM     30  C   UNL     1      -4.581  16.841  24.917  0.00  0.00    +0.000 C 
ATOM     31  C   UNL     1      -3.760  15.589  24.564  0.00  0.00    +0.000 C 
ENDBRANCH  22  26
BRANCH  24  32
ATOM     32  C   UNL     1       0.392  14.329  20.216  0.00  0.00    +0.000 A 
ATOM     33  N   UNL     1       1.650  14.483  20.760  0.00  0.00    +0.000 NA
ATOM     34  C   UNL     1       2.411  14.719  19.716  0.00  0.00    +0.000 A 
ATOM     35  N   UNL     1       1.664  14.640  18.588  0.00  0.00    +0.000 N 
ATOM     36  N   UNL     1       0.383  14.383  18.876  0.00  0.00    +0.000 NA
ATOM     37  H   UNL     1       1.939  14.767  17.621  0.00  0.00    +0.000 HD
ENDBRANCH  24  32
BRANCH  21  39
ATOM     38  N   UNL     1      -3.803  11.689  23.985  0.00  0.00    +0.000 NA
ATOM     39  C   UNL     1      -3.220  12.430  23.306  0.00  0.00    +0.000 C 
ENDBRANCH  21  39
ENDBRANCH   1  25
TORSDOF 7
ENDMDL
MODEL 3
REMARK VINA RESULT:      -8.0      0.966      1.699
REMARK  Name = 
REMARK  7 active torsions:
REMARK  status: ('A' for Active; 'I' for Inactive)
REMARK    1  A    between atoms: C_2  and  C_3
REMARK    2  A    between atoms: C_4  and  N_5
REMARK    3  A    between atoms: C_12  and  C_13
REMARK    4  A    between atoms: C_18  and  C_19
REMARK    5  A    between atoms: C_22  and  N_23
REMARK    6  A    between atoms: N_26  and  N_27
REMARK    7  A    between atoms: C_28  and  C_29
REMARK                            x       y       z     vdW  Elec       q    Type
REMARK                         _______ _______ _______ _____ _____    ______ ____
ROOT
ATOM      1  C   UNL     1      -0.602  11.819  21.298  0.00  0.00    +0.000 A 
ATOM      2  C   UNL     1      -0.964  10.994  20.231  0.00  0.00    +0.000 A 
ATOM      3  C   UNL     1      -0.385   9.731  20.066  0.00  0.00    +0.000 A 
ATOM      4  C   UNL     1       0.526   9.219  20.992  0.00  0.00    +0.000 A 
ATOM      5  C   UNL     1       0.881  10.025  22.071  0.00  0.00    +0.000 A 
ATOM      6  C   UNL     1       0.364  11.325  22.189  0.00  0.00    +0.000 A 
ENDROOT
BRANCH   4   7
ATOM      7  N   UNL     1       1.112   7.932  20.878  0.00  0.00    +0.000 N 
ATOM      8  C   UNL     1       1.922   7.509  19.850  0.00  0.00    +0.000 C 
ATOM      9  O   UNL     1       2.218   8.181  18.863  0.00  0.00    +0.000 OA
ATOM     10  N   UNL     1       2.409   6.212  20.015  0.00  0.00    +0.000 N 
ATOM     11  H   UNL     1       0.962   7.296  21.649  0.00  0.00    +0.000 HD
ATOM     12  H   UNL     1       2.115   5.606  20.765  0.00  0.00    +0.000 HD
BRANCH  10  13
ATOM     13  N   UNL     1       3.240   5.764  19.045  0.00  0.00    +0.000 NA
ATOM     14  C   UNL     1       4.513   5.745  19.236  0.00  0.00    +0.000 C 
BRANCH  14  15
ATOM     15  C   UNL     1       5.387   5.234  18.155  0.00  0.00    +0.000 A 
ATOM     16  C   UNL     1       6.764   5.093  18.377  0.00  0.00    +0.000 A 
ATOM     17  C   UNL     1       7.595   4.630  17.358  0.00  0.00    +0.000 A 
ATOM     18  C   UNL     1       7.051   4.306  16.116  0.00  0.00    +0.000 A 
ATOM     19  C   UNL     1       5.679   4.441  15.896  0.00  0.00    +0.000 A 
ATOM     20  C   UNL     1       4.840   4.906  16.914  0.00  0.00    +0.000 A 
ENDBRANCH  14  15
ENDBRANCH  10  13
ENDBRANCH   4   7
BRANCH   1  25
ATOM     21  C   UNL     1      -2.350  13.510  22.253  0.00  0.00    +0.000 A 
ATOM     22  C   UNL     1      -2.733  14.844  22.176  0.00  0.00    +0.000 A 
ATOM     23  S   UNL     1      -1.742  15.659  21.035  0.00  0.00    +0.000 S 
ATOM     24  C   UNL     1      -0.738  14.297  20.766  0.00  0.00    +0.000 A 
ATOM     25  C   UNL     1      -1.194  13.167  21.439  0.00  0.00    +0.000 A 
BRANCH  22  26
ATOM     26  N   UNL     1      -3.726  15.469  22.892  0.00  0.00    +0.000 N 
ATOM     27  C   UNL     1      -3.447  16.634  23.753  0.00  0.00    +0.000 C 
ATOM     28  C   UNL     1      -4.458  16.637  24.916  0.00  0.00    +0.000 C 
ATOM     29  O   UNL     1      -5.814  16.671  24.435  0.00  0.00    +0.000 OA
ATOM     30  C   UNL     1      -6.078  15.526  23.605  0.00  0.00    +0.000 C 
ATOM     31  C   UNL     1      -5.121  15.473  22.401  0.00  0.00    +0.000 C 
ENDBRANCH  22  26
BRANCH  24  32
ATOM     32  C   UNL     1       0.470  14.423  19.874  0.00  0.00    +0.000 A 
ATOM     33  N   UNL     1       0.539  13.822  18.635  0.00  0.00    +0.000 NA
ATOM     34  C   UNL     1       1.776  14.043  18.254  0.00  0.00    +0.000 A 
ATOM     35  N   UNL     1       2.404  14.804  19.184  0.00  0.00    +0.000 N 
ATOM     36  N   UNL     1       1.595  15.068  20.215  0.00  0.00    +0.000 NA
ATOM     37  H   UNL     1       3.356  15.152  19.198  0.00  0.00    +0.000 HD
ENDBRANCH  24  32
BRANCH  21  39
ATOM     38  N   UNL     1      -3.623  11.864  23.812  0.00  0.00    +0.000 NA
ATOM     39  C   UNL     1      -3.045  12.591  23.113  0.00  0.00    +0.000 C 
ENDBRANCH  21  39
ENDBRANCH   1  25
TORSDOF 7
ENDMDL
MODEL 4
REMARK VINA RESULT:      -7.9      1.600      1.909
REMARK  Name = 
REMARK  7 active torsions:
REMARK  status: ('A' for Active; 'I' for Inactive)
REMARK    1  A    between atoms: C_2  and  C_3
REMARK    2  A    between atoms: C_4  and  N_5
REMARK    3  A    between atoms: C_12  and  C_13
REMARK    4  A    between atoms: C_18  and  C_19
REMARK    5  A    between atoms: C_22  and  N_23
REMARK    6  A    between atoms: N_26  and  N_27
REMARK    7  A    between atoms: C_28  and  C_29
REMARK                            x       y       z     vdW  Elec       q    Type
REMARK                         _______ _______ _______ _____ _____    ______ ____
ROOT
ATOM      1  C   UNL     1      -1.463  12.477  21.649  0.00  0.00    +0.000 A 
ATOM      2  C   UNL     1      -1.040  11.810  22.799  0.00  0.00    +0.000 A 
ATOM      3  C   UNL     1      -0.456  10.541  22.725  0.00  0.00    +0.000 A 
ATOM      4  C   UNL     1      -0.214   9.920  21.499  0.00  0.00    +0.000 A 
ATOM      5  C   UNL     1      -0.614  10.584  20.341  0.00  0.00    +0.000 A 
ATOM      6  C   UNL     1      -1.277  11.819  20.422  0.00  0.00    +0.000 A 
ENDROOT
BRANCH   4   7
ATOM      7  N   UNL     1       0.404   8.648  21.378  0.00  0.00    +0.000 N 
ATOM      8  C   UNL     1       1.330   8.295  20.424  0.00  0.00    +0.000 C 
ATOM      9  O   UNL     1       1.722   9.027  19.517  0.00  0.00    +0.000 OA
ATOM     10  N   UNL     1       1.818   6.995  20.568  0.00  0.00    +0.000 N 
ATOM     11  H   UNL     1       0.179   7.966  22.090  0.00  0.00    +0.000 HD
ATOM     12  H   UNL     1       1.452   6.343  21.244  0.00  0.00    +0.000 HD
BRANCH  10  13
ATOM     13  N   UNL     1       2.759   6.615  19.673  0.00  0.00    +0.000 NA
ATOM     14  C   UNL     1       2.446   5.853  18.683  0.00  0.00    +0.000 C 
BRANCH  14  15
ATOM     15  C   UNL     1       3.502   5.472  17.718  0.00  0.00    +0.000 A 
ATOM     16  C   UNL     1       3.736   4.118  17.437  0.00  0.00    +0.000 A 
ATOM     17  C   UNL     1       4.740   3.751  16.542  0.00  0.00    +0.000 A 
ATOM     18  C   UNL     1       5.512   4.735  15.928  0.00  0.00    +0.000 A 
ATOM     19  C   UNL     1       5.276   6.084  16.203  0.00  0.00    +0.000 A 
ATOM     20  C   UNL     1       4.270   6.459  17.100  0.00  0.00    +0.000 A 
ENDBRANCH  14  15
ENDBRANCH  10  13
ENDBRANCH   4   7
BRANCH   1  25
ATOM     21  C   UNL     1      -3.541  14.043  21.895  0.00  0.00    +0.000 A 
ATOM     22  C   UNL     1      -3.898  15.386  21.916  0.00  0.00    +0.000 A 
ATOM     23  S   UNL     1      -2.505  16.354  21.657  0.00  0.00    +0.000 S 
ATOM     24  C   UNL     1      -1.436  15.015  21.664  0.00  0.00    +0.000 A 
ATOM     25  C   UNL     1      -2.114  13.803  21.746  0.00  0.00    +0.000 A 
BRANCH  22  26
ATOM     26  N   UNL     1      -5.150  15.912  22.130  0.00  0.00    +0.000 N 
ATOM     27  C   UNL     1      -6.193  15.886  21.087  0.00  0.00    +0.000 C 
ATOM     28  C   UNL     1      -7.116  17.104  21.286  0.00  0.00    +0.000 C 
ATOM     29  O   UNL     1      -7.706  17.109  22.599  0.00  0.00    +0.000 OA
ATOM     30  C   UNL     1      -6.681  17.145  23.607  0.00  0.00    +0.000 C 
ATOM     31  C   UNL     1      -5.735  15.937  23.488  0.00  0.00    +0.000 C 
ENDBRANCH  22  26
BRANCH  24  32
ATOM     32  C   UNL     1       0.051  15.245  21.576  0.00  0.00    +0.000 A 
ATOM     33  N   UNL     1       0.680  15.572  20.393  0.00  0.00    +0.000 NA
ATOM     34  C   UNL     1       1.955  15.540  20.703  0.00  0.00    +0.000 A 
ATOM     35  N   UNL     1       2.090  15.278  22.025  0.00  0.00    +0.000 N 
ATOM     36  N   UNL     1       0.899  15.098  22.605  0.00  0.00    +0.000 NA
ATOM     37  H   UNL     1       2.932  15.186  22.583  0.00  0.00    +0.000 HD
ENDBRANCH  24  32
BRANCH  21  39
ATOM     38  N   UNL     1      -5.329  12.175  22.158  0.00  0.00    +0.000 NA
ATOM     39  C   UNL     1      -4.531  13.012  22.053  0.00  0.00    +0.000 C 
ENDBRANCH  21  39
ENDBRANCH   1  25
TORSDOF 7
ENDMDL
MODEL 5
REMARK VINA RESULT:      -7.9      0.617      1.145
REMARK  Name = 
REMARK  7 active torsions:
REMARK  status: ('A' for Active; 'I' for Inactive)
REMARK    1  A    between atoms: C_2  and  C_3
REMARK    2  A    between atoms: C_4  and  N_5
REMARK    3  A    between atoms: C_12  and  C_13
REMARK    4  A    between atoms: C_18  and  C_19
REMARK    5  A    between atoms: C_22  and  N_23
REMARK    6  A    between atoms: N_26  and  N_27
REMARK    7  A    between atoms: C_28  and  C_29
REMARK                            x       y       z     vdW  Elec       q    Type
REMARK                         _______ _______ _______ _____ _____    ______ ____
ROOT
ATOM      1  C   UNL     1      -0.514  11.664  21.690  0.00  0.00    +0.000 A 
ATOM      2  C   UNL     1      -0.374  10.835  22.804  0.00  0.00    +0.000 A 
ATOM      3  C   UNL     1       0.135   9.538  22.680  0.00  0.00    +0.000 A 
ATOM      4  C   UNL     1       0.581   9.043  21.454  0.00  0.00    +0.000 A 
ATOM      5  C   UNL     1       0.464   9.868  20.336  0.00  0.00    +0.000 A 
ATOM      6  C   UNL     1      -0.124  11.138  20.448  0.00  0.00    +0.000 A 
ENDROOT
BRANCH   4   7
ATOM      7  N   UNL     1       1.131   7.745  21.290  0.00  0.00    +0.000 N 
ATOM      8  C   UNL     1       1.877   7.322  20.216  0.00  0.00    +0.000 C 
ATOM      9  O   UNL     1       2.138   8.004  19.226  0.00  0.00    +0.000 OA
ATOM     10  N   UNL     1       2.342   6.011  20.336  0.00  0.00    +0.000 N 
ATOM     11  H   UNL     1       1.005   7.100  22.058  0.00  0.00    +0.000 HD
ATOM     12  H   UNL     1       2.072   5.399  21.090  0.00  0.00    +0.000 HD
BRANCH  10  13
ATOM     13  N   UNL     1       3.112   5.562  19.317  0.00  0.00    +0.000 NA
ATOM     14  C   UNL     1       4.389   5.722  19.347  0.00  0.00    +0.000 C 
BRANCH  14  15
ATOM     15  C   UNL     1       5.197   5.203  18.221  0.00  0.00    +0.000 A 
ATOM     16  C   UNL     1       6.584   5.054  18.365  0.00  0.00    +0.000 A 
ATOM     17  C   UNL     1       7.353   4.582  17.303  0.00  0.00    +0.000 A 
ATOM     18  C   UNL     1       6.739   4.259  16.094  0.00  0.00    +0.000 A 
ATOM     19  C   UNL     1       5.357   4.401  15.951  0.00  0.00    +0.000 A 
ATOM     20  C   UNL     1       4.580   4.874  17.013  0.00  0.00    +0.000 A 
ENDBRANCH  14  15
ENDBRANCH  10  13
ENDBRANCH   4   7
BRANCH   1  25
ATOM     21  C   UNL     1      -2.296  13.363  22.565  0.00  0.00    +0.000 A 
ATOM     22  C   UNL     1      -2.645  14.707  22.503  0.00  0.00    +0.000 A 
ATOM     23  S   UNL     1      -1.552  15.536  21.470  0.00  0.00    +0.000 S 
ATOM     24  C   UNL     1      -0.559  14.161  21.233  0.00  0.00    +0.000 A 
ATOM     25  C   UNL     1      -1.088  13.021  21.830  0.00  0.00    +0.000 A 
BRANCH  22  26
ATOM     26  N   UNL     1      -3.676  15.332  23.163  0.00  0.00    +0.000 N 
ATOM     27  C   UNL     1      -5.072  15.232  22.696  0.00  0.00    +0.000 C 
ATOM     28  C   UNL     1      -5.817  16.520  23.098  0.00  0.00    +0.000 C 
ATOM     29  O   UNL     1      -5.768  16.733  24.521  0.00  0.00    +0.000 OA
ATOM     30  C   UNL     1      -4.403  16.840  24.964  0.00  0.00    +0.000 C 
ATOM     31  C   UNL     1      -3.603  15.572  24.621  0.00  0.00    +0.000 C 
ENDBRANCH  22  26
BRANCH  24  32
ATOM     32  C   UNL     1       0.717  14.288  20.440  0.00  0.00    +0.000 A 
ATOM     33  N   UNL     1       0.723  14.437  19.069  0.00  0.00    +0.000 NA
ATOM     34  C   UNL     1       1.995  14.363  18.756  0.00  0.00    +0.000 A 
ATOM     35  N   UNL     1       2.731  14.248  19.889  0.00  0.00    +0.000 N 
ATOM     36  N   UNL     1       1.946  14.209  20.971  0.00  0.00    +0.000 NA
ATOM     37  H   UNL     1       3.735  14.170  20.002  0.00  0.00    +0.000 HD
ENDBRANCH  24  32
BRANCH  21  39
ATOM     38  N   UNL     1      -3.702  11.697  23.981  0.00  0.00    +0.000 NA
ATOM     39  C   UNL     1      -3.073  12.433  23.338  0.00  0.00    +0.000 C 
ENDBRANCH  21  39
ENDBRANCH   1  25
TORSDOF 7
ENDMDL
MODEL 6
REMARK VINA RESULT:      -7.9      1.564      1.977
REMARK  Name = 
REMARK  7 active torsions:
REMARK  status: ('A' for Active; 'I' for Inactive)
REMARK    1  A    between atoms: C_2  and  C_3
REMARK    2  A    between atoms: C_4  and  N_5
REMARK    3  A    between atoms: C_12  and  C_13
REMARK    4  A    between atoms: C_18  and  C_19
REMARK    5  A    between atoms: C_22  and  N_23
REMARK    6  A    between atoms: N_26  and  N_27
REMARK    7  A    between atoms: C_28  and  C_29
REMARK                            x       y       z     vdW  Elec       q    Type
REMARK                         _______ _______ _______ _____ _____    ______ ____
ROOT
ATOM      1  C   UNL     1      -1.479  12.481  21.637  0.00  0.00    +0.000 A 
ATOM      2  C   UNL     1      -1.038  11.831  22.791  0.00  0.00    +0.000 A 
ATOM      3  C   UNL     1      -0.468  10.555  22.729  0.00  0.00    +0.000 A 
ATOM      4  C   UNL     1      -0.259   9.908  21.510  0.00  0.00    +0.000 A 
ATOM      5  C   UNL     1      -0.678  10.554  20.349  0.00  0.00    +0.000 A 
ATOM      6  C   UNL     1      -1.326  11.797  20.420  0.00  0.00    +0.000 A 
ENDROOT
BRANCH   4   7
ATOM      7  N   UNL     1       0.343   8.627  21.401  0.00  0.00    +0.000 N 
ATOM      8  C   UNL     1       1.290   8.265  20.472  0.00  0.00    +0.000 C 
ATOM      9  O   UNL     1       1.718   8.995  19.579  0.00  0.00    +0.000 OA
ATOM     10  N   UNL     1       1.755   6.958  20.623  0.00  0.00    +0.000 N 
ATOM     11  H   UNL     1       0.089   7.946  22.103  0.00  0.00    +0.000 HD
ATOM     12  H   UNL     1       1.361   6.308  21.286  0.00  0.00    +0.000 HD
BRANCH  10  13
ATOM     13  N   UNL     1       2.715   6.567  19.753  0.00  0.00    +0.000 NA
ATOM     14  C   UNL     1       2.491   5.607  18.925  0.00  0.00    +0.000 C 
BRANCH  14  15
ATOM     15  C   UNL     1       3.562   5.220  17.979  0.00  0.00    +0.000 A 
ATOM     16  C   UNL     1       3.634   3.901  17.506  0.00  0.00    +0.000 A 
ATOM     17  C   UNL     1       4.650   3.526  16.629  0.00  0.00    +0.000 A 
ATOM     18  C   UNL     1       5.597   4.466  16.223  0.00  0.00    +0.000 A 
ATOM     19  C   UNL     1       5.522   5.780  16.689  0.00  0.00    +0.000 A 
ATOM     20  C   UNL     1       4.505   6.163  17.569  0.00  0.00    +0.000 A 
ENDBRANCH  14  15
ENDBRANCH  10  13
ENDBRANCH   4   7
BRANCH   1  25
ATOM     21  C   UNL     1      -3.539  14.072  21.861  0.00  0.00    +0.000 A 
ATOM     22  C   UNL     1      -3.881  15.420  21.872  0.00  0.00    +0.000 A 
ATOM     23  S   UNL     1      -2.473  16.370  21.617  0.00  0.00    +0.000 S 
ATOM     24  C   UNL     1      -1.421  15.018  21.638  0.00  0.00    +0.000 A 
ATOM     25  C   UNL     1      -2.114  13.814  21.722  0.00  0.00    +0.000 A 
BRANCH  22  26
ATOM     26  N   UNL     1      -5.127  15.963  22.075  0.00  0.00    +0.000 N 
ATOM     27  C   UNL     1      -5.548  16.474  23.393  0.00  0.00    +0.000 C 
ATOM     28  C   UNL     1      -7.075  16.308  23.518  0.00  0.00    +0.000 C 
ATOM     29  O   UNL     1      -7.768  16.993  22.459  0.00  0.00    +0.000 OA
ATOM     30  C   UNL     1      -7.358  16.480  21.179  0.00  0.00    +0.000 C 
ATOM     31  C   UNL     1      -5.842  16.640  20.971  0.00  0.00    +0.000 C 
ENDBRANCH  22  26
BRANCH  24  32
ATOM     32  C   UNL     1       0.069  15.230  21.559  0.00  0.00    +0.000 A 
ATOM     33  N   UNL     1       0.864  15.315  22.682  0.00  0.00    +0.000 NA
ATOM     34  C   UNL     1       2.041  15.641  22.203  0.00  0.00    +0.000 A 
ATOM     35  N   UNL     1       1.981  15.681  20.849  0.00  0.00    +0.000 N 
ATOM     36  N   UNL     1       0.745  15.413  20.415  0.00  0.00    +0.000 NA
ATOM     37  H   UNL     1       2.707  15.897  20.176  0.00  0.00    +0.000 HD
ENDBRANCH  24  32
BRANCH  21  39
ATOM     38  N   UNL     1      -5.354  12.237  22.169  0.00  0.00    +0.000 NA
ATOM     39  C   UNL     1      -4.543  13.055  22.019  0.00  0.00    +0.000 C 
ENDBRANCH  21  39
ENDBRANCH   1  25
TORSDOF 7
ENDMDL
MODEL 7
REMARK VINA RESULT:      -7.9      1.665      2.047
REMARK  Name = 
REMARK  7 active torsions:
REMARK  status: ('A' for Active; 'I' for Inactive)
REMARK    1  A    between atoms: C_2  and  C_3
REMARK    2  A    between atoms: C_4  and  N_5
REMARK    3  A    between atoms: C_12  and  C_13
REMARK    4  A    between atoms: C_18  and  C_19
REMARK    5  A    between atoms: C_22  and  N_23
REMARK    6  A    between atoms: N_26  and  N_27
REMARK    7  A    between atoms: C_28  and  C_29
REMARK                            x       y       z     vdW  Elec       q    Type
REMARK                         _______ _______ _______ _____ _____    ______ ____
ROOT
ATOM      1  C   UNL     1      -1.415  12.583  21.160  0.00  0.00    +0.000 A 
ATOM      2  C   UNL     1      -0.732  12.107  22.281  0.00  0.00    +0.000 A 
ATOM      3  C   UNL     1      -0.101  10.858  22.265  0.00  0.00    +0.000 A 
ATOM      4  C   UNL     1      -0.073  10.069  21.114  0.00  0.00    +0.000 A 
ATOM      5  C   UNL     1      -0.735  10.541  19.983  0.00  0.00    +0.000 A 
ATOM      6  C   UNL     1      -1.439  11.755  20.026  0.00  0.00    +0.000 A 
ENDROOT
BRANCH   4   7
ATOM      7  N   UNL     1       0.581   8.811  21.047  0.00  0.00    +0.000 N 
ATOM      8  C   UNL     1       1.496   8.435  20.092  0.00  0.00    +0.000 C 
ATOM      9  O   UNL     1       1.844   9.128  19.137  0.00  0.00    +0.000 OA
ATOM     10  N   UNL     1       2.028   7.160  20.294  0.00  0.00    +0.000 N 
ATOM     11  H   UNL     1       0.395   8.163  21.800  0.00  0.00    +0.000 HD
ATOM     12  H   UNL     1       1.699   6.535  21.013  0.00  0.00    +0.000 HD
BRANCH  10  13
ATOM     13  N   UNL     1       2.960   6.760  19.398  0.00  0.00    +0.000 NA
ATOM     14  C   UNL     1       2.679   5.854  18.528  0.00  0.00    +0.000 C 
BRANCH  14  15
ATOM     15  C   UNL     1       3.722   5.454  17.555  0.00  0.00    +0.000 A 
ATOM     16  C   UNL     1       4.462   6.436  16.881  0.00  0.00    +0.000 A 
ATOM     17  C   UNL     1       5.433   6.067  15.952  0.00  0.00    +0.000 A 
ATOM     18  C   UNL     1       5.667   4.717  15.694  0.00  0.00    +0.000 A 
ATOM     19  C   UNL     1       4.934   3.739  16.370  0.00  0.00    +0.000 A 
ATOM     20  C   UNL     1       3.958   4.102  17.303  0.00  0.00    +0.000 A 
ENDBRANCH  14  15
ENDBRANCH  10  13
ENDBRANCH   4   7
BRANCH   1  25
ATOM     21  C   UNL     1      -3.436  14.131  21.750  0.00  0.00    +0.000 A 
ATOM     22  C   UNL     1      -3.878  15.443  21.626  0.00  0.00    +0.000 A 
ATOM     23  S   UNL     1      -2.714  16.360  20.757  0.00  0.00    +0.000 S 
ATOM     24  C   UNL     1      -1.590  15.069  20.680  0.00  0.00    +0.000 A 
ATOM     25  C   UNL     1      -2.109  13.889  21.203  0.00  0.00    +0.000 A 
BRANCH  22  26
ATOM     26  N   UNL     1      -5.041  15.982  22.121  0.00  0.00    +0.000 N 
ATOM     27  C   UNL     1      -5.033  17.096  23.088  0.00  0.00    +0.000 C 
ATOM     28  C   UNL     1      -6.287  16.983  23.977  0.00  0.00    +0.000 C 
ATOM     29  O   UNL     1      -7.492  16.998  23.191  0.00  0.00    +0.000 OA
ATOM     30  C   UNL     1      -7.495  15.901  22.259  0.00  0.00    +0.000 C 
ATOM     31  C   UNL     1      -6.281  15.966  21.315  0.00  0.00    +0.000 C 
ENDBRANCH  22  26
BRANCH  24  32
ATOM     32  C   UNL     1      -0.227  15.301  20.082  0.00  0.00    +0.000 A 
ATOM     33  N   UNL     1       0.896  15.504  20.857  0.00  0.00    +0.000 NA
ATOM     34  C   UNL     1       1.825  15.807  19.982  0.00  0.00    +0.000 A 
ATOM     35  N   UNL     1       1.310  15.721  18.731  0.00  0.00    +0.000 N 
ATOM     36  N   UNL     1       0.014  15.391  18.765  0.00  0.00    +0.000 NA
ATOM     37  H   UNL     1       1.755  15.888  17.836  0.00  0.00    +0.000 HD
ENDBRANCH  24  32
BRANCH  21  39
ATOM     38  N   UNL     1      -4.910  12.354  22.944  0.00  0.00    +0.000 NA
ATOM     39  C   UNL     1      -4.242  13.140  22.408  0.00  0.00    +0.000 C 
ENDBRANCH  21  39
ENDBRANCH   1  25
TORSDOF 7
ENDMDL
MODEL 8
REMARK VINA RESULT:      -7.9      2.580      3.266
REMARK  Name = 
REMARK  7 active torsions:
REMARK  status: ('A' for Active; 'I' for Inactive)
REMARK    1  A    between atoms: C_2  and  C_3
REMARK    2  A    between atoms: C_4  and  N_5
REMARK    3  A    between atoms: C_12  and  C_13
REMARK    4  A    between atoms: C_18  and  C_19
REMARK    5  A    between atoms: C_22  and  N_23
REMARK    6  A    between atoms: N_26  and  N_27
REMARK    7  A    between atoms: C_28  and  C_29
REMARK                            x       y       z     vdW  Elec       q    Type
REMARK                         _______ _______ _______ _____ _____    ______ ____
ROOT
ATOM      1  C   UNL     1      -0.350  14.023  19.752  0.00  0.00    +0.000 A 
ATOM      2  C   UNL     1       0.944  13.753  20.200  0.00  0.00    +0.000 A 
ATOM      3  C   UNL     1       1.668  12.663  19.704  0.00  0.00    +0.000 A 
ATOM      4  C   UNL     1       1.154  11.843  18.699  0.00  0.00    +0.000 A 
ATOM      5  C   UNL     1      -0.130  12.113  18.229  0.00  0.00    +0.000 A 
ATOM      6  C   UNL     1      -0.887  13.155  18.788  0.00  0.00    +0.000 A 
ENDROOT
BRANCH   4   7
ATOM      7  N   UNL     1       1.867  10.747  18.147  0.00  0.00    +0.000 N 
ATOM      8  C   UNL     1       1.719   9.430  18.514  0.00  0.00    +0.000 C 
ATOM      9  O   UNL     1       0.972   9.025  19.403  0.00  0.00    +0.000 OA
ATOM     10  N   UNL     1       2.504   8.547  17.771  0.00  0.00    +0.000 N 
ATOM     11  H   UNL     1       2.494  10.954  17.382  0.00  0.00    +0.000 HD
ATOM     12  H   UNL     1       3.190   8.855  17.098  0.00  0.00    +0.000 HD
BRANCH  10  13
ATOM     13  N   UNL     1       2.366   7.235  18.072  0.00  0.00    +0.000 NA
ATOM     14  C   UNL     1       3.311   6.403  17.805  0.00  0.00    +0.000 C 
BRANCH  14  15
ATOM     15  C   UNL     1       3.126   4.978  18.164  0.00  0.00    +0.000 A 
ATOM     16  C   UNL     1       1.905   4.343  17.898  0.00  0.00    +0.000 A 
ATOM     17  C   UNL     1       1.718   3.007  18.249  0.00  0.00    +0.000 A 
ATOM     18  C   UNL     1       2.751   2.303  18.866  0.00  0.00    +0.000 A 
ATOM     19  C   UNL     1       3.970   2.933  19.126  0.00  0.00    +0.000 A 
ATOM     20  C   UNL     1       4.164   4.274  18.776  0.00  0.00    +0.000 A 
ENDBRANCH  14  15
ENDBRANCH  10  13
ENDBRANCH   4   7
BRANCH   1  25
ATOM     21  C   UNL     1      -2.036  15.090  21.439  0.00  0.00    +0.000 A 
ATOM     22  C   UNL     1      -2.666  16.292  21.739  0.00  0.00    +0.000 A 
ATOM     23  S   UNL     1      -2.211  17.481  20.586  0.00  0.00    +0.000 S 
ATOM     24  C   UNL     1      -1.091  16.450  19.800  0.00  0.00    +0.000 A 
ATOM     25  C   UNL     1      -1.117  15.157  20.313  0.00  0.00    +0.000 A 
BRANCH  22  26
ATOM     26  N   UNL     1      -3.511  16.551  22.791  0.00  0.00    +0.000 N 
ATOM     27  C   UNL     1      -3.158  17.511  23.854  0.00  0.00    +0.000 C 
ATOM     28  C   UNL     1      -3.840  17.067  25.162  0.00  0.00    +0.000 C 
ATOM     29  O   UNL     1      -5.268  16.978  25.009  0.00  0.00    +0.000 OA
ATOM     30  C   UNL     1      -5.601  16.031  23.978  0.00  0.00    +0.000 C 
ATOM     31  C   UNL     1      -4.976  16.429  22.629  0.00  0.00    +0.000 C 
ENDBRANCH  22  26
BRANCH  24  32
ATOM     32  C   UNL     1      -0.233  16.991  18.685  0.00  0.00    +0.000 A 
ATOM     33  N   UNL     1       1.144  17.029  18.764  0.00  0.00    +0.000 NA
ATOM     34  C   UNL     1       1.496  17.689  17.685  0.00  0.00    +0.000 A 
ATOM     35  N   UNL     1       0.392  17.973  16.952  0.00  0.00    +0.000 N 
ATOM     36  N   UNL     1      -0.715  17.533  17.557  0.00  0.00    +0.000 NA
ATOM     37  H   UNL     1       0.312  18.467  16.070  0.00  0.00    +0.000 HD
ENDBRANCH  24  32
BRANCH  21  39
ATOM     38  N   UNL     1      -2.448  12.971  22.887  0.00  0.00    +0.000 NA
ATOM     39  C   UNL     1      -2.273  13.915  22.232  0.00  0.00    +0.000 C 
ENDBRANCH  21  39
ENDBRANCH   1  25
TORSDOF 7
ENDMDL
MODEL 9
REMARK VINA RESULT:      -7.8      1.566      1.967
REMARK  Name = 
REMARK  7 active torsions:
REMARK  status: ('A' for Active; 'I' for Inactive)
REMARK    1  A    between atoms: C_2  and  C_3
REMARK    2  A    between atoms: C_4  and  N_5
REMARK    3  A    between atoms: C_12  and  C_13
REMARK    4  A    between atoms: C_18  and  C_19
REMARK    5  A    between atoms: C_22  and  N_23
REMARK    6  A    between atoms: N_26  and  N_27
REMARK    7  A    between atoms: C_28  and  C_29
REMARK                            x       y       z     vdW  Elec       q    Type
REMARK                         _______ _______ _______ _____ _____    ______ ____
ROOT
ATOM      1  C   UNL     1      -1.307  12.462  21.162  0.00  0.00    +0.000 A 
ATOM      2  C   UNL     1      -0.620  11.964  22.271  0.00  0.00    +0.000 A 
ATOM      3  C   UNL     1      -0.034  10.694  22.247  0.00  0.00    +0.000 A 
ATOM      4  C   UNL     1      -0.055   9.903  21.097  0.00  0.00    +0.000 A 
ATOM      5  C   UNL     1      -0.721  10.396  19.977  0.00  0.00    +0.000 A 
ATOM      6  C   UNL     1      -1.382  11.634  20.031  0.00  0.00    +0.000 A 
ENDROOT
BRANCH   4   7
ATOM      7  N   UNL     1       0.554   8.623  21.021  0.00  0.00    +0.000 N 
ATOM      8  C   UNL     1       1.514   8.247  20.111  0.00  0.00    +0.000 C 
ATOM      9  O   UNL     1       1.951   8.961  19.210  0.00  0.00    +0.000 OA
ATOM     10  N   UNL     1       1.982   6.944  20.295  0.00  0.00    +0.000 N 
ATOM     11  H   UNL     1       0.293   7.955  21.733  0.00  0.00    +0.000 HD
ATOM     12  H   UNL     1       1.582   6.306  20.965  0.00  0.00    +0.000 HD
BRANCH  10  13
ATOM     13  N   UNL     1       2.956   6.541  19.445  0.00  0.00    +0.000 NA
ATOM     14  C   UNL     1       2.665   5.823  18.417  0.00  0.00    +0.000 C 
BRANCH  14  15
ATOM     15  C   UNL     1       3.756   5.414  17.504  0.00  0.00    +0.000 A 
ATOM     16  C   UNL     1       3.989   4.053  17.257  0.00  0.00    +0.000 A 
ATOM     17  C   UNL     1       5.026   3.661  16.412  0.00  0.00    +0.000 A 
ATOM     18  C   UNL     1       5.832   4.627  15.812  0.00  0.00    +0.000 A 
ATOM     19  C   UNL     1       5.597   5.983  16.052  0.00  0.00    +0.000 A 
ATOM     20  C   UNL     1       4.559   6.383  16.899  0.00  0.00    +0.000 A 
ENDBRANCH  14  15
ENDBRANCH  10  13
ENDBRANCH   4   7
BRANCH   1  25
ATOM     21  C   UNL     1      -3.276  14.075  21.755  0.00  0.00    +0.000 A 
ATOM     22  C   UNL     1      -3.669  15.404  21.643  0.00  0.00    +0.000 A 
ATOM     23  S   UNL     1      -2.467  16.287  20.793  0.00  0.00    +0.000 S 
ATOM     24  C   UNL     1      -1.390  14.959  20.709  0.00  0.00    +0.000 A 
ATOM     25  C   UNL     1      -1.954  13.792  21.215  0.00  0.00    +0.000 A 
BRANCH  22  26
ATOM     26  N   UNL     1      -4.816  15.978  22.136  0.00  0.00    +0.000 N 
ATOM     27  C   UNL     1      -4.786  16.937  23.257  0.00  0.00    +0.000 C 
ATOM     28  C   UNL     1      -6.111  16.822  24.035  0.00  0.00    +0.000 C 
ATOM     29  O   UNL     1      -7.245  17.068  23.183  0.00  0.00    +0.000 OA
ATOM     30  C   UNL     1      -7.271  16.121  22.100  0.00  0.00    +0.000 C 
ATOM     31  C   UNL     1      -5.985  16.200  21.258  0.00  0.00    +0.000 C 
ENDBRANCH  22  26
BRANCH  24  32
ATOM     32  C   UNL     1      -0.014  15.147  20.123  0.00  0.00    +0.000 A 
ATOM     33  N   UNL     1       0.259  14.922  18.791  0.00  0.00    +0.000 NA
ATOM     34  C   UNL     1       1.563  15.050  18.717  0.00  0.00    +0.000 A 
ATOM     35  N   UNL     1       2.049  15.407  19.931  0.00  0.00    +0.000 N 
ATOM     36  N   UNL     1       1.069  15.487  20.838  0.00  0.00    +0.000 NA
ATOM     37  H   UNL     1       3.005  15.586  20.217  0.00  0.00    +0.000 HD
ENDBRANCH  24  32
BRANCH  21  39
ATOM     38  N   UNL     1      -4.802  12.309  22.897  0.00  0.00    +0.000 NA
ATOM     39  C   UNL     1      -4.122  13.106  22.396  0.00  0.00    +0.000 C 
ENDBRANCH  21  39
ENDBRANCH   1  25
TORSDOF 7
ENDMDL
