MODEL 1
REMARK VINA RESULT:      -8.6      0.000      0.000
REMARK  Name = 
REMARK  10 active torsions:
REMARK  status: ('A' for Active; 'I' for Inactive)
REMARK    1  A    between atoms: C_1  and  C_2
REMARK    2  A    between atoms: C_2  and  O_3
REMARK    3  A    between atoms: O_3  and  C_4
REMARK    4  A    between atoms: C_4  and  C_6
REMARK    5  A    between atoms: C_9  and  C_10
REMARK    6  A    between atoms: C_9  and  C_11
REMARK    7  A    between atoms: N_15  and  C_16
REMARK    8  A    between atoms: C_16  and  C_17
REMARK    9  A    between atoms: C_20  and  C_21
REMARK   10  A    between atoms: C_26  and  C_27
REMARK                            x       y       z     vdW  Elec       q    Type
REMARK                         _______ _______ _______ _____ _____    ______ ____
ROOT
ATOM      1  C   UNL     1       1.861   9.287  18.869  0.00  0.00    +0.000 A 
ATOM      2  C   UNL     1       1.515   8.814  20.140  0.00  0.00    +0.000 A 
ATOM      3  C   UNL     1       1.685   7.455  20.474  0.00  0.00    +0.000 A 
ATOM      4  C   UNL     1       2.169   6.518  19.546  0.00  0.00    +0.000 A 
ATOM      5  C   UNL     1       2.487   7.019  18.272  0.00  0.00    +0.000 A 
ATOM      6  C   UNL     1       2.387   8.379  17.953  0.00  0.00    +0.000 A 
ENDROOT
BRANCH   4   7
ATOM      7  C   UNL     1       2.294   5.063  19.885  0.00  0.00    +0.000 A 
ATOM      8  C   UNL     1       1.200   4.423  20.523  0.00  0.00    +0.000 A 
ATOM      9  C   UNL     1       1.197   3.055  20.822  0.00  0.00    +0.000 A 
ATOM     10  C   UNL     1       2.285   2.268  20.481  0.00  0.00    +0.000 A 
ATOM     11  C   UNL     1       3.382   2.856  19.856  0.00  0.00    +0.000 A 
ATOM     12  C   UNL     1       3.411   4.242  19.571  0.00  0.00    +0.000 A 
BRANCH  12  13
ATOM     13  C   UNL     1       4.632   4.740  18.948  0.00  0.00    +0.000 A 
ATOM     14  N   UNL     1       4.860   4.624  17.593  0.00  0.00    +0.000 NA
ATOM     15  N   UNL     1       5.996   5.256  17.341  0.00  0.00    +0.000 NA
ATOM     16  N   UNL     1       6.402   5.707  18.534  0.00  0.00    +0.000 N 
ATOM     17  N   UNL     1       5.634   5.375  19.580  0.00  0.00    +0.000 NA
ATOM     18  H   UNL     1       7.229   6.288  18.632  0.00  0.00    +0.000 HD
ENDBRANCH  12  13
ENDBRANCH   4   7
BRANCH   1  19
ATOM     19  C   UNL     1       1.710  10.754  18.501  0.00  0.00    +0.000 C 
BRANCH  19  29
ATOM     20  C   UNL     1      -1.209  10.309  17.966  0.00  0.00    +0.000 C 
ATOM     21  C   UNL     1      -0.703  11.381  18.613  0.00  0.00    +0.000 C 
ATOM     22  C   UNL     1      -1.474  12.662  18.843  0.00  0.00    +0.000 C 
ATOM     23  C   UNL     1      -1.496  13.041  20.327  0.00  0.00    +0.000 C 
ATOM     24  C   UNL     1      -2.248  11.991  21.165  0.00  0.00    +0.000 C 
ATOM     25  C   UNL     1      -2.210  14.396  20.476  0.00  0.00    +0.000 C 
ATOM     26  C   UNL     1      -0.050  13.180  20.801  0.00  0.00    +0.000 C 
ATOM     27  C   UNL     1       0.898  12.087  20.350  0.00  0.00    +0.000 C 
ATOM     28  O   UNL     1       1.963  11.938  20.956  0.00  0.00    +0.000 OA
ATOM     29  N   UNL     1       0.569  11.356  19.203  0.00  0.00    +0.000 N 
BRANCH  20  30
ATOM     30  C   UNL     1      -2.590  10.238  17.434  0.00  0.00    +0.000 C 
ATOM     31  O   UNL     1      -3.512   9.619  17.931  0.00  0.00    +0.000 OA
BRANCH  30  32
ATOM     32  O   UNL     1      -2.610  10.909  16.253  0.00  0.00    +0.000 OA
BRANCH  32  34
ATOM     33  C   UNL     1      -3.081   9.960  14.115  0.00  0.00    +0.000 C 
ATOM     34  C   UNL     1      -3.690  10.581  15.360  0.00  0.00    +0.000 C 
ENDBRANCH  32  34
ENDBRANCH  30  32
ENDBRANCH  20  30
ENDBRANCH  19  29
ENDBRANCH   1  19
TORSDOF 7
ENDMDL
MODEL 2
REMARK VINA RESULT:      -8.5      1.610      3.626
REMARK  Name = 
REMARK  10 active torsions:
REMARK  status: ('A' for Active; 'I' for Inactive)
REMARK    1  A    between atoms: C_1  and  C_2
REMARK    2  A    between atoms: C_2  and  O_3
REMARK    3  A    between atoms: O_3  and  C_4
REMARK    4  A    between atoms: C_4  and  C_6
REMARK    5  A    between atoms: C_9  and  C_10
REMARK    6  A    between atoms: C_9  and  C_11
REMARK    7  A    between atoms: N_15  and  C_16
REMARK    8  A    between atoms: C_16  and  C_17
REMARK    9  A    between atoms: C_20  and  C_21
REMARK   10  A    between atoms: C_26  and  C_27
REMARK                            x       y       z     vdW  Elec       q    Type
REMARK                         _______ _______ _______ _____ _____    ______ ____
ROOT
ATOM      1  C   UNL     1       1.979   8.989  18.521  0.00  0.00    +0.000 A 
ATOM      2  C   UNL     1       1.717   8.673  19.859  0.00  0.00    +0.000 A 
ATOM      3  C   UNL     1       1.878   7.356  20.334  0.00  0.00    +0.000 A 
ATOM      4  C   UNL     1       2.268   6.305  19.487  0.00  0.00    +0.000 A 
ATOM      5  C   UNL     1       2.504   6.648  18.145  0.00  0.00    +0.000 A 
ATOM      6  C   UNL     1       2.413   7.966  17.680  0.00  0.00    +0.000 A 
ENDROOT
BRANCH   4   7
ATOM      7  C   UNL     1       2.381   4.894  19.982  0.00  0.00    +0.000 A 
ATOM      8  C   UNL     1       1.283   4.335  20.683  0.00  0.00    +0.000 A 
ATOM      9  C   UNL     1       1.269   3.007  21.128  0.00  0.00    +0.000 A 
ATOM     10  C   UNL     1       2.351   2.180  20.875  0.00  0.00    +0.000 A 
ATOM     11  C   UNL     1       3.453   2.688  20.192  0.00  0.00    +0.000 A 
ATOM     12  C   UNL     1       3.493   4.035  19.760  0.00  0.00    +0.000 A 
BRANCH  12  13
ATOM     13  C   UNL     1       4.718   4.454  19.088  0.00  0.00    +0.000 A 
ATOM     14  N   UNL     1       5.697   5.174  19.739  0.00  0.00    +0.000 NA
ATOM     15  N   UNL     1       6.705   5.305  18.888  0.00  0.00    +0.000 NA
ATOM     16  N   UNL     1       6.291   4.680  17.779  0.00  0.00    +0.000 N 
ATOM     17  N   UNL     1       5.049   4.181  17.814  0.00  0.00    +0.000 NA
ATOM     18  H   UNL     1       6.896   4.572  16.970  0.00  0.00    +0.000 HD
ENDBRANCH  12  13
ENDBRANCH   4   7
BRANCH   1  19
ATOM     19  C   UNL     1       1.838  10.409  17.998  0.00  0.00    +0.000 C 
BRANCH  19  29
ATOM     20  C   UNL     1       2.303  12.885  19.630  0.00  0.00    +0.000 C 
ATOM     21  C   UNL     1       1.263  12.038  19.799  0.00  0.00    +0.000 C 
ATOM     22  C   UNL     1       0.396  12.014  21.037  0.00  0.00    +0.000 C 
ATOM     23  C   UNL     1      -1.087  12.162  20.683  0.00  0.00    +0.000 C 
ATOM     24  C   UNL     1      -1.379  13.533  20.045  0.00  0.00    +0.000 C 
ATOM     25  C   UNL     1      -1.915  12.033  21.974  0.00  0.00    +0.000 C 
ATOM     26  C   UNL     1      -1.461  11.029  19.730  0.00  0.00    +0.000 C 
ATOM     27  C   UNL     1      -0.477  10.759  18.611  0.00  0.00    +0.000 C 
ATOM     28  O   UNL     1      -0.858  10.119  17.626  0.00  0.00    +0.000 OA
ATOM     29  N   UNL     1       0.852  11.161  18.785  0.00  0.00    +0.000 N 
BRANCH  20  30
ATOM     30  C   UNL     1       2.700  13.916  20.617  0.00  0.00    +0.000 C 
ATOM     31  O   UNL     1       3.422  13.737  21.580  0.00  0.00    +0.000 OA
BRANCH  30  32
ATOM     32  O   UNL     1       2.042  15.062  20.301  0.00  0.00    +0.000 OA
BRANCH  32  34
ATOM     33  C   UNL     1       0.821  16.324  18.686  0.00  0.00    +0.000 C 
ATOM     34  C   UNL     1       2.010  15.406  18.904  0.00  0.00    +0.000 C 
ENDBRANCH  32  34
ENDBRANCH  30  32
ENDBRANCH  20  30
ENDBRANCH  19  29
ENDBRANCH   1  19
TORSDOF 7
ENDMDL
MODEL 3
REMARK VINA RESULT:      -8.4      1.590      3.848
REMARK  Name = 
REMARK  10 active torsions:
REMARK  status: ('A' for Active; 'I' for Inactive)
REMARK    1  A    between atoms: C_1  and  C_2
REMARK    2  A    between atoms: C_2  and  O_3
REMARK    3  A    between atoms: O_3  and  C_4
REMARK    4  A    between atoms: C_4  and  C_6
REMARK    5  A    between atoms: C_9  and  C_10
REMARK    6  A    between atoms: C_9  and  C_11
REMARK    7  A    between atoms: N_15  and  C_16
REMARK    8  A    between atoms: C_16  and  C_17
REMARK    9  A    between atoms: C_20  and  C_21
REMARK   10  A    between atoms: C_26  and  C_27
REMARK                            x       y       z     vdW  Elec       q    Type
REMARK                         _______ _______ _______ _____ _____    ______ ____
ROOT
ATOM      1  C   UNL     1       1.928   9.069  18.516  0.00  0.00    +0.000 A 
ATOM      2  C   UNL     1       1.639   8.737  19.845  0.00  0.00    +0.000 A 
ATOM      3  C   UNL     1       1.819   7.420  20.314  0.00  0.00    +0.000 A 
ATOM      4  C   UNL     1       2.256   6.385  19.470  0.00  0.00    +0.000 A 
ATOM      5  C   UNL     1       2.518   6.745  18.137  0.00  0.00    +0.000 A 
ATOM      6  C   UNL     1       2.409   8.064  17.679  0.00  0.00    +0.000 A 
ENDROOT
BRANCH   4   7
ATOM      7  C   UNL     1       2.391   4.974  19.957  0.00  0.00    +0.000 A 
ATOM      8  C   UNL     1       1.303   4.397  20.660  0.00  0.00    +0.000 A 
ATOM      9  C   UNL     1       1.308   3.067  21.098  0.00  0.00    +0.000 A 
ATOM     10  C   UNL     1       2.400   2.255  20.837  0.00  0.00    +0.000 A 
ATOM     11  C   UNL     1       3.493   2.782  20.152  0.00  0.00    +0.000 A 
ATOM     12  C   UNL     1       3.512   4.131  19.726  0.00  0.00    +0.000 A 
BRANCH  12  13
ATOM     13  C   UNL     1       4.729   4.570  19.051  0.00  0.00    +0.000 A 
ATOM     14  N   UNL     1       4.976   4.275  17.727  0.00  0.00    +0.000 NA
ATOM     15  N   UNL     1       6.100   4.895  17.401  0.00  0.00    +0.000 NA
ATOM     16  N   UNL     1       6.480   5.515  18.524  0.00  0.00    +0.000 N 
ATOM     17  N   UNL     1       5.708   5.310  19.599  0.00  0.00    +0.000 NA
ATOM     18  H   UNL     1       7.293   6.124  18.549  0.00  0.00    +0.000 HD
ENDBRANCH  12  13
ENDBRANCH   4   7
BRANCH   1  19
ATOM     19  C   UNL     1       1.767  10.490  18.000  0.00  0.00    +0.000 C 
BRANCH  19  29
ATOM     20  C   UNL     1       2.266  12.926  19.681  0.00  0.00    +0.000 C 
ATOM     21  C   UNL     1       1.220  12.085  19.840  0.00  0.00    +0.000 C 
ATOM     22  C   UNL     1       0.362  12.042  21.084  0.00  0.00    +0.000 C 
ATOM     23  C   UNL     1      -1.122  12.212  20.744  0.00  0.00    +0.000 C 
ATOM     24  C   UNL     1      -1.406  13.599  20.138  0.00  0.00    +0.000 C 
ATOM     25  C   UNL     1      -1.942  12.062  22.038  0.00  0.00    +0.000 C 
ATOM     26  C   UNL     1      -1.514  11.103  19.770  0.00  0.00    +0.000 C 
ATOM     27  C   UNL     1      -0.540  10.847  18.638  0.00  0.00    +0.000 C 
ATOM     28  O   UNL     1      -0.934  10.232  17.642  0.00  0.00    +0.000 OA
ATOM     29  N   UNL     1       0.794  11.234  18.810  0.00  0.00    +0.000 N 
BRANCH  20  30
ATOM     30  C   UNL     1       2.681  13.931  20.687  0.00  0.00    +0.000 C 
ATOM     31  O   UNL     1       3.495  13.757  21.573  0.00  0.00    +0.000 OA
BRANCH  30  32
ATOM     32  O   UNL     1       1.921  15.042  20.494  0.00  0.00    +0.000 OA
BRANCH  32  34
ATOM     33  C   UNL     1       0.614  15.674  22.387  0.00  0.00    +0.000 C 
ATOM     34  C   UNL     1       1.873  15.971  21.592  0.00  0.00    +0.000 C 
ENDBRANCH  32  34
ENDBRANCH  30  32
ENDBRANCH  20  30
ENDBRANCH  19  29
ENDBRANCH   1  19
TORSDOF 7
ENDMDL
MODEL 4
REMARK VINA RESULT:      -8.3      1.988      3.179
REMARK  Name = 
REMARK  10 active torsions:
REMARK  status: ('A' for Active; 'I' for Inactive)
REMARK    1  A    between atoms: C_1  and  C_2
REMARK    2  A    between atoms: C_2  and  O_3
REMARK    3  A    between atoms: O_3  and  C_4
REMARK    4  A    between atoms: C_4  and  C_6
REMARK    5  A    between atoms: C_9  and  C_10
REMARK    6  A    between atoms: C_9  and  C_11
REMARK    7  A    between atoms: N_15  and  C_16
REMARK    8  A    between atoms: C_16  and  C_17
REMARK    9  A    between atoms: C_20  and  C_21
REMARK   10  A    between atoms: C_26  and  C_27
REMARK                            x       y       z     vdW  Elec       q    Type
REMARK                         _______ _______ _______ _____ _____    ______ ____
ROOT
ATOM      1  C   UNL     1       1.125   8.249  19.880  0.00  0.00    +0.000 A 
ATOM      2  C   UNL     1       1.460   8.646  18.580  0.00  0.00    +0.000 A 
ATOM      3  C   UNL     1       2.398   7.916  17.822  0.00  0.00    +0.000 A 
ATOM      4  C   UNL     1       3.059   6.791  18.344  0.00  0.00    +0.000 A 
ATOM      5  C   UNL     1       2.718   6.430  19.659  0.00  0.00    +0.000 A 
ATOM      6  C   UNL     1       1.738   7.107  20.394  0.00  0.00    +0.000 A 
ENDROOT
BRANCH   4   7
ATOM      7  C   UNL     1       4.099   6.052  17.557  0.00  0.00    +0.000 A 
ATOM      8  C   UNL     1       5.151   6.795  16.965  0.00  0.00    +0.000 A 
ATOM      9  C   UNL     1       6.202   6.189  16.266  0.00  0.00    +0.000 A 
ATOM     10  C   UNL     1       6.249   4.809  16.144  0.00  0.00    +0.000 A 
ATOM     11  C   UNL     1       5.235   4.040  16.708  0.00  0.00    +0.000 A 
ATOM     12  C   UNL     1       4.152   4.640  17.394  0.00  0.00    +0.000 A 
BRANCH  12  13
ATOM     13  C   UNL     1       3.136   3.727  17.906  0.00  0.00    +0.000 A 
ATOM     14  N   UNL     1       1.868   3.672  17.369  0.00  0.00    +0.000 NA
ATOM     15  N   UNL     1       1.234   2.686  17.986  0.00  0.00    +0.000 NA
ATOM     16  N   UNL     1       2.128   2.207  18.859  0.00  0.00    +0.000 N 
ATOM     17  N   UNL     1       3.306   2.842  18.903  0.00  0.00    +0.000 NA
ATOM     18  H   UNL     1       1.929   1.394  19.435  0.00  0.00    +0.000 HD
ENDBRANCH  12  13
ENDBRANCH   4   7
BRANCH   1  19
ATOM     19  C   UNL     1       0.095   9.008  20.701  0.00  0.00    +0.000 C 
BRANCH  19  29
ATOM     20  C   UNL     1      -1.909  10.371  18.931  0.00  0.00    +0.000 C 
ATOM     21  C   UNL     1      -0.670  10.842  19.191  0.00  0.00    +0.000 C 
ATOM     22  C   UNL     1       0.009  11.914  18.369  0.00  0.00    +0.000 C 
ATOM     23  C   UNL     1       0.475  13.080  19.247  0.00  0.00    +0.000 C 
ATOM     24  C   UNL     1      -0.717  13.803  19.901  0.00  0.00    +0.000 C 
ATOM     25  C   UNL     1       1.238  14.084  18.364  0.00  0.00    +0.000 C 
ATOM     26  C   UNL     1       1.421  12.523  20.308  0.00  0.00    +0.000 C 
ATOM     27  C   UNL     1       0.971  11.246  20.987  0.00  0.00    +0.000 C 
ATOM     28  O   UNL     1       1.486  10.931  22.063  0.00  0.00    +0.000 OA
ATOM     29  N   UNL     1       0.059  10.424  20.315  0.00  0.00    +0.000 N 
BRANCH  20  30
ATOM     30  C   UNL     1      -2.770  10.868  17.833  0.00  0.00    +0.000 C 
ATOM     31  O   UNL     1      -3.636  11.715  17.936  0.00  0.00    +0.000 OA
BRANCH  30  32
ATOM     32  O   UNL     1      -2.478  10.141  16.721  0.00  0.00    +0.000 OA
BRANCH  32  34
ATOM     33  C   UNL     1      -3.730  10.064  14.691  0.00  0.00    +0.000 C 
ATOM     34  C   UNL     1      -2.660  10.816  15.463  0.00  0.00    +0.000 C 
ENDBRANCH  32  34
ENDBRANCH  30  32
ENDBRANCH  20  30
ENDBRANCH  19  29
ENDBRANCH   1  19
TORSDOF 7
ENDMDL
MODEL 5
REMARK VINA RESULT:      -8.3      3.205      8.962
REMARK  Name = 
REMARK  10 active torsions:
REMARK  status: ('A' for Active; 'I' for Inactive)
REMARK    1  A    between atoms: C_1  and  C_2
REMARK    2  A    between atoms: C_2  and  O_3
REMARK    3  A    between atoms: O_3  and  C_4
REMARK    4  A    between atoms: C_4  and  C_6
REMARK    5  A    between atoms: C_9  and  C_10
REMARK    6  A    between atoms: C_9  and  C_11
REMARK    7  A    between atoms: N_15  and  C_16
REMARK    8  A    between atoms: C_16  and  C_17
REMARK    9  A    between atoms: C_20  and  C_21
REMARK   10  A    between atoms: C_26  and  C_27
REMARK                            x       y       z     vdW  Elec       q    Type
REMARK                         _______ _______ _______ _____ _____    ______ ____
ROOT
ATOM      1  C   UNL     1       2.313   7.810  18.229  0.00  0.00    +0.000 A 
ATOM      2  C   UNL     1       2.224   7.513  19.595  0.00  0.00    +0.000 A 
ATOM      3  C   UNL     1       1.395   8.273  20.445  0.00  0.00    +0.000 A 
ATOM      4  C   UNL     1       0.659   9.373  19.975  0.00  0.00    +0.000 A 
ATOM      5  C   UNL     1       0.786   9.660  18.604  0.00  0.00    +0.000 A 
ATOM      6  C   UNL     1       1.551   8.869  17.739  0.00  0.00    +0.000 A 
ENDROOT
BRANCH   4   7
ATOM      7  C   UNL     1      -0.175  10.215  20.893  0.00  0.00    +0.000 A 
ATOM      8  C   UNL     1      -0.073   9.993  22.290  0.00  0.00    +0.000 A 
ATOM      9  C   UNL     1      -0.762  10.770  23.229  0.00  0.00    +0.000 A 
ATOM     10  C   UNL     1      -1.572  11.812  22.806  0.00  0.00    +0.000 A 
ATOM     11  C   UNL     1      -1.704  12.064  21.443  0.00  0.00    +0.000 A 
ATOM     12  C   UNL     1      -1.034  11.271  20.481  0.00  0.00    +0.000 A 
BRANCH  12  13
ATOM     13  C   UNL     1      -1.284  11.614  19.085  0.00  0.00    +0.000 A 
ATOM     14  N   UNL     1      -2.226  10.951  18.328  0.00  0.00    +0.000 NA
ATOM     15  N   UNL     1      -2.272  11.562  17.154  0.00  0.00    +0.000 NA
ATOM     16  N   UNL     1      -1.365  12.542  17.250  0.00  0.00    +0.000 N 
ATOM     17  N   UNL     1      -0.676  12.595  18.397  0.00  0.00    +0.000 NA
ATOM     18  H   UNL     1      -1.228  13.218  16.504  0.00  0.00    +0.000 HD
ENDBRANCH  12  13
ENDBRANCH   4   7
BRANCH   1  19
ATOM     19  C   UNL     1       3.179   6.984  17.292  0.00  0.00    +0.000 C 
BRANCH  19  29
ATOM     20  C   UNL     1       5.622   6.038  18.756  0.00  0.00    +0.000 C 
ATOM     21  C   UNL     1       4.732   5.227  18.144  0.00  0.00    +0.000 C 
ATOM     22  C   UNL     1       5.013   3.780  17.804  0.00  0.00    +0.000 C 
ATOM     23  C   UNL     1       3.940   2.852  18.381  0.00  0.00    +0.000 C 
ATOM     24  C   UNL     1       3.938   2.884  19.921  0.00  0.00    +0.000 C 
ATOM     25  C   UNL     1       4.235   1.414  17.918  0.00  0.00    +0.000 C 
ATOM     26  C   UNL     1       2.587   3.292  17.826  0.00  0.00    +0.000 C 
ATOM     27  C   UNL     1       2.327   4.784  17.832  0.00  0.00    +0.000 C 
ATOM     28  O   UNL     1       1.164   5.185  17.732  0.00  0.00    +0.000 OA
ATOM     29  N   UNL     1       3.428   5.649  17.850  0.00  0.00    +0.000 N 
BRANCH  20  30
ATOM     30  C   UNL     1       6.968   5.606  19.200  0.00  0.00    +0.000 C 
ATOM     31  O   UNL     1       7.234   5.107  20.277  0.00  0.00    +0.000 OA
BRANCH  30  32
ATOM     32  O   UNL     1       7.853   5.953  18.229  0.00  0.00    +0.000 OA
BRANCH  32  34
ATOM     33  C   UNL     1       8.204   8.308  18.071  0.00  0.00    +0.000 C 
ATOM     34  C   UNL     1       7.508   7.111  17.447  0.00  0.00    +0.000 C 
ENDBRANCH  32  34
ENDBRANCH  30  32
ENDBRANCH  20  30
ENDBRANCH  19  29
ENDBRANCH   1  19
TORSDOF 7
ENDMDL
MODEL 6
REMARK VINA RESULT:      -8.2      2.118      3.368
REMARK  Name = 
REMARK  10 active torsions:
REMARK  status: ('A' for Active; 'I' for Inactive)
REMARK    1  A    between atoms: C_1  and  C_2
REMARK    2  A    between atoms: C_2  and  O_3
REMARK    3  A    between atoms: O_3  and  C_4
REMARK    4  A    between atoms: C_4  and  C_6
REMARK    5  A    between atoms: C_9  and  C_10
REMARK    6  A    between atoms: C_9  and  C_11
REMARK    7  A    between atoms: N_15  and  C_16
REMARK    8  A    between atoms: C_16  and  C_17
REMARK    9  A    between atoms: C_20  and  C_21
REMARK   10  A    between atoms: C_26  and  C_27
REMARK                            x       y       z     vdW  Elec       q    Type
REMARK                         _______ _______ _______ _____ _____    ______ ____
ROOT
ATOM      1  C   UNL     1       1.378   7.961  19.741  0.00  0.00    +0.000 A 
ATOM      2  C   UNL     1       1.856   8.459  18.524  0.00  0.00    +0.000 A 
ATOM      3  C   UNL     1       2.883   7.793  17.826  0.00  0.00    +0.000 A 
ATOM      4  C   UNL     1       3.493   6.633  18.332  0.00  0.00    +0.000 A 
ATOM      5  C   UNL     1       3.007   6.169  19.567  0.00  0.00    +0.000 A 
ATOM      6  C   UNL     1       1.940   6.785  20.234  0.00  0.00    +0.000 A 
ENDROOT
BRANCH   4   7
ATOM      7  C   UNL     1       4.626   5.960  17.617  0.00  0.00    +0.000 A 
ATOM      8  C   UNL     1       5.726   6.752  17.201  0.00  0.00    +0.000 A 
ATOM      9  C   UNL     1       6.857   6.206  16.583  0.00  0.00    +0.000 A 
ATOM     10  C   UNL     1       6.939   4.839  16.369  0.00  0.00    +0.000 A 
ATOM     11  C   UNL     1       5.880   4.024  16.760  0.00  0.00    +0.000 A 
ATOM     12  C   UNL     1       4.718   4.565  17.361  0.00  0.00    +0.000 A 
BRANCH  12  13
ATOM     13  C   UNL     1       3.666   3.610  17.690  0.00  0.00    +0.000 A 
ATOM     14  N   UNL     1       2.464   3.587  17.014  0.00  0.00    +0.000 NA
ATOM     15  N   UNL     1       1.781   2.553  17.484  0.00  0.00    +0.000 NA
ATOM     16  N   UNL     1       2.582   2.016  18.412  0.00  0.00    +0.000 N 
ATOM     17  N   UNL     1       3.739   2.653  18.631  0.00  0.00    +0.000 NA
ATOM     18  H   UNL     1       2.333   1.161  18.901  0.00  0.00    +0.000 HD
ENDBRANCH  12  13
ENDBRANCH   4   7
BRANCH   1  19
ATOM     19  C   UNL     1       0.251   8.651  20.494  0.00  0.00    +0.000 C 
BRANCH  19  29
ATOM     20  C   UNL     1      -1.527  10.063  18.532  0.00  0.00    +0.000 C 
ATOM     21  C   UNL     1      -0.356  10.551  18.995  0.00  0.00    +0.000 C 
ATOM     22  C   UNL     1       0.394  11.690  18.341  0.00  0.00    +0.000 C 
ATOM     23  C   UNL     1       0.687  12.813  19.341  0.00  0.00    +0.000 C 
ATOM     24  C   UNL     1      -0.612  13.462  19.855  0.00  0.00    +0.000 C 
ATOM     25  C   UNL     1       1.531  13.889  18.637  0.00  0.00    +0.000 C 
ATOM     26  C   UNL     1       1.492  12.219  20.496  0.00  0.00    +0.000 C 
ATOM     27  C   UNL     1       0.995  10.891  21.029  0.00  0.00    +0.000 C 
ATOM     28  O   UNL     1       1.362  10.525  22.149  0.00  0.00    +0.000 OA
ATOM     29  N   UNL     1       0.219  10.086  20.187  0.00  0.00    +0.000 N 
BRANCH  20  30
ATOM     30  C   UNL     1      -2.240  10.602  17.350  0.00  0.00    +0.000 C 
ATOM     31  O   UNL     1      -2.172  10.164  16.217  0.00  0.00    +0.000 OA
BRANCH  30  32
ATOM     32  O   UNL     1      -2.904  11.720  17.745  0.00  0.00    +0.000 OA
BRANCH  32  34
ATOM     33  C   UNL     1      -5.187  11.871  17.069  0.00  0.00    +0.000 C 
ATOM     34  C   UNL     1      -4.251  11.521  18.212  0.00  0.00    +0.000 C 
ENDBRANCH  32  34
ENDBRANCH  30  32
ENDBRANCH  20  30
ENDBRANCH  19  29
ENDBRANCH   1  19
TORSDOF 7
ENDMDL
MODEL 7
REMARK VINA RESULT:      -8.2      1.660      4.225
REMARK  Name = 
REMARK  10 active torsions:
REMARK  status: ('A' for Active; 'I' for Inactive)
REMARK    1  A    between atoms: C_1  and  C_2
REMARK    2  A    between atoms: C_2  and  O_3
REMARK    3  A    between atoms: O_3  and  C_4
REMARK    4  A    between atoms: C_4  and  C_6
REMARK    5  A    between atoms: C_9  and  C_10
REMARK    6  A    between atoms: C_9  and  C_11
REMARK    7  A    between atoms: N_15  and  C_16
REMARK    8  A    between atoms: C_16  and  C_17
REMARK    9  A    between atoms: C_20  and  C_21
REMARK   10  A    between atoms: C_26  and  C_27
REMARK                            x       y       z     vdW  Elec       q    Type
REMARK                         _______ _______ _______ _____ _____    ______ ____
ROOT
ATOM      1  C   UNL     1       1.945   9.189  18.580  0.00  0.00    +0.000 A 
ATOM      2  C   UNL     1       1.635   8.828  19.896  0.00  0.00    +0.000 A 
ATOM      3  C   UNL     1       1.808   7.501  20.338  0.00  0.00    +0.000 A 
ATOM      4  C   UNL     1       2.258   6.484  19.479  0.00  0.00    +0.000 A 
ATOM      5  C   UNL     1       2.540   6.873  18.158  0.00  0.00    +0.000 A 
ATOM      6  C   UNL     1       2.438   8.202  17.728  0.00  0.00    +0.000 A 
ENDROOT
BRANCH   4   7
ATOM      7  C   UNL     1       2.385   5.062  19.936  0.00  0.00    +0.000 A 
ATOM      8  C   UNL     1       1.303   4.484  20.646  0.00  0.00    +0.000 A 
ATOM      9  C   UNL     1       1.301   3.146  21.059  0.00  0.00    +0.000 A 
ATOM     10  C   UNL     1       2.380   2.328  20.764  0.00  0.00    +0.000 A 
ATOM     11  C   UNL     1       3.466   2.855  20.070  0.00  0.00    +0.000 A 
ATOM     12  C   UNL     1       3.493   4.212  19.670  0.00  0.00    +0.000 A 
BRANCH  12  13
ATOM     13  C   UNL     1       4.704   4.651  18.984  0.00  0.00    +0.000 A 
ATOM     14  N   UNL     1       5.687   5.371  19.628  0.00  0.00    +0.000 NA
ATOM     15  N   UNL     1       6.679   5.523  18.762  0.00  0.00    +0.000 NA
ATOM     16  N   UNL     1       6.252   4.908  17.653  0.00  0.00    +0.000 N 
ATOM     17  N   UNL     1       5.015   4.397  17.702  0.00  0.00    +0.000 NA
ATOM     18  H   UNL     1       6.845   4.815  16.832  0.00  0.00    +0.000 HD
ENDBRANCH  12  13
ENDBRANCH   4   7
BRANCH   1  19
ATOM     19  C   UNL     1       1.791  10.621  18.093  0.00  0.00    +0.000 C 
BRANCH  19  29
ATOM     20  C   UNL     1       2.179  13.079  19.771  0.00  0.00    +0.000 C 
ATOM     21  C   UNL     1       1.158  12.205  19.914  0.00  0.00    +0.000 C 
ATOM     22  C   UNL     1       0.277  12.139  21.142  0.00  0.00    +0.000 C 
ATOM     23  C   UNL     1      -1.205  12.259  20.773  0.00  0.00    +0.000 C 
ATOM     24  C   UNL     1      -1.522  13.633  20.155  0.00  0.00    +0.000 C 
ATOM     25  C   UNL     1      -2.043  12.088  22.052  0.00  0.00    +0.000 C 
ATOM     26  C   UNL     1      -1.541  11.133  19.797  0.00  0.00    +0.000 C 
ATOM     27  C   UNL     1      -0.538  10.905  18.685  0.00  0.00    +0.000 C 
ATOM     28  O   UNL     1      -0.893  10.273  17.686  0.00  0.00    +0.000 OA
ATOM     29  N   UNL     1       0.779  11.336  18.881  0.00  0.00    +0.000 N 
BRANCH  20  30
ATOM     30  C   UNL     1       2.541  14.102  20.779  0.00  0.00    +0.000 C 
ATOM     31  O   UNL     1       2.107  15.238  20.828  0.00  0.00    +0.000 OA
BRANCH  30  32
ATOM     32  O   UNL     1       3.506  13.571  21.575  0.00  0.00    +0.000 OA
BRANCH  32  34
ATOM     33  C   UNL     1       4.777  14.875  23.117  0.00  0.00    +0.000 C 
ATOM     34  C   UNL     1       4.716  14.341  21.697  0.00  0.00    +0.000 C 
ENDBRANCH  32  34
ENDBRANCH  30  32
ENDBRANCH  20  30
ENDBRANCH  19  29
ENDBRANCH   1  19
TORSDOF 7
ENDMDL
MODEL 8
REMARK VINA RESULT:      -8.2      3.439      8.451
REMARK  Name = 
REMARK  10 active torsions:
REMARK  status: ('A' for Active; 'I' for Inactive)
REMARK    1  A    between atoms: C_1  and  C_2
REMARK    2  A    between atoms: C_2  and  O_3
REMARK    3  A    between atoms: O_3  and  C_4
REMARK    4  A    between atoms: C_4  and  C_6
REMARK    5  A    between atoms: C_9  and  C_10
REMARK    6  A    between atoms: C_9  and  C_11
REMARK    7  A    between atoms: N_15  and  C_16
REMARK    8  A    between atoms: C_16  and  C_17
REMARK    9  A    between atoms: C_20  and  C_21
REMARK   10  A    between atoms: C_26  and  C_27
REMARK                            x       y       z     vdW  Elec       q    Type
REMARK                         _______ _______ _______ _____ _____    ______ ____
ROOT
ATOM      1  C   UNL     1       2.468   7.148  18.012  0.00  0.00    +0.000 A 
ATOM      2  C   UNL     1       1.882   8.358  17.624  0.00  0.00    +0.000 A 
ATOM      3  C   UNL     1       1.273   9.201  18.576  0.00  0.00    +0.000 A 
ATOM      4  C   UNL     1       1.193   8.851  19.934  0.00  0.00    +0.000 A 
ATOM      5  C   UNL     1       1.772   7.620  20.289  0.00  0.00    +0.000 A 
ATOM      6  C   UNL     1       2.440   6.809  19.364  0.00  0.00    +0.000 A 
ENDROOT
BRANCH   4   7
ATOM      7  C   UNL     1       0.493   9.722  20.934  0.00  0.00    +0.000 A 
ATOM      8  C   UNL     1      -0.058   9.113  22.089  0.00  0.00    +0.000 A 
ATOM      9  C   UNL     1      -0.674   9.848  23.109  0.00  0.00    +0.000 A 
ATOM     10  C   UNL     1      -0.752  11.229  23.018  0.00  0.00    +0.000 A 
ATOM     11  C   UNL     1      -0.226  11.869  21.898  0.00  0.00    +0.000 A 
ATOM     12  C   UNL     1       0.376  11.136  20.848  0.00  0.00    +0.000 A 
BRANCH  12  13
ATOM     13  C   UNL     1       0.854  11.921  19.714  0.00  0.00    +0.000 A 
ATOM     14  N   UNL     1       2.144  12.405  19.655  0.00  0.00    +0.000 NA
ATOM     15  N   UNL     1       2.282  12.980  18.469  0.00  0.00    +0.000 NA
ATOM     16  N   UNL     1       1.088  12.830  17.883  0.00  0.00    +0.000 N 
ATOM     17  N   UNL     1       0.141  12.234  18.619  0.00  0.00    +0.000 NA
ATOM     18  H   UNL     1       0.922  13.129  16.926  0.00  0.00    +0.000 HD
ENDBRANCH  12  13
ENDBRANCH   4   7
BRANCH   1  19
ATOM     19  C   UNL     1       3.155   6.240  17.004  0.00  0.00    +0.000 C 
BRANCH  19  29
ATOM     20  C   UNL     1       3.969   3.818  18.579  0.00  0.00    +0.000 C 
ATOM     21  C   UNL     1       4.687   4.960  18.502  0.00  0.00    +0.000 C 
ATOM     22  C   UNL     1       5.802   5.315  19.460  0.00  0.00    +0.000 C 
ATOM     23  C   UNL     1       7.100   5.636  18.711  0.00  0.00    +0.000 C 
ATOM     24  C   UNL     1       7.631   4.406  17.952  0.00  0.00    +0.000 C 
ATOM     25  C   UNL     1       8.159   6.080  19.735  0.00  0.00    +0.000 C 
ATOM     26  C   UNL     1       6.818   6.788  17.749  0.00  0.00    +0.000 C 
ATOM     27  C   UNL     1       5.534   6.680  16.951  0.00  0.00    +0.000 C 
ATOM     28  O   UNL     1       5.407   7.365  15.933  0.00  0.00    +0.000 OA
ATOM     29  N   UNL     1       4.504   5.879  17.458  0.00  0.00    +0.000 N 
BRANCH  20  30
ATOM     30  C   UNL     1       4.207   2.757  19.585  0.00  0.00    +0.000 C 
ATOM     31  O   UNL     1       5.271   2.210  19.805  0.00  0.00    +0.000 OA
BRANCH  30  32
ATOM     32  O   UNL     1       3.008   2.448  20.147  0.00  0.00    +0.000 OA
BRANCH  32  34
ATOM     33  C   UNL     1       1.025   3.697  20.591  0.00  0.00    +0.000 C 
ATOM     34  C   UNL     1       2.453   3.437  21.033  0.00  0.00    +0.000 C 
ENDBRANCH  32  34
ENDBRANCH  30  32
ENDBRANCH  20  30
ENDBRANCH  19  29
ENDBRANCH   1  19
TORSDOF 7
ENDMDL
MODEL 9
REMARK VINA RESULT:      -8.1      3.417      8.522
REMARK  Name = 
REMARK  10 active torsions:
REMARK  status: ('A' for Active; 'I' for Inactive)
REMARK    1  A    between atoms: C_1  and  C_2
REMARK    2  A    between atoms: C_2  and  O_3
REMARK    3  A    between atoms: O_3  and  C_4
REMARK    4  A    between atoms: C_4  and  C_6
REMARK    5  A    between atoms: C_9  and  C_10
REMARK    6  A    between atoms: C_9  and  C_11
REMARK    7  A    between atoms: N_15  and  C_16
REMARK    8  A    between atoms: C_16  and  C_17
REMARK    9  A    between atoms: C_20  and  C_21
REMARK   10  A    between atoms: C_26  and  C_27
REMARK                            x       y       z     vdW  Elec       q    Type
REMARK                         _______ _______ _______ _____ _____    ______ ____
ROOT
ATOM      1  C   UNL     1       2.826   7.314  17.930  0.00  0.00    +0.000 A 
ATOM      2  C   UNL     1       2.549   6.712  19.163  0.00  0.00    +0.000 A 
ATOM      3  C   UNL     1       1.770   7.378  20.131  0.00  0.00    +0.000 A 
ATOM      4  C   UNL     1       1.274   8.675  19.920  0.00  0.00    +0.000 A 
ATOM      5  C   UNL     1       1.587   9.262  18.682  0.00  0.00    +0.000 A 
ATOM      6  C   UNL     1       2.301   8.582  17.687  0.00  0.00    +0.000 A 
ENDROOT
BRANCH   4   7
ATOM      7  C   UNL     1       0.496   9.404  20.975  0.00  0.00    +0.000 A 
ATOM      8  C   UNL     1       0.671   9.019  22.328  0.00  0.00    +0.000 A 
ATOM      9  C   UNL     1       0.039   9.679  23.388  0.00  0.00    +0.000 A 
ATOM     10  C   UNL     1      -0.786  10.764  23.136  0.00  0.00    +0.000 A 
ATOM     11  C   UNL     1      -0.989  11.175  21.820  0.00  0.00    +0.000 A 
ATOM     12  C   UNL     1      -0.377  10.500  20.737  0.00  0.00    +0.000 A 
BRANCH  12  13
ATOM     13  C   UNL     1      -0.699  11.006  19.407  0.00  0.00    +0.000 A 
ATOM     14  N   UNL     1      -1.652  10.408  18.611  0.00  0.00    +0.000 NA
ATOM     15  N   UNL     1      -1.770  11.160  17.526  0.00  0.00    +0.000 NA
ATOM     16  N   UNL     1      -0.890  12.152  17.708  0.00  0.00    +0.000 N 
ATOM     17  N   UNL     1      -0.152  12.086  18.824  0.00  0.00    +0.000 NA
ATOM     18  H   UNL     1      -0.807  12.920  17.048  0.00  0.00    +0.000 HD
ENDBRANCH  12  13
ENDBRANCH   4   7
BRANCH   1  19
ATOM     19  C   UNL     1       3.640   6.600  16.863  0.00  0.00    +0.000 C 
BRANCH  19  29
ATOM     20  C   UNL     1       4.116   3.997  18.279  0.00  0.00    +0.000 C 
ATOM     21  C   UNL     1       4.912   5.084  18.383  0.00  0.00    +0.000 C 
ATOM     22  C   UNL     1       5.938   5.270  19.479  0.00  0.00    +0.000 C 
ATOM     23  C   UNL     1       7.327   5.555  18.900  0.00  0.00    +0.000 C 
ATOM     24  C   UNL     1       7.855   4.357  18.088  0.00  0.00    +0.000 C 
ATOM     25  C   UNL     1       8.296   5.827  20.064  0.00  0.00    +0.000 C 
ATOM     26  C   UNL     1       7.228   6.803  18.026  0.00  0.00    +0.000 C 
ATOM     27  C   UNL     1       6.035   6.861  17.095  0.00  0.00    +0.000 C 
ATOM     28  O   UNL     1       6.065   7.639  16.137  0.00  0.00    +0.000 OA
ATOM     29  N   UNL     1       4.905   6.100  17.417  0.00  0.00    +0.000 N 
BRANCH  20  30
ATOM     30  C   UNL     1       4.172   2.839  19.201  0.00  0.00    +0.000 C 
ATOM     31  O   UNL     1       5.182   2.356  19.676  0.00  0.00    +0.000 OA
BRANCH  30  32
ATOM     32  O   UNL     1       2.906   2.364  19.341  0.00  0.00    +0.000 OA
BRANCH  32  34
ATOM     33  C   UNL     1       1.955   2.828  21.480  0.00  0.00    +0.000 C 
ATOM     34  C   UNL     1       1.978   3.233  20.016  0.00  0.00    +0.000 C 
ENDBRANCH  32  34
ENDBRANCH  30  32
ENDBRANCH  20  30
ENDBRANCH  19  29
ENDBRANCH   1  19
TORSDOF 7
ENDMDL
