MODEL 1
REMARK VINA RESULT:      -8.2      0.000      0.000
REMARK  Name = 
REMARK  3 active torsions:
REMARK  status: ('A' for Active; 'I' for Inactive)
REMARK    1  A    between atoms: C_1  and  N_2
REMARK    2  A    between atoms: N_5  and  C_6
REMARK    3  A    between atoms: C_6  and  C_7
REMARK                            x       y       z     vdW  Elec       q    Type
REMARK                         _______ _______ _______ _____ _____    ______ ____
ROOT
ATOM      1  C   UNL     1       2.276   8.008  18.531  0.00  0.00    +0.000 A 
ATOM      2  C   UNL     1       1.491   8.882  17.766  0.00  0.00    +0.000 A 
ATOM      3  C   UNL     1       0.560   9.759  18.386  0.00  0.00    +0.000 A 
ATOM      4  C   UNL     1       0.395   9.793  19.787  0.00  0.00    +0.000 A 
ATOM      5  C   UNL     1      -0.513  10.694  20.576  0.00  0.00    +0.000 A 
ATOM      6  C   UNL     1      -0.500  10.600  21.920  0.00  0.00    +0.000 A 
ATOM      7  C   UNL     1       0.340   9.610  22.643  0.00  0.00    +0.000 A 
ATOM      8  O   UNL     1       0.334   9.518  23.870  0.00  0.00    +0.000 OA
ATOM      9  N   UNL     1       1.128   8.813  21.889  0.00  0.00    +0.000 N 
ATOM     10  C   UNL     1       1.195   8.891  20.507  0.00  0.00    +0.000 A 
ATOM     11  C   UNL     1       2.107   8.026  19.908  0.00  0.00    +0.000 A 
ATOM     12  C   UNL     1      -1.278  11.482  22.832  0.00  0.00    +0.000 C 
ATOM     13  C   UNL     1      -2.249  12.448  22.179  0.00  0.00    +0.000 C 
ATOM     14  C   UNL     1      -2.220  12.559  20.656  0.00  0.00    +0.000 C 
ATOM     15  N   UNL     1      -1.338  11.622  19.968  0.00  0.00    +0.000 N 
ATOM     16  H   UNL     1       1.692   8.150  22.399  0.00  0.00    +0.000 HD
ATOM     17  H   UNL     1      -1.218  11.777  18.974  0.00  0.00    +0.000 HD
ENDROOT
BRANCH   1  18
ATOM     18  C   UNL     1       3.323   7.063  17.975  0.00  0.00    +0.000 C 
BRANCH  18  23
ATOM     19  C   UNL     1       7.095   4.512  17.128  0.00  0.00    +0.000 C 
ATOM     20  N   UNL     1       5.795   4.406  17.782  0.00  0.00    +0.000 NA
ATOM     21  C   UNL     1       4.703   4.579  16.802  0.00  0.00    +0.000 C 
ATOM     22  C   UNL     1       3.307   4.662  17.458  0.00  0.00    +0.000 C 
ATOM     23  N   UNL     1       3.207   5.690  18.518  0.00  0.00    +0.000 NA
ATOM     24  C   UNL     1       4.270   5.401  19.506  0.00  0.00    +0.000 C 
ATOM     25  C   UNL     1       5.689   5.366  18.896  0.00  0.00    +0.000 C 
ENDBRANCH  18  23
ENDBRANCH   1  18
TORSDOF 2
ENDMDL
MODEL 2
REMARK VINA RESULT:      -8.1      1.401      1.710
REMARK  Name = 
REMARK  3 active torsions:
REMARK  status: ('A' for Active; 'I' for Inactive)
REMARK    1  A    between atoms: C_1  and  N_2
REMARK    2  A    between atoms: N_5  and  C_6
REMARK    3  A    between atoms: C_6  and  C_7
REMARK                            x       y       z     vdW  Elec       q    Type
REMARK                         _______ _______ _______ _____ _____    ______ ____
ROOT
ATOM      1  C   UNL     1       2.453   7.348  18.736  0.00  0.00    +0.000 A 
ATOM      2  C   UNL     1       1.943   8.299  17.841  0.00  0.00    +0.000 A 
ATOM      3  C   UNL     1       1.156   9.388  18.304  0.00  0.00    +0.000 A 
ATOM      4  C   UNL     1       0.865   9.562  19.674  0.00  0.00    +0.000 A 
ATOM      5  C   UNL     1       0.088  10.684  20.306  0.00  0.00    +0.000 A 
ATOM      6  C   UNL     1      -0.049  10.691  21.646  0.00  0.00    +0.000 A 
ATOM      7  C   UNL     1       0.494   9.612  22.511  0.00  0.00    +0.000 A 
ATOM      8  O   UNL     1       0.348   9.617  23.734  0.00  0.00    +0.000 OA
ATOM      9  N   UNL     1       1.171   8.619  21.896  0.00  0.00    +0.000 N 
ATOM     10  C   UNL     1       1.387   8.576  20.527  0.00  0.00    +0.000 A 
ATOM     11  C   UNL     1       2.156   7.504  20.082  0.00  0.00    +0.000 A 
ATOM     12  C   UNL     1      -0.715  11.777  22.416  0.00  0.00    +0.000 C 
ATOM     13  C   UNL     1      -1.398  12.864  21.606  0.00  0.00    +0.000 C 
ATOM     14  C   UNL     1      -1.198  12.850  20.092  0.00  0.00    +0.000 C 
ATOM     15  N   UNL     1      -0.464  11.708  19.560  0.00  0.00    +0.000 N 
ATOM     16  H   UNL     1       1.534   7.898  22.501  0.00  0.00    +0.000 HD
ATOM     17  H   UNL     1      -0.217  11.759  18.578  0.00  0.00    +0.000 HD
ENDROOT
BRANCH   1  18
ATOM     18  C   UNL     1       3.333   6.175  18.353  0.00  0.00    +0.000 C 
BRANCH  18  23
ATOM     19  C   UNL     1       4.486   2.105  20.239  0.00  0.00    +0.000 C 
ATOM     20  N   UNL     1       3.583   2.658  19.236  0.00  0.00    +0.000 NA
ATOM     21  C   UNL     1       4.346   3.280  18.135  0.00  0.00    +0.000 C 
ATOM     22  C   UNL     1       3.452   4.045  17.133  0.00  0.00    +0.000 C 
ATOM     23  N   UNL     1       2.568   5.047  17.770  0.00  0.00    +0.000 NA
ATOM     24  C   UNL     1       1.774   4.338  18.796  0.00  0.00    +0.000 C 
ATOM     25  C   UNL     1       2.635   3.606  19.849  0.00  0.00    +0.000 C 
ENDBRANCH  18  23
ENDBRANCH   1  18
TORSDOF 2
ENDMDL
MODEL 3
REMARK VINA RESULT:      -8.0      1.595      2.218
REMARK  Name = 
REMARK  3 active torsions:
REMARK  status: ('A' for Active; 'I' for Inactive)
REMARK    1  A    between atoms: C_1  and  N_2
REMARK    2  A    between atoms: N_5  and  C_6
REMARK    3  A    between atoms: C_6  and  C_7
REMARK                            x       y       z     vdW  Elec       q    Type
REMARK                         _______ _______ _______ _____ _____    ______ ____
ROOT
ATOM      1  C   UNL     1       2.245   7.286  19.400  0.00  0.00    +0.000 A 
ATOM      2  C   UNL     1       2.174   8.013  18.204  0.00  0.00    +0.000 A 
ATOM      3  C   UNL     1       1.555   9.292  18.163  0.00  0.00    +0.000 A 
ATOM      4  C   UNL     1       0.998   9.881  19.318  0.00  0.00    +0.000 A 
ATOM      5  C   UNL     1       0.357  11.237  19.430  0.00  0.00    +0.000 A 
ATOM      6  C   UNL     1      -0.084  11.639  20.638  0.00  0.00    +0.000 A 
ATOM      7  C   UNL     1      -0.002  10.777  21.845  0.00  0.00    +0.000 A 
ATOM      8  O   UNL     1      -0.423  11.144  22.942  0.00  0.00    +0.000 OA
ATOM      9  N   UNL     1       0.569   9.563  21.691  0.00  0.00    +0.000 N 
ATOM     10  C   UNL     1       1.083   9.108  20.487  0.00  0.00    +0.000 A 
ATOM     11  C   UNL     1       1.685   7.853  20.535  0.00  0.00    +0.000 A 
ATOM     12  C   UNL     1      -0.660  12.982  20.918  0.00  0.00    +0.000 C 
ATOM     13  C   UNL     1      -0.885  13.887  19.721  0.00  0.00    +0.000 C 
ATOM     14  C   UNL     1      -0.347  13.422  18.370  0.00  0.00    +0.000 C 
ATOM     15  N   UNL     1       0.227  12.081  18.343  0.00  0.00    +0.000 N 
ATOM     16  H   UNL     1       0.617   8.994  22.523  0.00  0.00    +0.000 HD
ATOM     17  H   UNL     1       0.700  11.820  17.486  0.00  0.00    +0.000 HD
ENDROOT
BRANCH   1  18
ATOM     18  C   UNL     1       2.916   5.935  19.561  0.00  0.00    +0.000 C 
BRANCH  18  23
ATOM     19  C   UNL     1       3.515   1.496  18.383  0.00  0.00    +0.000 C 
ATOM     20  N   UNL     1       4.095   2.810  18.129  0.00  0.00    +0.000 NA
ATOM     21  C   UNL     1       4.633   3.392  19.375  0.00  0.00    +0.000 C 
ATOM     22  C   UNL     1       5.095   4.858  19.210  0.00  0.00    +0.000 C 
ATOM     23  N   UNL     1       4.061   5.747  18.639  0.00  0.00    +0.000 NA
ATOM     24  C   UNL     1       3.635   5.150  17.354  0.00  0.00    +0.000 C 
ATOM     25  C   UNL     1       3.112   3.703  17.487  0.00  0.00    +0.000 C 
ENDBRANCH  18  23
ENDBRANCH   1  18
TORSDOF 2
ENDMDL
MODEL 4
REMARK VINA RESULT:      -7.9      1.330      1.629
REMARK  Name = 
REMARK  3 active torsions:
REMARK  status: ('A' for Active; 'I' for Inactive)
REMARK    1  A    between atoms: C_1  and  N_2
REMARK    2  A    between atoms: N_5  and  C_6
REMARK    3  A    between atoms: C_6  and  C_7
REMARK                            x       y       z     vdW  Elec       q    Type
REMARK                         _______ _______ _______ _____ _____    ______ ____
ROOT
ATOM      1  C   UNL     1       2.548   7.049  18.530  0.00  0.00    +0.000 A 
ATOM      2  C   UNL     1       2.108   8.013  17.612  0.00  0.00    +0.000 A 
ATOM      3  C   UNL     1       1.396   9.163  18.047  0.00  0.00    +0.000 A 
ATOM      4  C   UNL     1       1.111   9.385  19.412  0.00  0.00    +0.000 A 
ATOM      5  C   UNL     1       0.410  10.570  20.016  0.00  0.00    +0.000 A 
ATOM      6  C   UNL     1       0.267  10.616  21.354  0.00  0.00    +0.000 A 
ATOM      7  C   UNL     1       0.731   9.521  22.245  0.00  0.00    +0.000 A 
ATOM      8  O   UNL     1       0.581   9.562  23.466  0.00  0.00    +0.000 OA
ATOM      9  N   UNL     1       1.342   8.471  21.654  0.00  0.00    +0.000 N 
ATOM     10  C   UNL     1       1.561   8.384  20.289  0.00  0.00    +0.000 A 
ATOM     11  C   UNL     1       2.257   7.253  19.870  0.00  0.00    +0.000 A 
ATOM     12  C   UNL     1      -0.326  11.761  22.097  0.00  0.00    +0.000 C 
ATOM     13  C   UNL     1      -0.929  12.874  21.261  0.00  0.00    +0.000 C 
ATOM     14  C   UNL     1      -0.724  12.814  19.749  0.00  0.00    +0.000 C 
ATOM     15  N   UNL     1      -0.067  11.613  19.245  0.00  0.00    +0.000 N 
ATOM     16  H   UNL     1       1.652   7.740  22.277  0.00  0.00    +0.000 HD
ATOM     17  H   UNL     1       0.187  11.627  18.264  0.00  0.00    +0.000 HD
ENDROOT
BRANCH   1  18
ATOM     18  C   UNL     1       3.347   5.810  18.176  0.00  0.00    +0.000 C 
BRANCH  18  23
ATOM     19  C   UNL     1       5.673   4.325  14.457  0.00  0.00    +0.000 C 
ATOM     20  N   UNL     1       5.915   4.952  15.751  0.00  0.00    +0.000 NA
ATOM     21  C   UNL     1       5.497   4.058  16.849  0.00  0.00    +0.000 C 
ATOM     22  C   UNL     1       5.555   4.734  18.238  0.00  0.00    +0.000 C 
ATOM     23  N   UNL     1       4.810   6.010  18.310  0.00  0.00    +0.000 NA
ATOM     24  C   UNL     1       5.341   6.885  17.242  0.00  0.00    +0.000 C 
ATOM     25  C   UNL     1       5.248   6.265  15.830  0.00  0.00    +0.000 C 
ENDBRANCH  18  23
ENDBRANCH   1  18
TORSDOF 2
ENDMDL
MODEL 5
REMARK VINA RESULT:      -7.9      1.918      2.728
REMARK  Name = 
REMARK  3 active torsions:
REMARK  status: ('A' for Active; 'I' for Inactive)
REMARK    1  A    between atoms: C_1  and  N_2
REMARK    2  A    between atoms: N_5  and  C_6
REMARK    3  A    between atoms: C_6  and  C_7
REMARK                            x       y       z     vdW  Elec       q    Type
REMARK                         _______ _______ _______ _____ _____    ______ ____
ROOT
ATOM      1  C   UNL     1       2.664   7.120  19.038  0.00  0.00    +0.000 A 
ATOM      2  C   UNL     1       2.526   7.912  17.890  0.00  0.00    +0.000 A 
ATOM      3  C   UNL     1       1.740   9.096  17.911  0.00  0.00    +0.000 A 
ATOM      4  C   UNL     1       1.080   9.525  19.082  0.00  0.00    +0.000 A 
ATOM      5  C   UNL     1       0.258  10.772  19.261  0.00  0.00    +0.000 A 
ATOM      6  C   UNL     1      -0.263  11.027  20.476  0.00  0.00    +0.000 A 
ATOM      7  C   UNL     1      -0.096  10.102  21.627  0.00  0.00    +0.000 A 
ATOM      8  O   UNL     1      -0.591  10.333  22.731  0.00  0.00    +0.000 OA
ATOM      9  N   UNL     1       0.638   8.989  21.414  0.00  0.00    +0.000 N 
ATOM     10  C   UNL     1       1.239   8.691  20.200  0.00  0.00    +0.000 A 
ATOM     11  C   UNL     1       2.004   7.528  20.187  0.00  0.00    +0.000 A 
ATOM     12  C   UNL     1      -1.023  12.259  20.823  0.00  0.00    +0.000 C 
ATOM     13  C   UNL     1      -1.339  13.207  19.681  0.00  0.00    +0.000 C 
ATOM     14  C   UNL     1      -0.708  12.912  18.322  0.00  0.00    +0.000 C 
ATOM     15  N   UNL     1       0.042  11.665  18.227  0.00  0.00    +0.000 N 
ATOM     16  H   UNL     1       0.742   8.376  22.208  0.00  0.00    +0.000 HD
ATOM     17  H   UNL     1       0.568  11.528  17.372  0.00  0.00    +0.000 HD
ENDROOT
BRANCH   1  18
ATOM     18  C   UNL     1       3.508   5.863  19.133  0.00  0.00    +0.000 C 
BRANCH  18  23
ATOM     19  C   UNL     1       1.729   2.376  21.608  0.00  0.00    +0.000 C 
ATOM     20  N   UNL     1       1.954   2.763  20.219  0.00  0.00    +0.000 NA
ATOM     21  C   UNL     1       3.398   2.900  19.945  0.00  0.00    +0.000 C 
ATOM     22  C   UNL     1       3.697   3.486  18.546  0.00  0.00    +0.000 C 
ATOM     23  N   UNL     1       3.004   4.764  18.276  0.00  0.00    +0.000 NA
ATOM     24  C   UNL     1       1.558   4.529  18.484  0.00  0.00    +0.000 C 
ATOM     25  C   UNL     1       1.214   3.995  19.893  0.00  0.00    +0.000 C 
ENDBRANCH  18  23
ENDBRANCH   1  18
TORSDOF 2
ENDMDL
MODEL 6
REMARK VINA RESULT:      -7.9      1.830      2.187
REMARK  Name = 
REMARK  3 active torsions:
REMARK  status: ('A' for Active; 'I' for Inactive)
REMARK    1  A    between atoms: C_1  and  N_2
REMARK    2  A    between atoms: N_5  and  C_6
REMARK    3  A    between atoms: C_6  and  C_7
REMARK                            x       y       z     vdW  Elec       q    Type
REMARK                         _______ _______ _______ _____ _____    ______ ____
ROOT
ATOM      1  C   UNL     1       2.358   7.363  18.955  0.00  0.00    +0.000 A 
ATOM      2  C   UNL     1       2.201   8.175  17.823  0.00  0.00    +0.000 A 
ATOM      3  C   UNL     1       1.544   9.432  17.912  0.00  0.00    +0.000 A 
ATOM      4  C   UNL     1       1.034   9.916  19.135  0.00  0.00    +0.000 A 
ATOM      5  C   UNL     1       0.361  11.237  19.384  0.00  0.00    +0.000 A 
ATOM      6  C   UNL     1      -0.025  11.533  20.640  0.00  0.00    +0.000 A 
ATOM      7  C   UNL     1       0.147  10.587  21.772  0.00  0.00    +0.000 A 
ATOM      8  O   UNL     1      -0.224  10.858  22.915  0.00  0.00    +0.000 OA
ATOM      9  N   UNL     1       0.744   9.407  21.497  0.00  0.00    +0.000 N 
ATOM     10  C   UNL     1       1.205   9.061  20.236  0.00  0.00    +0.000 A 
ATOM     11  C   UNL     1       1.844   7.826  20.157  0.00  0.00    +0.000 A 
ATOM     12  C   UNL     1      -0.623  12.833  21.051  0.00  0.00    +0.000 C 
ATOM     13  C   UNL     1      -0.939  13.817  19.940  0.00  0.00    +0.000 C 
ATOM     14  C   UNL     1      -0.462  13.471  18.531  0.00  0.00    +0.000 C 
ATOM     15  N   UNL     1       0.148  12.155  18.373  0.00  0.00    +0.000 N 
ATOM     16  H   UNL     1       0.854   8.780  22.279  0.00  0.00    +0.000 HD
ATOM     17  H   UNL     1       0.581  11.974  17.475  0.00  0.00    +0.000 HD
ENDROOT
BRANCH   1  18
ATOM     18  C   UNL     1       3.075   6.027  18.978  0.00  0.00    +0.000 C 
BRANCH  18  23
ATOM     19  C   UNL     1       4.600   1.859  20.300  0.00  0.00    +0.000 C 
ATOM     20  N   UNL     1       3.542   2.461  19.495  0.00  0.00    +0.000 NA
ATOM     21  C   UNL     1       4.114   3.202  18.354  0.00  0.00    +0.000 C 
ATOM     22  C   UNL     1       3.059   4.015  17.569  0.00  0.00    +0.000 C 
ATOM     23  N   UNL     1       2.259   4.925  18.417  0.00  0.00    +0.000 NA
ATOM     24  C   UNL     1       1.646   4.102  19.482  0.00  0.00    +0.000 C 
ATOM     25  C   UNL     1       2.675   3.317  20.326  0.00  0.00    +0.000 C 
ENDBRANCH  18  23
ENDBRANCH   1  18
TORSDOF 2
ENDMDL
MODEL 7
REMARK VINA RESULT:      -7.9      2.128      2.516
REMARK  Name = 
REMARK  3 active torsions:
REMARK  status: ('A' for Active; 'I' for Inactive)
REMARK    1  A    between atoms: C_1  and  N_2
REMARK    2  A    between atoms: N_5  and  C_6
REMARK    3  A    between atoms: C_6  and  C_7
REMARK                            x       y       z     vdW  Elec       q    Type
REMARK                         _______ _______ _______ _____ _____    ______ ____
ROOT
ATOM      1  C   UNL     1       2.208   7.043  19.594  0.00  0.00    +0.000 A 
ATOM      2  C   UNL     1       2.194   7.746  18.382  0.00  0.00    +0.000 A 
ATOM      3  C   UNL     1       1.621   9.044  18.299  0.00  0.00    +0.000 A 
ATOM      4  C   UNL     1       1.056   9.678  19.426  0.00  0.00    +0.000 A 
ATOM      5  C   UNL     1       0.460  11.057  19.493  0.00  0.00    +0.000 A 
ATOM      6  C   UNL     1       0.003  11.499  20.680  0.00  0.00    +0.000 A 
ATOM      7  C   UNL     1       0.023  10.661  21.907  0.00  0.00    +0.000 A 
ATOM      8  O   UNL     1      -0.413  11.067  22.985  0.00  0.00    +0.000 OA
ATOM      9  N   UNL     1       0.555   9.425  21.793  0.00  0.00    +0.000 N 
ATOM     10  C   UNL     1       1.084   8.927  20.612  0.00  0.00    +0.000 A 
ATOM     11  C   UNL     1       1.640   7.654  20.702  0.00  0.00    +0.000 A 
ATOM     12  C   UNL     1      -0.533  12.868  20.917  0.00  0.00    +0.000 C 
ATOM     13  C   UNL     1      -0.695  13.754  19.697  0.00  0.00    +0.000 C 
ATOM     14  C   UNL     1      -0.139  13.242  18.370  0.00  0.00    +0.000 C 
ATOM     15  N   UNL     1       0.388  11.882  18.386  0.00  0.00    +0.000 N 
ATOM     16  H   UNL     1       0.562   8.873  22.637  0.00  0.00    +0.000 HD
ATOM     17  H   UNL     1       0.873  11.585  17.548  0.00  0.00    +0.000 HD
ENDROOT
BRANCH   1  18
ATOM     18  C   UNL     1       2.827   5.674  19.801  0.00  0.00    +0.000 C 
BRANCH  18  23
ATOM     19  C   UNL     1       3.674   1.363  18.336  0.00  0.00    +0.000 C 
ATOM     20  N   UNL     1       2.755   2.089  19.205  0.00  0.00    +0.000 NA
ATOM     21  C   UNL     1       1.963   3.063  18.427  0.00  0.00    +0.000 C 
ATOM     22  C   UNL     1       1.104   3.993  19.313  0.00  0.00    +0.000 C 
ATOM     23  N   UNL     1       1.874   4.690  20.366  0.00  0.00    +0.000 NA
ATOM     24  C   UNL     1       2.567   3.651  21.158  0.00  0.00    +0.000 C 
ATOM     25  C   UNL     1       3.481   2.736  20.313  0.00  0.00    +0.000 C 
ENDBRANCH  18  23
ENDBRANCH   1  18
TORSDOF 2
ENDMDL
MODEL 8
REMARK VINA RESULT:      -7.9      1.786      2.472
REMARK  Name = 
REMARK  3 active torsions:
REMARK  status: ('A' for Active; 'I' for Inactive)
REMARK    1  A    between atoms: C_1  and  N_2
REMARK    2  A    between atoms: N_5  and  C_6
REMARK    3  A    between atoms: C_6  and  C_7
REMARK                            x       y       z     vdW  Elec       q    Type
REMARK                         _______ _______ _______ _____ _____    ______ ____
ROOT
ATOM      1  C   UNL     1       2.572   7.162  18.719  0.00  0.00    +0.000 A 
ATOM      2  C   UNL     1       2.261   6.856  20.051  0.00  0.00    +0.000 A 
ATOM      3  C   UNL     1       1.493   7.750  20.845  0.00  0.00    +0.000 A 
ATOM      4  C   UNL     1       1.007   8.970  20.327  0.00  0.00    +0.000 A 
ATOM      5  C   UNL     1       0.151   9.985  21.033  0.00  0.00    +0.000 A 
ATOM      6  C   UNL     1      -0.244  11.076  20.350  0.00  0.00    +0.000 A 
ATOM      7  C   UNL     1       0.173  11.335  18.948  0.00  0.00    +0.000 A 
ATOM      8  O   UNL     1      -0.177  12.344  18.336  0.00  0.00    +0.000 OA
ATOM      9  N   UNL     1       0.954  10.402  18.361  0.00  0.00    +0.000 N 
ATOM     10  C   UNL     1       1.357   9.236  18.993  0.00  0.00    +0.000 A 
ATOM     11  C   UNL     1       2.112   8.367  18.209  0.00  0.00    +0.000 A 
ATOM     12  C   UNL     1      -1.159  12.119  20.889  0.00  0.00    +0.000 C 
ATOM     13  C   UNL     1      -1.545  11.994  22.351  0.00  0.00    +0.000 C 
ATOM     14  C   UNL     1      -1.112  10.732  23.092  0.00  0.00    +0.000 C 
ATOM     15  N   UNL     1      -0.254   9.819  22.345  0.00  0.00    +0.000 N 
ATOM     16  H   UNL     1       1.224  10.595  17.409  0.00  0.00    +0.000 HD
ATOM     17  H   UNL     1      -0.072   8.924  22.783  0.00  0.00    +0.000 HD
ENDROOT
BRANCH   1  18
ATOM     18  C   UNL     1       3.348   6.263  17.777  0.00  0.00    +0.000 C 
BRANCH  18  23
ATOM     19  C   UNL     1       6.985   4.655  15.402  0.00  0.00    +0.000 C 
ATOM     20  N   UNL     1       6.272   4.421  16.654  0.00  0.00    +0.000 NA
ATOM     21  C   UNL     1       4.885   3.990  16.390  0.00  0.00    +0.000 C 
ATOM     22  C   UNL     1       4.022   3.904  17.669  0.00  0.00    +0.000 C 
ATOM     23  N   UNL     1       4.026   5.145  18.474  0.00  0.00    +0.000 NA
ATOM     24  C   UNL     1       5.438   5.465  18.775  0.00  0.00    +0.000 C 
ATOM     25  C   UNL     1       6.321   5.616  17.516  0.00  0.00    +0.000 C 
ENDBRANCH  18  23
ENDBRANCH   1  18
TORSDOF 2
ENDMDL
MODEL 9
REMARK VINA RESULT:      -7.9      1.311      1.679
REMARK  Name = 
REMARK  3 active torsions:
REMARK  status: ('A' for Active; 'I' for Inactive)
REMARK    1  A    between atoms: C_1  and  N_2
REMARK    2  A    between atoms: N_5  and  C_6
REMARK    3  A    between atoms: C_6  and  C_7
REMARK                            x       y       z     vdW  Elec       q    Type
REMARK                         _______ _______ _______ _____ _____    ______ ____
ROOT
ATOM      1  C   UNL     1       2.283   7.542  18.773  0.00  0.00    +0.000 A 
ATOM      2  C   UNL     1       1.875   8.536  17.873  0.00  0.00    +0.000 A 
ATOM      3  C   UNL     1       1.132   9.662  18.318  0.00  0.00    +0.000 A 
ATOM      4  C   UNL     1       0.785   9.831  19.675  0.00  0.00    +0.000 A 
ATOM      5  C   UNL     1       0.045  10.987  20.290  0.00  0.00    +0.000 A 
ATOM      6  C   UNL     1      -0.158  10.981  21.622  0.00  0.00    +0.000 A 
ATOM      7  C   UNL     1       0.278   9.858  22.492  0.00  0.00    +0.000 A 
ATOM      8  O   UNL     1       0.073   9.853  23.706  0.00  0.00    +0.000 OA
ATOM      9  N   UNL     1       0.925   8.836  21.891  0.00  0.00    +0.000 N 
ATOM     10  C   UNL     1       1.205   8.803  20.534  0.00  0.00    +0.000 A 
ATOM     11  C   UNL     1       1.931   7.694  20.106  0.00  0.00    +0.000 A 
ATOM     12  C   UNL     1      -0.796  12.093  22.379  0.00  0.00    +0.000 C 
ATOM     13  C   UNL     1      -1.373  13.231  21.558  0.00  0.00    +0.000 C 
ATOM     14  C   UNL     1      -1.100  13.229  20.056  0.00  0.00    +0.000 C 
ATOM     15  N   UNL     1      -0.409  12.054  19.537  0.00  0.00    +0.000 N 
ATOM     16  H   UNL     1       1.215   8.086  22.499  0.00  0.00    +0.000 HD
ATOM     17  H   UNL     1      -0.112  12.106  18.570  0.00  0.00    +0.000 HD
ENDROOT
BRANCH   1  18
ATOM     18  C   UNL     1       3.111   6.324  18.411  0.00  0.00    +0.000 C 
BRANCH  18  23
ATOM     19  C   UNL     1       3.496   1.727  18.000  0.00  0.00    +0.000 C 
ATOM     20  N   UNL     1       3.833   2.800  18.930  0.00  0.00    +0.000 NA
ATOM     21  C   UNL     1       2.609   3.465  19.422  0.00  0.00    +0.000 C 
ATOM     22  C   UNL     1       2.901   4.727  20.265  0.00  0.00    +0.000 C 
ATOM     23  N   UNL     1       3.774   5.708  19.584  0.00  0.00    +0.000 NA
ATOM     24  C   UNL     1       5.013   4.996  19.199  0.00  0.00    +0.000 C 
ATOM     25  C   UNL     1       4.764   3.759  18.308  0.00  0.00    +0.000 C 
ENDBRANCH  18  23
ENDBRANCH   1  18
TORSDOF 2
ENDMDL
