MODEL 1
REMARK VINA RESULT:      -8.0      0.000      0.000
REMARK  Name = 
REMARK  0 active torsions:
REMARK  status: ('A' for Active; 'I' for Inactive)
REMARK                            x       y       z     vdW  Elec       q    Type
REMARK                         _______ _______ _______ _____ _____    ______ ____
ROOT
ATOM      1  F   UNL     1       6.028   3.432  16.109  0.00  0.00    +0.000 F 
ATOM      2  C   UNL     1       5.110   4.190  16.726  0.00  0.00    +0.000 A 
ATOM      3  C   UNL     1       5.207   5.574  16.699  0.00  0.00    +0.000 A 
ATOM      4  F   UNL     1       6.232   6.153  16.058  0.00  0.00    +0.000 F 
ATOM      5  C   UNL     1       4.268   6.364  17.362  0.00  0.00    +0.000 A 
ATOM      6  F   UNL     1       4.437   7.691  17.374  0.00  0.00    +0.000 F 
ATOM      7  C   UNL     1       3.237   5.759  18.081  0.00  0.00    +0.000 A 
ATOM      8  C   UNL     1       3.106   4.345  18.075  0.00  0.00    +0.000 A 
ATOM      9  C   UNL     1       4.049   3.588  17.393  0.00  0.00    +0.000 A 
ATOM     10  F   UNL     1       3.940   2.254  17.394  0.00  0.00    +0.000 F 
ATOM     11  C   UNL     1       1.965   3.686  18.808  0.00  0.00    +0.000 C 
ATOM     12  S   UNL     1       1.812   4.311  20.503  0.00  0.00    +0.000 S 
ATOM     13  C   UNL     1       1.945   6.007  20.171  0.00  0.00    +0.000 A 
ATOM     14  N   UNL     1       1.678   6.973  21.016  0.00  0.00    +0.000 NA
ATOM     15  C   UNL     1       1.592   8.085  20.221  0.00  0.00    +0.000 A 
ATOM     16  C   UNL     1       1.161   9.376  20.539  0.00  0.00    +0.000 A 
ATOM     17  C   UNL     1       0.569  10.107  19.511  0.00  0.00    +0.000 A 
ATOM     18  C   UNL     1       0.891   9.808  18.192  0.00  0.00    +0.000 A 
ATOM     19  C   UNL     1       1.727   8.725  17.874  0.00  0.00    +0.000 A 
ATOM     20  C   UNL     1       1.941   7.797  18.901  0.00  0.00    +0.000 A 
ATOM     21  N   UNL     1       2.428   6.501  18.971  0.00  0.00    +0.000 N 
ENDROOT
TORSDOF 0
ENDMDL
MODEL 2
REMARK VINA RESULT:      -7.9      2.360      3.653
REMARK  Name = 
REMARK  0 active torsions:
REMARK  status: ('A' for Active; 'I' for Inactive)
REMARK                            x       y       z     vdW  Elec       q    Type
REMARK                         _______ _______ _______ _____ _____    ______ ____
ROOT
ATOM      1  F   UNL     1       3.545   1.635  20.034  0.00  0.00    +0.000 F 
ATOM      2  C   UNL     1       3.330   2.954  19.927  0.00  0.00    +0.000 A 
ATOM      3  C   UNL     1       2.171   3.522  20.439  0.00  0.00    +0.000 A 
ATOM      4  F   UNL     1       1.259   2.741  21.034  0.00  0.00    +0.000 F 
ATOM      5  C   UNL     1       1.932   4.890  20.305  0.00  0.00    +0.000 A 
ATOM      6  F   UNL     1       0.771   5.387  20.746  0.00  0.00    +0.000 F 
ATOM      7  C   UNL     1       2.853   5.691  19.630  0.00  0.00    +0.000 A 
ATOM      8  C   UNL     1       4.062   5.125  19.145  0.00  0.00    +0.000 A 
ATOM      9  C   UNL     1       4.276   3.763  19.307  0.00  0.00    +0.000 A 
ATOM     10  F   UNL     1       5.406   3.219  18.840  0.00  0.00    +0.000 F 
ATOM     11  C   UNL     1       5.085   5.995  18.459  0.00  0.00    +0.000 C 
ATOM     12  S   UNL     1       4.328   7.026  17.173  0.00  0.00    +0.000 S 
ATOM     13  C   UNL     1       2.961   7.602  18.068  0.00  0.00    +0.000 A 
ATOM     14  N   UNL     1       2.167   8.579  17.704  0.00  0.00    +0.000 NA
ATOM     15  C   UNL     1       1.484   8.887  18.850  0.00  0.00    +0.000 A 
ATOM     16  C   UNL     1       0.627   9.959  19.115  0.00  0.00    +0.000 A 
ATOM     17  C   UNL     1       0.581  10.409  20.432  0.00  0.00    +0.000 A 
ATOM     18  C   UNL     1       0.905   9.533  21.462  0.00  0.00    +0.000 A 
ATOM     19  C   UNL     1       1.366   8.234  21.194  0.00  0.00    +0.000 A 
ATOM     20  C   UNL     1       1.784   7.993  19.879  0.00  0.00    +0.000 A 
ATOM     21  N   UNL     1       2.534   7.014  19.248  0.00  0.00    +0.000 N 
ENDROOT
TORSDOF 0
ENDMDL
MODEL 3
REMARK VINA RESULT:      -7.9      2.288      5.483
REMARK  Name = 
REMARK  0 active torsions:
REMARK  status: ('A' for Active; 'I' for Inactive)
REMARK                            x       y       z     vdW  Elec       q    Type
REMARK                         _______ _______ _______ _____ _____    ______ ____
ROOT
ATOM      1  F   UNL     1       0.583   9.650  19.915  0.00  0.00    +0.000 F 
ATOM      2  C   UNL     1       1.411   8.689  19.482  0.00  0.00    +0.000 A 
ATOM      3  C   UNL     1       2.125   8.855  18.303  0.00  0.00    +0.000 A 
ATOM      4  F   UNL     1       1.976   9.982  17.592  0.00  0.00    +0.000 F 
ATOM      5  C   UNL     1       2.967   7.846  17.836  0.00  0.00    +0.000 A 
ATOM      6  F   UNL     1       3.581   8.013  16.659  0.00  0.00    +0.000 F 
ATOM      7  C   UNL     1       3.073   6.649  18.544  0.00  0.00    +0.000 A 
ATOM      8  C   UNL     1       2.382   6.491  19.774  0.00  0.00    +0.000 A 
ATOM      9  C   UNL     1       1.563   7.521  20.219  0.00  0.00    +0.000 A 
ATOM     10  F   UNL     1       0.896   7.374  21.370  0.00  0.00    +0.000 F 
ATOM     11  C   UNL     1       2.531   5.220  20.571  0.00  0.00    +0.000 C 
ATOM     12  S   UNL     1       2.289   3.751  19.535  0.00  0.00    +0.000 S 
ATOM     13  C   UNL     1       3.278   4.213  18.189  0.00  0.00    +0.000 A 
ATOM     14  N   UNL     1       3.659   3.422  17.216  0.00  0.00    +0.000 NA
ATOM     15  C   UNL     1       4.671   4.119  16.609  0.00  0.00    +0.000 A 
ATOM     16  C   UNL     1       5.569   3.706  15.622  0.00  0.00    +0.000 A 
ATOM     17  C   UNL     1       6.828   4.302  15.635  0.00  0.00    +0.000 A 
ATOM     18  C   UNL     1       6.975   5.566  16.196  0.00  0.00    +0.000 A 
ATOM     19  C   UNL     1       5.901   6.210  16.831  0.00  0.00    +0.000 A 
ATOM     20  C   UNL     1       4.804   5.399  17.149  0.00  0.00    +0.000 A 
ATOM     21  N   UNL     1       3.702   5.515  17.981  0.00  0.00    +0.000 N 
ENDROOT
TORSDOF 0
ENDMDL
MODEL 4
REMARK VINA RESULT:      -7.8      1.206      1.448
REMARK  Name = 
REMARK  0 active torsions:
REMARK  status: ('A' for Active; 'I' for Inactive)
REMARK                            x       y       z     vdW  Elec       q    Type
REMARK                         _______ _______ _______ _____ _____    ______ ____
ROOT
ATOM      1  F   UNL     1       7.714   4.380  15.654  0.00  0.00    +0.000 F 
ATOM      2  C   UNL     1       6.606   4.855  16.240  0.00  0.00    +0.000 A 
ATOM      3  C   UNL     1       6.552   6.170  16.680  0.00  0.00    +0.000 A 
ATOM      4  F   UNL     1       7.621   6.964  16.525  0.00  0.00    +0.000 F 
ATOM      5  C   UNL     1       5.410   6.660  17.314  0.00  0.00    +0.000 A 
ATOM      6  F   UNL     1       5.424   7.910  17.790  0.00  0.00    +0.000 F 
ATOM      7  C   UNL     1       4.322   5.815  17.531  0.00  0.00    +0.000 A 
ATOM      8  C   UNL     1       4.353   4.482  17.042  0.00  0.00    +0.000 A 
ATOM      9  C   UNL     1       5.500   4.030  16.402  0.00  0.00    +0.000 A 
ATOM     10  F   UNL     1       5.542   2.770  15.951  0.00  0.00    +0.000 F 
ATOM     11  C   UNL     1       3.161   3.578  17.227  0.00  0.00    +0.000 C 
ATOM     12  S   UNL     1       2.576   3.590  18.944  0.00  0.00    +0.000 S 
ATOM     13  C   UNL     1       2.588   5.302  19.214  0.00  0.00    +0.000 A 
ATOM     14  N   UNL     1       2.038   5.918  20.232  0.00  0.00    +0.000 NA
ATOM     15  C   UNL     1       2.004   7.230  19.837  0.00  0.00    +0.000 A 
ATOM     16  C   UNL     1       1.374   8.324  20.438  0.00  0.00    +0.000 A 
ATOM     17  C   UNL     1       0.941   9.337  19.587  0.00  0.00    +0.000 A 
ATOM     18  C   UNL     1       1.572   9.511  18.360  0.00  0.00    +0.000 A 
ATOM     19  C   UNL     1       2.572   8.626  17.924  0.00  0.00    +0.000 A 
ATOM     20  C   UNL     1       2.661   7.414  18.620  0.00  0.00    +0.000 A 
ATOM     21  N   UNL     1       3.261   6.187  18.388  0.00  0.00    +0.000 N 
ENDROOT
TORSDOF 0
ENDMDL
MODEL 5
REMARK VINA RESULT:      -7.6      2.871      5.608
REMARK  Name = 
REMARK  0 active torsions:
REMARK  status: ('A' for Active; 'I' for Inactive)
REMARK                            x       y       z     vdW  Elec       q    Type
REMARK                         _______ _______ _______ _____ _____    ______ ____
ROOT
ATOM      1  F   UNL     1       1.680   3.130  22.045  0.00  0.00    +0.000 F 
ATOM      2  C   UNL     1       2.273   3.592  20.936  0.00  0.00    +0.000 A 
ATOM      3  C   UNL     1       3.440   3.006  20.465  0.00  0.00    +0.000 A 
ATOM      4  F   UNL     1       3.979   1.977  21.134  0.00  0.00    +0.000 F 
ATOM      5  C   UNL     1       4.075   3.502  19.327  0.00  0.00    +0.000 A 
ATOM      6  F   UNL     1       5.236   2.957  18.947  0.00  0.00    +0.000 F 
ATOM      7  C   UNL     1       3.547   4.613  18.668  0.00  0.00    +0.000 A 
ATOM      8  C   UNL     1       2.329   5.188  19.116  0.00  0.00    +0.000 A 
ATOM      9  C   UNL     1       1.715   4.661  20.245  0.00  0.00    +0.000 A 
ATOM     10  F   UNL     1       0.573   5.207  20.682  0.00  0.00    +0.000 F 
ATOM     11  C   UNL     1       1.725   6.357  18.379  0.00  0.00    +0.000 C 
ATOM     12  S   UNL     1       2.950   7.661  18.082  0.00  0.00    +0.000 S 
ATOM     13  C   UNL     1       4.251   6.674  17.502  0.00  0.00    +0.000 A 
ATOM     14  N   UNL     1       5.338   7.111  16.916  0.00  0.00    +0.000 NA
ATOM     15  C   UNL     1       5.875   5.987  16.346  0.00  0.00    +0.000 A 
ATOM     16  C   UNL     1       6.941   5.865  15.451  0.00  0.00    +0.000 A 
ATOM     17  C   UNL     1       6.887   4.797  14.560  0.00  0.00    +0.000 A 
ATOM     18  C   UNL     1       6.158   3.662  14.901  0.00  0.00    +0.000 A 
ATOM     19  C   UNL     1       5.402   3.612  16.083  0.00  0.00    +0.000 A 
ATOM     20  C   UNL     1       5.164   4.842  16.709  0.00  0.00    +0.000 A 
ATOM     21  N   UNL     1       4.287   5.300  17.678  0.00  0.00    +0.000 N 
ENDROOT
TORSDOF 0
ENDMDL
MODEL 6
REMARK VINA RESULT:      -7.2      2.676      5.483
REMARK  Name = 
REMARK  0 active torsions:
REMARK  status: ('A' for Active; 'I' for Inactive)
REMARK                            x       y       z     vdW  Elec       q    Type
REMARK                         _______ _______ _______ _____ _____    ______ ____
ROOT
ATOM      1  F   UNL     1       0.771   6.917  21.375  0.00  0.00    +0.000 F 
ATOM      2  C   UNL     1       1.684   6.380  20.553  0.00  0.00    +0.000 A 
ATOM      3  C   UNL     1       2.248   7.137  19.536  0.00  0.00    +0.000 A 
ATOM      4  F   UNL     1       1.867   8.412  19.371  0.00  0.00    +0.000 F 
ATOM      5  C   UNL     1       3.178   6.573  18.663  0.00  0.00    +0.000 A 
ATOM      6  F   UNL     1       3.644   7.314  17.651  0.00  0.00    +0.000 F 
ATOM      7  C   UNL     1       3.527   5.229  18.797  0.00  0.00    +0.000 A 
ATOM      8  C   UNL     1       2.989   4.461  19.863  0.00  0.00    +0.000 A 
ATOM      9  C   UNL     1       2.076   5.057  20.723  0.00  0.00    +0.000 A 
ATOM     10  F   UNL     1       1.554   4.336  21.723  0.00  0.00    +0.000 F 
ATOM     11  C   UNL     1       3.400   3.022  20.044  0.00  0.00    +0.000 C 
ATOM     12  S   UNL     1       3.274   2.093  18.492  0.00  0.00    +0.000 S 
ATOM     13  C   UNL     1       4.048   3.232  17.440  0.00  0.00    +0.000 A 
ATOM     14  N   UNL     1       4.444   2.991  16.214  0.00  0.00    +0.000 NA
ATOM     15  C   UNL     1       5.279   4.039  15.931  0.00  0.00    +0.000 A 
ATOM     16  C   UNL     1       6.127   4.232  14.837  0.00  0.00    +0.000 A 
ATOM     17  C   UNL     1       7.281   4.978  15.067  0.00  0.00    +0.000 A 
ATOM     18  C   UNL     1       7.296   5.904  16.105  0.00  0.00    +0.000 A 
ATOM     19  C   UNL     1       6.207   6.032  16.982  0.00  0.00    +0.000 A 
ATOM     20  C   UNL     1       5.276   4.985  16.958  0.00  0.00    +0.000 A 
ATOM     21  N   UNL     1       4.256   4.555  17.790  0.00  0.00    +0.000 N 
ENDROOT
TORSDOF 0
ENDMDL
MODEL 7
REMARK VINA RESULT:      -7.0      3.020      5.875
REMARK  Name = 
REMARK  0 active torsions:
REMARK  status: ('A' for Active; 'I' for Inactive)
REMARK                            x       y       z     vdW  Elec       q    Type
REMARK                         _______ _______ _______ _____ _____    ______ ____
ROOT
ATOM      1  F   UNL     1       1.271   2.434  20.380  0.00  0.00    +0.000 F 
ATOM      2  C   UNL     1       2.016   3.008  19.425  0.00  0.00    +0.000 A 
ATOM      3  C   UNL     1       2.919   2.253  18.688  0.00  0.00    +0.000 A 
ATOM      4  F   UNL     1       3.050   0.944  18.944  0.00  0.00    +0.000 F 
ATOM      5  C   UNL     1       3.714   2.852  17.711  0.00  0.00    +0.000 A 
ATOM      6  F   UNL     1       4.623   2.106  17.074  0.00  0.00    +0.000 F 
ATOM      7  C   UNL     1       3.621   4.226  17.489  0.00  0.00    +0.000 A 
ATOM      8  C   UNL     1       2.667   4.996  18.207  0.00  0.00    +0.000 A 
ATOM      9  C   UNL     1       1.881   4.366  19.162  0.00  0.00    +0.000 A 
ATOM     10  F   UNL     1       0.990   5.087  19.853  0.00  0.00    +0.000 F 
ATOM     11  C   UNL     1       2.526   6.472  17.936  0.00  0.00    +0.000 C 
ATOM     12  S   UNL     1       4.134   7.310  17.955  0.00  0.00    +0.000 S 
ATOM     13  C   UNL     1       5.025   6.192  16.976  0.00  0.00    +0.000 A 
ATOM     14  N   UNL     1       6.211   6.406  16.461  0.00  0.00    +0.000 NA
ATOM     15  C   UNL     1       6.338   5.421  15.518  0.00  0.00    +0.000 A 
ATOM     16  C   UNL     1       7.318   5.249  14.536  0.00  0.00    +0.000 A 
ATOM     17  C   UNL     1       6.919   4.617  13.361  0.00  0.00    +0.000 A 
ATOM     18  C   UNL     1       5.833   3.748  13.392  0.00  0.00    +0.000 A 
ATOM     19  C   UNL     1       5.077   3.570  14.561  0.00  0.00    +0.000 A 
ATOM     20  C   UNL     1       5.265   4.530  15.564  0.00  0.00    +0.000 A 
ATOM     21  N   UNL     1       4.578   4.910  16.705  0.00  0.00    +0.000 N 
ENDROOT
TORSDOF 0
ENDMDL
MODEL 8
REMARK VINA RESULT:      -7.0      3.411      6.344
REMARK  Name = 
REMARK  0 active torsions:
REMARK  status: ('A' for Active; 'I' for Inactive)
REMARK                            x       y       z     vdW  Elec       q    Type
REMARK                         _______ _______ _______ _____ _____    ______ ____
ROOT
ATOM      1  F   UNL     1       2.286   3.527  20.450  0.00  0.00    +0.000 F 
ATOM      2  C   UNL     1       2.963   3.857  19.341  0.00  0.00    +0.000 A 
ATOM      3  C   UNL     1       3.367   2.878  18.445  0.00  0.00    +0.000 A 
ATOM      4  F   UNL     1       3.085   1.592  18.700  0.00  0.00    +0.000 F 
ATOM      5  C   UNL     1       4.094   3.216  17.304  0.00  0.00    +0.000 A 
ATOM      6  F   UNL     1       4.528   2.236  16.503  0.00  0.00    +0.000 F 
ATOM      7  C   UNL     1       4.441   4.547  17.073  0.00  0.00    +0.000 A 
ATOM      8  C   UNL     1       3.991   5.560  17.961  0.00  0.00    +0.000 A 
ATOM      9  C   UNL     1       3.257   5.191  19.080  0.00  0.00    +0.000 A 
ATOM     10  F   UNL     1       2.841   6.138  19.930  0.00  0.00    +0.000 F 
ATOM     11  C   UNL     1       4.319   7.007  17.691  0.00  0.00    +0.000 C 
ATOM     12  S   UNL     1       6.083   7.235  17.338  0.00  0.00    +0.000 S 
ATOM     13  C   UNL     1       6.299   5.932  16.217  0.00  0.00    +0.000 A 
ATOM     14  N   UNL     1       7.347   5.750  15.451  0.00  0.00    +0.000 NA
ATOM     15  C   UNL     1       6.918   4.833  14.528  0.00  0.00    +0.000 A 
ATOM     16  C   UNL     1       7.544   4.385  13.361  0.00  0.00    +0.000 A 
ATOM     17  C   UNL     1       6.710   3.993  12.318  0.00  0.00    +0.000 A 
ATOM     18  C   UNL     1       5.422   3.552  12.605  0.00  0.00    +0.000 A 
ATOM     19  C   UNL     1       4.919   3.584  13.916  0.00  0.00    +0.000 A 
ATOM     20  C   UNL     1       5.638   4.365  14.829  0.00  0.00    +0.000 A 
ATOM     21  N   UNL     1       5.386   4.899  16.082  0.00  0.00    +0.000 N 
ENDROOT
TORSDOF 0
ENDMDL
MODEL 9
REMARK VINA RESULT:      -6.9      3.290      5.985
REMARK  Name = 
REMARK  0 active torsions:
REMARK  status: ('A' for Active; 'I' for Inactive)
REMARK                            x       y       z     vdW  Elec       q    Type
REMARK                         _______ _______ _______ _____ _____    ______ ____
ROOT
ATOM      1  F   UNL     1       0.984  11.388  19.700  0.00  0.00    +0.000 F 
ATOM      2  C   UNL     1       1.304  10.090  19.604  0.00  0.00    +0.000 A 
ATOM      3  C   UNL     1       1.039   9.221  20.653  0.00  0.00    +0.000 A 
ATOM      4  F   UNL     1       0.469   9.689  21.772  0.00  0.00    +0.000 F 
ATOM      5  C   UNL     1       1.395   7.875  20.566  0.00  0.00    +0.000 A 
ATOM      6  F   UNL     1       1.190   7.085  21.626  0.00  0.00    +0.000 F 
ATOM      7  C   UNL     1       2.045   7.402  19.426  0.00  0.00    +0.000 A 
ATOM      8  C   UNL     1       2.277   8.276  18.331  0.00  0.00    +0.000 A 
ATOM      9  C   UNL     1       1.898   9.607  18.444  0.00  0.00    +0.000 A 
ATOM     10  F   UNL     1       2.125  10.439  17.421  0.00  0.00    +0.000 F 
ATOM     11  C   UNL     1       2.933   7.760  17.075  0.00  0.00    +0.000 C 
ATOM     12  S   UNL     1       4.442   6.825  17.448  0.00  0.00    +0.000 S 
ATOM     13  C   UNL     1       3.830   5.841  18.736  0.00  0.00    +0.000 A 
ATOM     14  N   UNL     1       4.433   4.797  19.251  0.00  0.00    +0.000 NA
ATOM     15  C   UNL     1       3.445   4.169  19.962  0.00  0.00    +0.000 A 
ATOM     16  C   UNL     1       3.452   2.917  20.581  0.00  0.00    +0.000 A 
ATOM     17  C   UNL     1       2.230   2.253  20.660  0.00  0.00    +0.000 A 
ATOM     18  C   UNL     1       1.052   2.993  20.646  0.00  0.00    +0.000 A 
ATOM     19  C   UNL     1       1.070   4.385  20.461  0.00  0.00    +0.000 A 
ATOM     20  C   UNL     1       2.269   4.922  19.975  0.00  0.00    +0.000 A 
ATOM     21  N   UNL     1       2.649   6.124  19.401  0.00  0.00    +0.000 N 
ENDROOT
TORSDOF 0
ENDMDL
