MODEL 1
REMARK VINA RESULT:      -8.0      0.000      0.000
REMARK  Name = 
REMARK  12 active torsions:
REMARK  status: ('A' for Active; 'I' for Inactive)
REMARK    1  A    between atoms: C_1  and  C_2
REMARK    2  A    between atoms: C_2  and  C_3
REMARK    3  A    between atoms: C_3  and  C_4
REMARK    4  A    between atoms: C_4  and  N_5
REMARK    5  A    between atoms: C_4  and  C_23
REMARK    6  A    between atoms: N_5  and  C_6
REMARK    7  A    between atoms: C_6  and  C_7
REMARK    8  A    between atoms: C_7  and  O_8
REMARK    9  A    between atoms: C_7  and  C_9
REMARK   10  A    between atoms: C_9  and  O_10
REMARK   11  A    between atoms: O_10  and  C_11
REMARK   12  A    between atoms: C_14  and  C_15
REMARK                            x       y       z     vdW  Elec       q    Type
REMARK                         _______ _______ _______ _____ _____    ______ ____
ROOT
ATOM      1  C   UNL     1       4.297   3.345  18.563  0.00  0.00    +0.000 C 
ENDROOT
BRANCH   1   2
ATOM      2  O   UNL     1       5.365   3.051  19.479  0.00  0.00    +0.000 OA
ATOM      3  H   UNL     1       5.131   2.204  19.902  0.00  0.00    +0.000 HD
ENDBRANCH   1   2
BRANCH   1   4
ATOM      4  C   UNL     1       4.832   4.170  17.377  0.00  0.00    +0.000 C 
BRANCH   4   5
ATOM      5  N   UNL     1       6.157   3.734  16.920  0.00  0.00    +0.000 NA
ATOM      6  H   UNL     1       6.686   3.400  17.725  0.00  0.00    +0.000 HD
BRANCH   5   7
ATOM      7  C   UNL     1       6.896   4.791  16.203  0.00  0.00    +0.000 C 
BRANCH   7   8
ATOM      8  C   UNL     1       6.854   4.563  14.681  0.00  0.00    +0.000 A 
ATOM      9  C   UNL     1       6.022   3.604  14.073  0.00  0.00    +0.000 A 
ATOM     10  C   UNL     1       6.036   3.401  12.691  0.00  0.00    +0.000 A 
ATOM     11  C   UNL     1       6.882   4.153  11.883  0.00  0.00    +0.000 A 
ATOM     12  C   UNL     1       7.714   5.111  12.459  0.00  0.00    +0.000 A 
ATOM     13  C   UNL     1       7.695   5.320  13.841  0.00  0.00    +0.000 A 
ENDBRANCH   7   8
BRANCH   7  14
ATOM     14  C   UNL     1       6.486   6.232  16.610  0.00  0.00    +0.000 C 
BRANCH  14  16
ATOM     15  C   UNL     1       7.724   6.227  18.780  0.00  0.00    +0.000 C 
ATOM     16  C   UNL     1       7.471   7.002  17.489  0.00  0.00    +0.000 C 
ENDBRANCH  14  16
ENDBRANCH   7  14
ENDBRANCH   5   7
ENDBRANCH   4   5
ENDBRANCH   1   4
BRANCH   1  17
ATOM     17  C   UNL     1       3.209   4.160  19.283  0.00  0.00    +0.000 C 
BRANCH  17  18
ATOM     18  O   UNL     1       2.907   5.286  18.446  0.00  0.00    +0.000 OA
BRANCH  18  19
ATOM     19  C   UNL     1       2.359   6.376  19.048  0.00  0.00    +0.000 A 
ATOM     20  C   UNL     1       1.863   6.148  20.327  0.00  0.00    +0.000 A 
ATOM     21  C   UNL     1       1.241   7.175  21.040  0.00  0.00    +0.000 A 
ATOM     22  C   UNL     1       1.129   8.470  20.509  0.00  0.00    +0.000 A 
ATOM     23  C   UNL     1       1.695   8.692  19.241  0.00  0.00    +0.000 A 
ATOM     24  C   UNL     1       2.298   7.657  18.513  0.00  0.00    +0.000 A 
BRANCH  22  25
ATOM     25  C   UNL     1       0.420   9.542  21.247  0.00  0.00    +0.000 A 
ATOM     26  C   UNL     1       0.412  10.872  20.784  0.00  0.00    +0.000 A 
ATOM     27  C   UNL     1      -0.194  11.897  21.518  0.00  0.00    +0.000 A 
ATOM     28  C   UNL     1      -0.828  11.613  22.722  0.00  0.00    +0.000 A 
ATOM     29  C   UNL     1      -0.858  10.305  23.192  0.00  0.00    +0.000 A 
ATOM     30  C   UNL     1      -0.237   9.284  22.465  0.00  0.00    +0.000 A 
ENDBRANCH  22  25
ENDBRANCH  18  19
ENDBRANCH  17  18
ENDBRANCH   1  17
TORSDOF 11
ENDMDL
MODEL 2
REMARK VINA RESULT:      -7.7      1.236      1.733
REMARK  Name = 
REMARK  12 active torsions:
REMARK  status: ('A' for Active; 'I' for Inactive)
REMARK    1  A    between atoms: C_1  and  C_2
REMARK    2  A    between atoms: C_2  and  C_3
REMARK    3  A    between atoms: C_3  and  C_4
REMARK    4  A    between atoms: C_4  and  N_5
REMARK    5  A    between atoms: C_4  and  C_23
REMARK    6  A    between atoms: N_5  and  C_6
REMARK    7  A    between atoms: C_6  and  C_7
REMARK    8  A    between atoms: C_7  and  O_8
REMARK    9  A    between atoms: C_7  and  C_9
REMARK   10  A    between atoms: C_9  and  O_10
REMARK   11  A    between atoms: O_10  and  C_11
REMARK   12  A    between atoms: C_14  and  C_15
REMARK                            x       y       z     vdW  Elec       q    Type
REMARK                         _______ _______ _______ _____ _____    ______ ____
ROOT
ATOM      1  C   UNL     1       3.823   3.896  18.455  0.00  0.00    +0.000 C 
ENDROOT
BRANCH   1   2
ATOM      2  O   UNL     1       4.515   2.751  18.978  0.00  0.00    +0.000 OA
ATOM      3  H   UNL     1       5.162   2.493  18.295  0.00  0.00    +0.000 HD
ENDBRANCH   1   2
BRANCH   1   4
ATOM      4  C   UNL     1       4.324   4.210  17.032  0.00  0.00    +0.000 C 
BRANCH   4   5
ATOM      5  N   UNL     1       5.662   3.672  16.758  0.00  0.00    +0.000 NA
ATOM      6  H   UNL     1       6.037   3.277  17.620  0.00  0.00    +0.000 HD
BRANCH   5   7
ATOM      7  C   UNL     1       6.583   4.678  16.194  0.00  0.00    +0.000 C 
BRANCH   7   8
ATOM      8  C   UNL     1       6.698   4.530  14.666  0.00  0.00    +0.000 A 
ATOM      9  C   UNL     1       5.948   3.596  13.928  0.00  0.00    +0.000 A 
ATOM     10  C   UNL     1       6.104   3.466  12.546  0.00  0.00    +0.000 A 
ATOM     11  C   UNL     1       7.016   4.269  11.868  0.00  0.00    +0.000 A 
ATOM     12  C   UNL     1       7.769   5.204  12.574  0.00  0.00    +0.000 A 
ATOM     13  C   UNL     1       7.607   5.340  13.956  0.00  0.00    +0.000 A 
ENDBRANCH   7   8
BRANCH   7  14
ATOM     14  C   UNL     1       6.275   6.134  16.639  0.00  0.00    +0.000 C 
BRANCH  14  16
ATOM     15  C   UNL     1       7.693   6.068  18.695  0.00  0.00    +0.000 C 
ATOM     16  C   UNL     1       7.367   6.855  17.429  0.00  0.00    +0.000 C 
ENDBRANCH  14  16
ENDBRANCH   7  14
ENDBRANCH   5   7
ENDBRANCH   4   5
ENDBRANCH   1   4
BRANCH   1  17
ATOM     17  C   UNL     1       4.087   5.116  19.354  0.00  0.00    +0.000 C 
BRANCH  17  18
ATOM     18  O   UNL     1       2.839   5.455  19.976  0.00  0.00    +0.000 OA
BRANCH  18  19
ATOM     19  C   UNL     1       2.341   6.697  19.730  0.00  0.00    +0.000 A 
ATOM     20  C   UNL     1       1.654   7.271  20.795  0.00  0.00    +0.000 A 
ATOM     21  C   UNL     1       1.063   8.528  20.661  0.00  0.00    +0.000 A 
ATOM     22  C   UNL     1       1.170   9.265  19.470  0.00  0.00    +0.000 A 
ATOM     23  C   UNL     1       1.922   8.690  18.430  0.00  0.00    +0.000 A 
ATOM     24  C   UNL     1       2.497   7.418  18.552  0.00  0.00    +0.000 A 
BRANCH  22  25
ATOM     25  C   UNL     1       0.493  10.574  19.314  0.00  0.00    +0.000 A 
ATOM     26  C   UNL     1       0.816  11.672  20.135  0.00  0.00    +0.000 A 
ATOM     27  C   UNL     1       0.127  12.885  20.039  0.00  0.00    +0.000 A 
ATOM     28  C   UNL     1      -0.887  13.038  19.100  0.00  0.00    +0.000 A 
ATOM     29  C   UNL     1      -1.211  11.980  18.258  0.00  0.00    +0.000 A 
ATOM     30  C   UNL     1      -0.532  10.763  18.368  0.00  0.00    +0.000 A 
ENDBRANCH  22  25
ENDBRANCH  18  19
ENDBRANCH  17  18
ENDBRANCH   1  17
TORSDOF 11
ENDMDL
MODEL 3
REMARK VINA RESULT:      -7.7      1.416      3.592
REMARK  Name = 
REMARK  12 active torsions:
REMARK  status: ('A' for Active; 'I' for Inactive)
REMARK    1  A    between atoms: C_1  and  C_2
REMARK    2  A    between atoms: C_2  and  C_3
REMARK    3  A    between atoms: C_3  and  C_4
REMARK    4  A    between atoms: C_4  and  N_5
REMARK    5  A    between atoms: C_4  and  C_23
REMARK    6  A    between atoms: N_5  and  C_6
REMARK    7  A    between atoms: C_6  and  C_7
REMARK    8  A    between atoms: C_7  and  O_8
REMARK    9  A    between atoms: C_7  and  C_9
REMARK   10  A    between atoms: C_9  and  O_10
REMARK   11  A    between atoms: O_10  and  C_11
REMARK   12  A    between atoms: C_14  and  C_15
REMARK                            x       y       z     vdW  Elec       q    Type
REMARK                         _______ _______ _______ _____ _____    ______ ____
ROOT
ATOM      1  C   UNL     1       2.089   3.901  18.254  0.00  0.00    +0.000 C 
ENDROOT
BRANCH   1   2
ATOM      2  O   UNL     1       1.733   2.566  18.648  0.00  0.00    +0.000 OA
ATOM      3  H   UNL     1       0.780   2.474  18.460  0.00  0.00    +0.000 HD
ENDBRANCH   1   2
BRANCH   1   4
ATOM      4  C   UNL     1       2.973   3.860  16.992  0.00  0.00    +0.000 C 
BRANCH   4   5
ATOM      5  N   UNL     1       4.402   3.713  17.292  0.00  0.00    +0.000 NA
ATOM      6  H   UNL     1       4.563   3.990  18.260  0.00  0.00    +0.000 HD
BRANCH   5   7
ATOM      7  C   UNL     1       5.266   4.479  16.373  0.00  0.00    +0.000 C 
BRANCH   7   8
ATOM      8  C   UNL     1       6.272   5.347  17.151  0.00  0.00    +0.000 A 
ATOM      9  C   UNL     1       7.022   4.862  18.238  0.00  0.00    +0.000 A 
ATOM     10  C   UNL     1       7.901   5.688  18.942  0.00  0.00    +0.000 A 
ATOM     11  C   UNL     1       8.052   7.021  18.574  0.00  0.00    +0.000 A 
ATOM     12  C   UNL     1       7.324   7.526  17.499  0.00  0.00    +0.000 A 
ATOM     13  C   UNL     1       6.450   6.697  16.789  0.00  0.00    +0.000 A 
ENDBRANCH   7   8
BRANCH   7  14
ATOM     14  C   UNL     1       5.937   3.614  15.272  0.00  0.00    +0.000 C 
BRANCH  14  16
ATOM     15  C   UNL     1       6.109   3.523  12.781  0.00  0.00    +0.000 C 
ATOM     16  C   UNL     1       6.424   4.351  14.024  0.00  0.00    +0.000 C 
ENDBRANCH  14  16
ENDBRANCH   7  14
ENDBRANCH   5   7
ENDBRANCH   4   5
ENDBRANCH   1   4
BRANCH   1  17
ATOM     17  C   UNL     1       2.874   4.582  19.388  0.00  0.00    +0.000 C 
BRANCH  17  18
ATOM     18  O   UNL     1       3.321   5.849  18.884  0.00  0.00    +0.000 OA
BRANCH  18  19
ATOM     19  C   UNL     1       2.555   6.936  19.174  0.00  0.00    +0.000 A 
ATOM     20  C   UNL     1       2.306   7.778  18.095  0.00  0.00    +0.000 A 
ATOM     21  C   UNL     1       1.564   8.948  18.266  0.00  0.00    +0.000 A 
ATOM     22  C   UNL     1       1.018   9.293  19.513  0.00  0.00    +0.000 A 
ATOM     23  C   UNL     1       1.231   8.394  20.573  0.00  0.00    +0.000 A 
ATOM     24  C   UNL     1       1.996   7.231  20.411  0.00  0.00    +0.000 A 
BRANCH  22  25
ATOM     25  C   UNL     1       0.279  10.564  19.701  0.00  0.00    +0.000 A 
ATOM     26  C   UNL     1      -0.052  11.039  20.985  0.00  0.00    +0.000 A 
ATOM     27  C   UNL     1      -0.814  12.199  21.161  0.00  0.00    +0.000 A 
ATOM     28  C   UNL     1      -1.244  12.926  20.056  0.00  0.00    +0.000 A 
ATOM     29  C   UNL     1      -0.911  12.495  18.777  0.00  0.00    +0.000 A 
ATOM     30  C   UNL     1      -0.163  11.325  18.603  0.00  0.00    +0.000 A 
ENDBRANCH  22  25
ENDBRANCH  18  19
ENDBRANCH  17  18
ENDBRANCH   1  17
TORSDOF 11
ENDMDL
MODEL 4
REMARK VINA RESULT:      -7.7      1.296      3.647
REMARK  Name = 
REMARK  12 active torsions:
REMARK  status: ('A' for Active; 'I' for Inactive)
REMARK    1  A    between atoms: C_1  and  C_2
REMARK    2  A    between atoms: C_2  and  C_3
REMARK    3  A    between atoms: C_3  and  C_4
REMARK    4  A    between atoms: C_4  and  N_5
REMARK    5  A    between atoms: C_4  and  C_23
REMARK    6  A    between atoms: N_5  and  C_6
REMARK    7  A    between atoms: C_6  and  C_7
REMARK    8  A    between atoms: C_7  and  O_8
REMARK    9  A    between atoms: C_7  and  C_9
REMARK   10  A    between atoms: C_9  and  O_10
REMARK   11  A    between atoms: O_10  and  C_11
REMARK   12  A    between atoms: C_14  and  C_15
REMARK                            x       y       z     vdW  Elec       q    Type
REMARK                         _______ _______ _______ _____ _____    ______ ____
ROOT
ATOM      1  C   UNL     1       2.854   2.933  18.048  0.00  0.00    +0.000 C 
ENDROOT
BRANCH   1   2
ATOM      2  O   UNL     1       1.725   2.073  17.823  0.00  0.00    +0.000 OA
ATOM      3  H   UNL     1       0.954   2.537  18.200  0.00  0.00    +0.000 HD
ENDBRANCH   1   2
BRANCH   1   4
ATOM      4  C   UNL     1       3.645   3.119  16.739  0.00  0.00    +0.000 C 
BRANCH   4   5
ATOM      5  N   UNL     1       5.091   3.257  16.952  0.00  0.00    +0.000 NA
ATOM      6  H   UNL     1       5.261   3.407  17.946  0.00  0.00    +0.000 HD
BRANCH   5   7
ATOM      7  C   UNL     1       5.691   4.337  16.144  0.00  0.00    +0.000 C 
BRANCH   7   8
ATOM      8  C   UNL     1       6.566   5.260  17.013  0.00  0.00    +0.000 A 
ATOM      9  C   UNL     1       7.293   4.800  18.126  0.00  0.00    +0.000 A 
ATOM     10  C   UNL     1       8.049   5.673  18.912  0.00  0.00    +0.000 A 
ATOM     11  C   UNL     1       8.096   7.028  18.603  0.00  0.00    +0.000 A 
ATOM     12  C   UNL     1       7.388   7.509  17.503  0.00  0.00    +0.000 A 
ATOM     13  C   UNL     1       6.637   6.634  16.712  0.00  0.00    +0.000 A 
ENDBRANCH   7   8
BRANCH   7  14
ATOM     14  C   UNL     1       6.421   3.837  14.869  0.00  0.00    +0.000 C 
BRANCH  14  16
ATOM     15  C   UNL     1       6.626   3.802  12.378  0.00  0.00    +0.000 C 
ATOM     16  C   UNL     1       5.660   3.963  13.549  0.00  0.00    +0.000 C 
ENDBRANCH  14  16
ENDBRANCH   7  14
ENDBRANCH   5   7
ENDBRANCH   4   5
ENDBRANCH   1   4
BRANCH   1  17
ATOM     17  C   UNL     1       3.780   2.303  19.103  0.00  0.00    +0.000 C 
BRANCH  17  18
ATOM     18  O   UNL     1       4.279   3.377  19.915  0.00  0.00    +0.000 OA
BRANCH  18  19
ATOM     19  C   UNL     1       3.496   4.484  20.027  0.00  0.00    +0.000 A 
ATOM     20  C   UNL     1       3.908   5.570  19.263  0.00  0.00    +0.000 A 
ATOM     21  C   UNL     1       3.213   6.779  19.317  0.00  0.00    +0.000 A 
ATOM     22  C   UNL     1       2.063   6.928  20.109  0.00  0.00    +0.000 A 
ATOM     23  C   UNL     1       1.630   5.796  20.823  0.00  0.00    +0.000 A 
ATOM     24  C   UNL     1       2.339   4.588  20.791  0.00  0.00    +0.000 A 
BRANCH  22  25
ATOM     25  C   UNL     1       1.360   8.229  20.205  0.00  0.00    +0.000 A 
ATOM     26  C   UNL     1       1.213   9.070  19.085  0.00  0.00    +0.000 A 
ATOM     27  C   UNL     1       0.616  10.330  19.190  0.00  0.00    +0.000 A 
ATOM     28  C   UNL     1       0.129  10.771  20.416  0.00  0.00    +0.000 A 
ATOM     29  C   UNL     1       0.237   9.952  21.534  0.00  0.00    +0.000 A 
ATOM     30  C   UNL     1       0.850   8.699  21.429  0.00  0.00    +0.000 A 
ENDBRANCH  22  25
ENDBRANCH  18  19
ENDBRANCH  17  18
ENDBRANCH   1  17
TORSDOF 11
ENDMDL
MODEL 5
REMARK VINA RESULT:      -7.6      2.714      7.599
REMARK  Name = 
REMARK  12 active torsions:
REMARK  status: ('A' for Active; 'I' for Inactive)
REMARK    1  A    between atoms: C_1  and  C_2
REMARK    2  A    between atoms: C_2  and  C_3
REMARK    3  A    between atoms: C_3  and  C_4
REMARK    4  A    between atoms: C_4  and  N_5
REMARK    5  A    between atoms: C_4  and  C_23
REMARK    6  A    between atoms: N_5  and  C_6
REMARK    7  A    between atoms: C_6  and  C_7
REMARK    8  A    between atoms: C_7  and  O_8
REMARK    9  A    between atoms: C_7  and  C_9
REMARK   10  A    between atoms: C_9  and  O_10
REMARK   11  A    between atoms: O_10  and  C_11
REMARK   12  A    between atoms: C_14  and  C_15
REMARK                            x       y       z     vdW  Elec       q    Type
REMARK                         _______ _______ _______ _____ _____    ______ ____
ROOT
ATOM      1  C   UNL     1       4.670   4.229  18.413  0.00  0.00    +0.000 C 
ENDROOT
BRANCH   1   2
ATOM      2  O   UNL     1       5.037   3.094  19.213  0.00  0.00    +0.000 OA
ATOM      3  H   UNL     1       4.316   2.446  19.108  0.00  0.00    +0.000 HD
ENDBRANCH   1   2
BRANCH   1   4
ATOM      4  C   UNL     1       3.210   4.091  17.940  0.00  0.00    +0.000 C 
BRANCH   4   5
ATOM      5  N   UNL     1       2.441   5.335  18.069  0.00  0.00    +0.000 NA
ATOM      6  H   UNL     1       2.868   6.046  17.477  0.00  0.00    +0.000 HD
BRANCH   5   7
ATOM      7  C   UNL     1       2.334   5.804  19.465  0.00  0.00    +0.000 C 
BRANCH   7   8
ATOM      8  C   UNL     1       1.928   7.288  19.521  0.00  0.00    +0.000 A 
ATOM      9  C   UNL     1       1.348   7.881  20.658  0.00  0.00    +0.000 A 
ATOM     10  C   UNL     1       0.962   9.223  20.661  0.00  0.00    +0.000 A 
ATOM     11  C   UNL     1       1.147  10.006  19.526  0.00  0.00    +0.000 A 
ATOM     12  C   UNL     1       1.722   9.444  18.389  0.00  0.00    +0.000 A 
ATOM     13  C   UNL     1       2.116   8.103  18.388  0.00  0.00    +0.000 A 
ENDBRANCH   7   8
BRANCH   7  14
ATOM     14  C   UNL     1       1.450   4.901  20.366  0.00  0.00    +0.000 C 
BRANCH  14  16
ATOM     15  C   UNL     1       1.412   2.733  21.609  0.00  0.00    +0.000 C 
ATOM     16  C   UNL     1       2.179   4.035  21.394  0.00  0.00    +0.000 C 
ENDBRANCH  14  16
ENDBRANCH   7  14
ENDBRANCH   5   7
ENDBRANCH   4   5
ENDBRANCH   1   4
BRANCH   1  17
ATOM     17  C   UNL     1       5.585   4.309  17.179  0.00  0.00    +0.000 C 
BRANCH  17  18
ATOM     18  O   UNL     1       6.921   4.516  17.663  0.00  0.00    +0.000 OA
BRANCH  18  19
ATOM     19  C   UNL     1       7.339   5.805  17.794  0.00  0.00    +0.000 A 
ATOM     20  C   UNL     1       8.092   6.060  18.935  0.00  0.00    +0.000 A 
ATOM     21  C   UNL     1       8.551   7.350  19.208  0.00  0.00    +0.000 A 
ATOM     22  C   UNL     1       8.300   8.417  18.330  0.00  0.00    +0.000 A 
ATOM     23  C   UNL     1       7.592   8.121  17.152  0.00  0.00    +0.000 A 
ATOM     24  C   UNL     1       7.108   6.832  16.887  0.00  0.00    +0.000 A 
BRANCH  22  25
ATOM     25  C   UNL     1       8.742   9.794  18.651  0.00  0.00    +0.000 A 
ATOM     26  C   UNL     1       8.613  10.844  17.722  0.00  0.00    +0.000 A 
ATOM     27  C   UNL     1       9.097  12.127  17.996  0.00  0.00    +0.000 A 
ATOM     28  C   UNL     1       9.701  12.398  19.219  0.00  0.00    +0.000 A 
ATOM     29  C   UNL     1       9.820  11.388  20.167  0.00  0.00    +0.000 A 
ATOM     30  C   UNL     1       9.351  10.101  19.883  0.00  0.00    +0.000 A 
ENDBRANCH  22  25
ENDBRANCH  18  19
ENDBRANCH  17  18
ENDBRANCH   1  17
TORSDOF 11
ENDMDL
MODEL 6
REMARK VINA RESULT:      -7.6      1.531      3.635
REMARK  Name = 
REMARK  12 active torsions:
REMARK  status: ('A' for Active; 'I' for Inactive)
REMARK    1  A    between atoms: C_1  and  C_2
REMARK    2  A    between atoms: C_2  and  C_3
REMARK    3  A    between atoms: C_3  and  C_4
REMARK    4  A    between atoms: C_4  and  N_5
REMARK    5  A    between atoms: C_4  and  C_23
REMARK    6  A    between atoms: N_5  and  C_6
REMARK    7  A    between atoms: C_6  and  C_7
REMARK    8  A    between atoms: C_7  and  O_8
REMARK    9  A    between atoms: C_7  and  C_9
REMARK   10  A    between atoms: C_9  and  O_10
REMARK   11  A    between atoms: O_10  and  C_11
REMARK   12  A    between atoms: C_14  and  C_15
REMARK                            x       y       z     vdW  Elec       q    Type
REMARK                         _______ _______ _______ _____ _____    ______ ____
ROOT
ATOM      1  C   UNL     1       3.820   3.132  19.345  0.00  0.00    +0.000 C 
ENDROOT
BRANCH   1   2
ATOM      2  O   UNL     1       5.098   2.559  19.665  0.00  0.00    +0.000 OA
ATOM      3  H   UNL     1       5.387   2.080  18.866  0.00  0.00    +0.000 HD
ENDBRANCH   1   2
BRANCH   1   4
ATOM      4  C   UNL     1       3.624   3.162  17.817  0.00  0.00    +0.000 C 
BRANCH   4   5
ATOM      5  N   UNL     1       4.879   3.341  17.077  0.00  0.00    +0.000 NA
ATOM      6  H   UNL     1       5.659   3.171  17.710  0.00  0.00    +0.000 HD
BRANCH   5   7
ATOM      7  C   UNL     1       4.991   4.671  16.446  0.00  0.00    +0.000 C 
BRANCH   7   8
ATOM      8  C   UNL     1       6.044   5.537  17.161  0.00  0.00    +0.000 A 
ATOM      9  C   UNL     1       6.233   6.902  16.879  0.00  0.00    +0.000 A 
ATOM     10  C   UNL     1       7.222   7.649  17.524  0.00  0.00    +0.000 A 
ATOM     11  C   UNL     1       8.046   7.047  18.469  0.00  0.00    +0.000 A 
ATOM     12  C   UNL     1       7.877   5.697  18.770  0.00  0.00    +0.000 A 
ATOM     13  C   UNL     1       6.883   4.952  18.130  0.00  0.00    +0.000 A 
ENDBRANCH   7   8
BRANCH   7  14
ATOM     14  C   UNL     1       5.192   4.623  14.907  0.00  0.00    +0.000 C 
BRANCH  14  16
ATOM     15  C   UNL     1       7.252   4.994  13.542  0.00  0.00    +0.000 C 
ATOM     16  C   UNL     1       6.491   3.991  14.406  0.00  0.00    +0.000 C 
ENDBRANCH  14  16
ENDBRANCH   7  14
ENDBRANCH   5   7
ENDBRANCH   4   5
ENDBRANCH   1   4
BRANCH   1  17
ATOM     17  C   UNL     1       3.749   4.572  19.882  0.00  0.00    +0.000 C 
BRANCH  17  18
ATOM     18  O   UNL     1       2.363   4.944  19.897  0.00  0.00    +0.000 OA
BRANCH  18  19
ATOM     19  C   UNL     1       2.076   6.266  19.753  0.00  0.00    +0.000 A 
ATOM     20  C   UNL     1       2.454   6.816  18.532  0.00  0.00    +0.000 A 
ATOM     21  C   UNL     1       2.249   8.172  18.272  0.00  0.00    +0.000 A 
ATOM     22  C   UNL     1       1.628   9.012  19.210  0.00  0.00    +0.000 A 
ATOM     23  C   UNL     1       1.198   8.419  20.411  0.00  0.00    +0.000 A 
ATOM     24  C   UNL     1       1.424   7.064  20.686  0.00  0.00    +0.000 A 
BRANCH  22  25
ATOM     25  C   UNL     1       1.464  10.462  18.951  0.00  0.00    +0.000 A 
ATOM     26  C   UNL     1       2.356  11.167  18.120  0.00  0.00    +0.000 A 
ATOM     27  C   UNL     1       2.245  12.548  17.934  0.00  0.00    +0.000 A 
ATOM     28  C   UNL     1       1.222  13.256  18.556  0.00  0.00    +0.000 A 
ATOM     29  C   UNL     1       0.310  12.583  19.362  0.00  0.00    +0.000 A 
ATOM     30  C   UNL     1       0.434  11.204  19.560  0.00  0.00    +0.000 A 
ENDBRANCH  22  25
ENDBRANCH  18  19
ENDBRANCH  17  18
ENDBRANCH   1  17
TORSDOF 11
ENDMDL
MODEL 7
REMARK VINA RESULT:      -7.6      1.314      3.353
REMARK  Name = 
REMARK  12 active torsions:
REMARK  status: ('A' for Active; 'I' for Inactive)
REMARK    1  A    between atoms: C_1  and  C_2
REMARK    2  A    between atoms: C_2  and  C_3
REMARK    3  A    between atoms: C_3  and  C_4
REMARK    4  A    between atoms: C_4  and  N_5
REMARK    5  A    between atoms: C_4  and  C_23
REMARK    6  A    between atoms: N_5  and  C_6
REMARK    7  A    between atoms: C_6  and  C_7
REMARK    8  A    between atoms: C_7  and  O_8
REMARK    9  A    between atoms: C_7  and  C_9
REMARK   10  A    between atoms: C_9  and  O_10
REMARK   11  A    between atoms: O_10  and  C_11
REMARK   12  A    between atoms: C_14  and  C_15
REMARK                            x       y       z     vdW  Elec       q    Type
REMARK                         _______ _______ _______ _____ _____    ______ ____
ROOT
ATOM      1  C   UNL     1       2.403   2.940  18.345  0.00  0.00    +0.000 C 
ENDROOT
BRANCH   1   2
ATOM      2  O   UNL     1       1.371   1.942  18.398  0.00  0.00    +0.000 OA
ATOM      3  H   UNL     1       0.899   2.088  19.240  0.00  0.00    +0.000 HD
ENDBRANCH   1   2
BRANCH   1   4
ATOM      4  C   UNL     1       3.511   2.500  17.368  0.00  0.00    +0.000 C 
BRANCH   4   5
ATOM      5  N   UNL     1       4.781   3.205  17.580  0.00  0.00    +0.000 NA
ATOM      6  H   UNL     1       4.882   3.404  18.575  0.00  0.00    +0.000 HD
BRANCH   5   7
ATOM      7  C   UNL     1       4.896   4.440  16.780  0.00  0.00    +0.000 C 
BRANCH   7   8
ATOM      8  C   UNL     1       5.997   5.361  17.336  0.00  0.00    +0.000 A 
ATOM      9  C   UNL     1       6.892   4.962  18.346  0.00  0.00    +0.000 A 
ATOM     10  C   UNL     1       7.857   5.837  18.850  0.00  0.00    +0.000 A 
ATOM     11  C   UNL     1       7.950   7.134  18.356  0.00  0.00    +0.000 A 
ATOM     12  C   UNL     1       7.078   7.553  17.353  0.00  0.00    +0.000 A 
ATOM     13  C   UNL     1       6.118   6.675  16.842  0.00  0.00    +0.000 A 
ENDBRANCH   7   8
BRANCH   7  14
ATOM     14  C   UNL     1       5.030   4.190  15.254  0.00  0.00    +0.000 C 
BRANCH  14  16
ATOM     15  C   UNL     1       6.465   3.977  13.219  0.00  0.00    +0.000 C 
ATOM     16  C   UNL     1       6.423   3.830  14.738  0.00  0.00    +0.000 C 
ENDBRANCH  14  16
ENDBRANCH   7  14
ENDBRANCH   5   7
ENDBRANCH   4   5
ENDBRANCH   1   4
BRANCH   1  17
ATOM     17  C   UNL     1       3.018   3.121  19.744  0.00  0.00    +0.000 C 
BRANCH  17  18
ATOM     18  O   UNL     1       3.642   4.414  19.761  0.00  0.00    +0.000 OA
BRANCH  18  19
ATOM     19  C   UNL     1       2.842   5.484  20.019  0.00  0.00    +0.000 A 
ATOM     20  C   UNL     1       3.040   6.576  19.180  0.00  0.00    +0.000 A 
ATOM     21  C   UNL     1       2.309   7.751  19.362  0.00  0.00    +0.000 A 
ATOM     22  C   UNL     1       1.332   7.858  20.366  0.00  0.00    +0.000 A 
ATOM     23  C   UNL     1       1.107   6.720  21.161  0.00  0.00    +0.000 A 
ATOM     24  C   UNL     1       1.856   5.547  20.997  0.00  0.00    +0.000 A 
BRANCH  22  25
ATOM     25  C   UNL     1       0.599   9.126  20.591  0.00  0.00    +0.000 A 
ATOM     26  C   UNL     1       0.247   9.972  19.521  0.00  0.00    +0.000 A 
ATOM     27  C   UNL     1      -0.380  11.203  19.738  0.00  0.00    +0.000 A 
ATOM     28  C   UNL     1      -0.692  11.608  21.031  0.00  0.00    +0.000 A 
ATOM     29  C   UNL     1      -0.380  10.783  22.106  0.00  0.00    +0.000 A 
ATOM     30  C   UNL     1       0.262   9.560  21.887  0.00  0.00    +0.000 A 
ENDBRANCH  22  25
ENDBRANCH  18  19
ENDBRANCH  17  18
ENDBRANCH   1  17
TORSDOF 11
ENDMDL
MODEL 8
REMARK VINA RESULT:      -7.6      1.260      1.869
REMARK  Name = 
REMARK  12 active torsions:
REMARK  status: ('A' for Active; 'I' for Inactive)
REMARK    1  A    between atoms: C_1  and  C_2
REMARK    2  A    between atoms: C_2  and  C_3
REMARK    3  A    between atoms: C_3  and  C_4
REMARK    4  A    between atoms: C_4  and  N_5
REMARK    5  A    between atoms: C_4  and  C_23
REMARK    6  A    between atoms: N_5  and  C_6
REMARK    7  A    between atoms: C_6  and  C_7
REMARK    8  A    between atoms: C_7  and  O_8
REMARK    9  A    between atoms: C_7  and  C_9
REMARK   10  A    between atoms: C_9  and  O_10
REMARK   11  A    between atoms: O_10  and  C_11
REMARK   12  A    between atoms: C_14  and  C_15
REMARK                            x       y       z     vdW  Elec       q    Type
REMARK                         _______ _______ _______ _____ _____    ______ ____
ROOT
ATOM      1  C   UNL     1       3.077   3.615  18.222  0.00  0.00    +0.000 C 
ENDROOT
BRANCH   1   2
ATOM      2  O   UNL     1       2.962   2.316  18.826  0.00  0.00    +0.000 OA
ATOM      3  H   UNL     1       2.159   1.914  18.447  0.00  0.00    +0.000 HD
ENDBRANCH   1   2
BRANCH   1   4
ATOM      4  C   UNL     1       4.543   3.888  17.834  0.00  0.00    +0.000 C 
BRANCH   4   5
ATOM      5  N   UNL     1       4.766   3.886  16.383  0.00  0.00    +0.000 NA
ATOM      6  H   UNL     1       5.041   2.948  16.096  0.00  0.00    +0.000 HD
BRANCH   5   7
ATOM      7  C   UNL     1       5.766   4.884  15.953  0.00  0.00    +0.000 C 
BRANCH   7   8
ATOM      8  C   UNL     1       6.258   4.595  14.523  0.00  0.00    +0.000 A 
ATOM      9  C   UNL     1       7.378   5.231  13.955  0.00  0.00    +0.000 A 
ATOM     10  C   UNL     1       7.775   4.969  12.642  0.00  0.00    +0.000 A 
ATOM     11  C   UNL     1       7.062   4.063  11.864  0.00  0.00    +0.000 A 
ATOM     12  C   UNL     1       5.952   3.416  12.404  0.00  0.00    +0.000 A 
ATOM     13  C   UNL     1       5.558   3.673  13.720  0.00  0.00    +0.000 A 
ENDBRANCH   7   8
BRANCH   7  14
ATOM     14  C   UNL     1       5.311   6.356  16.150  0.00  0.00    +0.000 C 
BRANCH  14  16
ATOM     15  C   UNL     1       7.380   6.460  17.548  0.00  0.00    +0.000 C 
ATOM     16  C   UNL     1       6.085   7.179  17.180  0.00  0.00    +0.000 C 
ENDBRANCH  14  16
ENDBRANCH   7  14
ENDBRANCH   5   7
ENDBRANCH   4   5
ENDBRANCH   1   4
BRANCH   1  17
ATOM     17  C   UNL     1       2.620   4.691  19.222  0.00  0.00    +0.000 C 
BRANCH  17  18
ATOM     18  O   UNL     1       3.286   5.910  18.857  0.00  0.00    +0.000 OA
BRANCH  18  19
ATOM     19  C   UNL     1       2.573   7.063  18.969  0.00  0.00    +0.000 A 
ATOM     20  C   UNL     1       2.036   7.295  20.231  0.00  0.00    +0.000 A 
ATOM     21  C   UNL     1       1.252   8.425  20.470  0.00  0.00    +0.000 A 
ATOM     22  C   UNL     1       1.010   9.375  19.464  0.00  0.00    +0.000 A 
ATOM     23  C   UNL     1       1.616   9.150  18.215  0.00  0.00    +0.000 A 
ATOM     24  C   UNL     1       2.384   8.004  17.965  0.00  0.00    +0.000 A 
BRANCH  22  25
ATOM     25  C   UNL     1       0.132  10.543  19.708  0.00  0.00    +0.000 A 
ATOM     26  C   UNL     1       0.352  11.417  20.790  0.00  0.00    +0.000 A 
ATOM     27  C   UNL     1      -0.519  12.476  21.064  0.00  0.00    +0.000 A 
ATOM     28  C   UNL     1      -1.620  12.703  20.246  0.00  0.00    +0.000 A 
ATOM     29  C   UNL     1      -1.850  11.872  19.155  0.00  0.00    +0.000 A 
ATOM     30  C   UNL     1      -0.986  10.804  18.893  0.00  0.00    +0.000 A 
ENDBRANCH  22  25
ENDBRANCH  18  19
ENDBRANCH  17  18
ENDBRANCH   1  17
TORSDOF 11
ENDMDL
MODEL 9
REMARK VINA RESULT:      -7.4      1.391      3.525
REMARK  Name = 
REMARK  12 active torsions:
REMARK  status: ('A' for Active; 'I' for Inactive)
REMARK    1  A    between atoms: C_1  and  C_2
REMARK    2  A    between atoms: C_2  and  C_3
REMARK    3  A    between atoms: C_3  and  C_4
REMARK    4  A    between atoms: C_4  and  N_5
REMARK    5  A    between atoms: C_4  and  C_23
REMARK    6  A    between atoms: N_5  and  C_6
REMARK    7  A    between atoms: C_6  and  C_7
REMARK    8  A    between atoms: C_7  and  O_8
REMARK    9  A    between atoms: C_7  and  C_9
REMARK   10  A    between atoms: C_9  and  O_10
REMARK   11  A    between atoms: O_10  and  C_11
REMARK   12  A    between atoms: C_14  and  C_15
REMARK                            x       y       z     vdW  Elec       q    Type
REMARK                         _______ _______ _______ _____ _____    ______ ____
ROOT
ATOM      1  C   UNL     1       3.923   2.203  19.845  0.00  0.00    +0.000 C 
ENDROOT
BRANCH   1   2
ATOM      2  O   UNL     1       4.976   1.994  20.800  0.00  0.00    +0.000 OA
ATOM      3  H   UNL     1       5.607   2.726  20.670  0.00  0.00    +0.000 HD
ENDBRANCH   1   2
BRANCH   1   4
ATOM      4  C   UNL     1       4.521   2.601  18.481  0.00  0.00    +0.000 C 
BRANCH   4   5
ATOM      5  N   UNL     1       5.599   3.592  18.589  0.00  0.00    +0.000 NA
ATOM      6  H   UNL     1       5.475   4.115  19.455  0.00  0.00    +0.000 HD
BRANCH   5   7
ATOM      7  C   UNL     1       5.664   4.501  17.428  0.00  0.00    +0.000 C 
BRANCH   7   8
ATOM      8  C   UNL     1       6.575   5.708  17.718  0.00  0.00    +0.000 A 
ATOM      9  C   UNL     1       7.558   5.701  18.726  0.00  0.00    +0.000 A 
ATOM     10  C   UNL     1       8.343   6.827  18.984  0.00  0.00    +0.000 A 
ATOM     11  C   UNL     1       8.165   7.988  18.239  0.00  0.00    +0.000 A 
ATOM     12  C   UNL     1       7.201   8.020  17.233  0.00  0.00    +0.000 A 
ATOM     13  C   UNL     1       6.421   6.891  16.969  0.00  0.00    +0.000 A 
ENDBRANCH   7   8
BRANCH   7  14
ATOM     14  C   UNL     1       6.009   3.790  16.091  0.00  0.00    +0.000 C 
BRANCH  14  16
ATOM     15  C   UNL     1       6.275   3.978  13.614  0.00  0.00    +0.000 C 
ATOM     16  C   UNL     1       5.444   4.416  14.817  0.00  0.00    +0.000 C 
ENDBRANCH  14  16
ENDBRANCH   7  14
ENDBRANCH   5   7
ENDBRANCH   4   5
ENDBRANCH   1   4
BRANCH   1  17
ATOM     17  C   UNL     1       3.001   3.334  20.331  0.00  0.00    +0.000 C 
BRANCH  17  18
ATOM     18  O   UNL     1       2.647   4.110  19.176  0.00  0.00    +0.000 OA
BRANCH  18  19
ATOM     19  C   UNL     1       2.288   5.405  19.386  0.00  0.00    +0.000 A 
ATOM     20  C   UNL     1       2.418   6.234  18.277  0.00  0.00    +0.000 A 
ATOM     21  C   UNL     1       2.118   7.594  18.370  0.00  0.00    +0.000 A 
ATOM     22  C   UNL     1       1.644   8.160  19.564  0.00  0.00    +0.000 A 
ATOM     23  C   UNL     1       1.460   7.290  20.654  0.00  0.00    +0.000 A 
ATOM     24  C   UNL     1       1.784   5.928  20.572  0.00  0.00    +0.000 A 
BRANCH  22  25
ATOM     25  C   UNL     1       1.379   9.614  19.672  0.00  0.00    +0.000 A 
ATOM     26  C   UNL     1       1.660  10.494  18.609  0.00  0.00    +0.000 A 
ATOM     27  C   UNL     1       1.480  11.875  18.737  0.00  0.00    +0.000 A 
ATOM     28  C   UNL     1       0.991  12.408  19.924  0.00  0.00    +0.000 A 
ATOM     29  C   UNL     1       0.681  11.562  20.983  0.00  0.00    +0.000 A 
ATOM     30  C   UNL     1       0.878  10.183  20.859  0.00  0.00    +0.000 A 
ENDBRANCH  22  25
ENDBRANCH  18  19
ENDBRANCH  17  18
ENDBRANCH   1  17
TORSDOF 11
ENDMDL
