MODEL 1
REMARK VINA RESULT:      -7.7      0.000      0.000
REMARK  Name = 
REMARK  7 active torsions:
REMARK  status: ('A' for Active; 'I' for Inactive)
REMARK    1  A    between atoms: C_1  and  C_2
REMARK    2  A    between atoms: C_2  and  C_3
REMARK    3  A    between atoms: C_3  and  C_4
REMARK    4  A    between atoms: C_4  and  N_5
REMARK    5  A    between atoms: N_11  and  O_12
REMARK    6  A    between atoms: O_12  and  C_13
REMARK    7  A    between atoms: C_13  and  C_14
REMARK                            x       y       z     vdW  Elec       q    Type
REMARK                         _______ _______ _______ _____ _____    ______ ____
ROOT
ATOM      1  N   UNL     1       6.002   5.676  15.249  0.00  0.00    +0.000 N 
ATOM      2  C   UNL     1       6.382   5.471  16.547  0.00  0.00    +0.000 C 
ATOM      3  N   UNL     1       7.539   4.944  16.808  0.00  0.00    +0.000 NA
ATOM      4  C   UNL     1       7.913   4.697  18.198  0.00  0.00    +0.000 C 
ATOM      5  C   UNL     1       7.129   5.537  19.183  0.00  0.00    +0.000 C 
ATOM      6  C   UNL     1       5.657   5.409  18.854  0.00  0.00    +0.000 C 
ATOM      7  N   UNL     1       5.445   5.885  17.489  0.00  0.00    +0.000 N 
ATOM      8  H   UNL     1       5.002   5.833  15.181  0.00  0.00    +0.000 HD
ENDROOT
BRANCH   1   9
ATOM      9  C   UNL     1       6.565   4.855  14.181  0.00  0.00    +0.000 C 
BRANCH   9  10
ATOM     10  C   UNL     1       5.597   3.760  13.745  0.00  0.00    +0.000 C 
BRANCH  10  12
ATOM     11  C   UNL     1       4.591   3.289  11.481  0.00  0.00    +0.000 C 
ATOM     12  C   UNL     1       5.862   3.279  12.316  0.00  0.00    +0.000 C 
ENDBRANCH  10  12
ENDBRANCH   9  10
ENDBRANCH   1   9
BRANCH   7  13
ATOM     13  O   UNL     1       4.097   5.749  17.044  0.00  0.00    +0.000 OA
BRANCH  13  14
ATOM     14  C   UNL     1       3.220   6.324  18.030  0.00  0.00    +0.000 C 
BRANCH  14  15
ATOM     15  C   UNL     1       2.367   5.255  18.668  0.00  0.00    +0.000 A 
ATOM     16  C   UNL     1       1.936   4.152  17.915  0.00  0.00    +0.000 A 
ATOM     17  C   UNL     1       1.187   3.134  18.509  0.00  0.00    +0.000 A 
ATOM     18  C   UNL     1       0.866   3.206  19.863  0.00  0.00    +0.000 A 
ATOM     19  C   UNL     1       1.302   4.288  20.626  0.00  0.00    +0.000 A 
ATOM     20  C   UNL     1       2.053   5.306  20.033  0.00  0.00    +0.000 A 
ENDBRANCH  14  15
ENDBRANCH  13  14
ENDBRANCH   7  13
TORSDOF 6
ENDMDL
MODEL 2
REMARK VINA RESULT:      -7.5      2.277      4.557
REMARK  Name = 
REMARK  7 active torsions:
REMARK  status: ('A' for Active; 'I' for Inactive)
REMARK    1  A    between atoms: C_1  and  C_2
REMARK    2  A    between atoms: C_2  and  C_3
REMARK    3  A    between atoms: C_3  and  C_4
REMARK    4  A    between atoms: C_4  and  N_5
REMARK    5  A    between atoms: N_11  and  O_12
REMARK    6  A    between atoms: O_12  and  C_13
REMARK    7  A    between atoms: C_13  and  C_14
REMARK                            x       y       z     vdW  Elec       q    Type
REMARK                         _______ _______ _______ _____ _____    ______ ____
ROOT
ATOM      1  N   UNL     1       7.091   6.765  17.796  0.00  0.00    +0.000 N 
ATOM      2  C   UNL     1       6.720   5.851  16.848  0.00  0.00    +0.000 C 
ATOM      3  N   UNL     1       7.328   5.823  15.703  0.00  0.00    +0.000 NA
ATOM      4  C   UNL     1       6.894   4.865  14.688  0.00  0.00    +0.000 C 
ATOM      5  C   UNL     1       6.129   3.693  15.265  0.00  0.00    +0.000 C 
ATOM      6  C   UNL     1       5.052   4.231  16.182  0.00  0.00    +0.000 C 
ATOM      7  N   UNL     1       5.691   5.003  17.246  0.00  0.00    +0.000 N 
ATOM      8  H   UNL     1       6.380   6.858  18.513  0.00  0.00    +0.000 HD
ENDROOT
BRANCH   1   9
ATOM      9  C   UNL     1       7.724   8.019  17.398  0.00  0.00    +0.000 C 
BRANCH   9  10
ATOM     10  C   UNL     1       8.499   8.648  18.551  0.00  0.00    +0.000 C 
BRANCH  10  12
ATOM     11  C   UNL     1       9.660  10.706  19.433  0.00  0.00    +0.000 C 
ATOM     12  C   UNL     1       8.822  10.124  18.304  0.00  0.00    +0.000 C 
ENDBRANCH  10  12
ENDBRANCH   9  10
ENDBRANCH   1   9
BRANCH   7  13
ATOM     13  O   UNL     1       4.763   5.616  18.137  0.00  0.00    +0.000 OA
BRANCH  13  14
ATOM     14  C   UNL     1       3.426   5.338  17.682  0.00  0.00    +0.000 C 
BRANCH  14  15
ATOM     15  C   UNL     1       2.641   4.620  18.753  0.00  0.00    +0.000 A 
ATOM     16  C   UNL     1       2.822   4.953  20.105  0.00  0.00    +0.000 A 
ATOM     17  C   UNL     1       2.065   4.328  21.098  0.00  0.00    +0.000 A 
ATOM     18  C   UNL     1       1.117   3.368  20.751  0.00  0.00    +0.000 A 
ATOM     19  C   UNL     1       0.916   3.041  19.411  0.00  0.00    +0.000 A 
ATOM     20  C   UNL     1       1.670   3.667  18.416  0.00  0.00    +0.000 A 
ENDBRANCH  14  15
ENDBRANCH  13  14
ENDBRANCH   7  13
TORSDOF 6
ENDMDL
MODEL 3
REMARK VINA RESULT:      -7.4      0.534      1.243
REMARK  Name = 
REMARK  7 active torsions:
REMARK  status: ('A' for Active; 'I' for Inactive)
REMARK    1  A    between atoms: C_1  and  C_2
REMARK    2  A    between atoms: C_2  and  C_3
REMARK    3  A    between atoms: C_3  and  C_4
REMARK    4  A    between atoms: C_4  and  N_5
REMARK    5  A    between atoms: N_11  and  O_12
REMARK    6  A    between atoms: O_12  and  C_13
REMARK    7  A    between atoms: C_13  and  C_14
REMARK                            x       y       z     vdW  Elec       q    Type
REMARK                         _______ _______ _______ _____ _____    ______ ____
ROOT
ATOM      1  N   UNL     1       5.599   4.965  15.256  0.00  0.00    +0.000 N 
ATOM      2  C   UNL     1       6.213   5.098  16.472  0.00  0.00    +0.000 C 
ATOM      3  N   UNL     1       7.345   4.503  16.693  0.00  0.00    +0.000 NA
ATOM      4  C   UNL     1       7.968   4.624  18.009  0.00  0.00    +0.000 C 
ATOM      5  C   UNL     1       7.480   5.825  18.790  0.00  0.00    +0.000 C 
ATOM      6  C   UNL     1       5.967   5.829  18.764  0.00  0.00    +0.000 C 
ATOM      7  N   UNL     1       5.528   5.907  17.372  0.00  0.00    +0.000 N 
ATOM      8  H   UNL     1       4.625   5.244  15.307  0.00  0.00    +0.000 HD
ENDROOT
BRANCH   1   9
ATOM      9  C   UNL     1       5.856   3.791  14.428  0.00  0.00    +0.000 C 
BRANCH   9  10
ATOM     10  C   UNL     1       6.608   4.156  13.153  0.00  0.00    +0.000 C 
BRANCH  10  12
ATOM     11  C   UNL     1       4.693   3.261  11.778  0.00  0.00    +0.000 C 
ATOM     12  C   UNL     1       6.203   3.283  11.963  0.00  0.00    +0.000 C 
ENDBRANCH  10  12
ENDBRANCH   9  10
ENDBRANCH   1   9
BRANCH   7  13
ATOM     13  O   UNL     1       4.111   5.850  17.221  0.00  0.00    +0.000 OA
BRANCH  13  14
ATOM     14  C   UNL     1       3.495   6.126  18.492  0.00  0.00    +0.000 C 
BRANCH  14  15
ATOM     15  C   UNL     1       2.556   5.010  18.879  0.00  0.00    +0.000 A 
ATOM     16  C   UNL     1       1.892   5.041  20.115  0.00  0.00    +0.000 A 
ATOM     17  C   UNL     1       0.984   4.038  20.460  0.00  0.00    +0.000 A 
ATOM     18  C   UNL     1       0.727   2.995  19.572  0.00  0.00    +0.000 A 
ATOM     19  C   UNL     1       1.367   2.962  18.334  0.00  0.00    +0.000 A 
ATOM     20  C   UNL     1       2.274   3.966  17.986  0.00  0.00    +0.000 A 
ENDBRANCH  14  15
ENDBRANCH  13  14
ENDBRANCH   7  13
TORSDOF 6
ENDMDL
MODEL 4
REMARK VINA RESULT:      -7.2      2.401      4.664
REMARK  Name = 
REMARK  7 active torsions:
REMARK  status: ('A' for Active; 'I' for Inactive)
REMARK    1  A    between atoms: C_1  and  C_2
REMARK    2  A    between atoms: C_2  and  C_3
REMARK    3  A    between atoms: C_3  and  C_4
REMARK    4  A    between atoms: C_4  and  N_5
REMARK    5  A    between atoms: N_11  and  O_12
REMARK    6  A    between atoms: O_12  and  C_13
REMARK    7  A    between atoms: C_13  and  C_14
REMARK                            x       y       z     vdW  Elec       q    Type
REMARK                         _______ _______ _______ _____ _____    ______ ____
ROOT
ATOM      1  N   UNL     1       7.396   6.504  17.819  0.00  0.00    +0.000 N 
ATOM      2  C   UNL     1       6.895   5.659  16.867  0.00  0.00    +0.000 C 
ATOM      3  N   UNL     1       7.119   5.895  15.611  0.00  0.00    +0.000 NA
ATOM      4  C   UNL     1       6.544   5.005  14.604  0.00  0.00    +0.000 C 
ATOM      5  C   UNL     1       6.181   3.642  15.154  0.00  0.00    +0.000 C 
ATOM      6  C   UNL     1       5.369   3.837  16.417  0.00  0.00    +0.000 C 
ATOM      7  N   UNL     1       6.180   4.582  17.378  0.00  0.00    +0.000 N 
ATOM      8  H   UNL     1       6.934   6.364  18.712  0.00  0.00    +0.000 HD
ENDROOT
BRANCH   1   9
ATOM      9  C   UNL     1       7.677   7.898  17.490  0.00  0.00    +0.000 C 
BRANCH   9  10
ATOM     10  C   UNL     1       8.557   8.559  18.546  0.00  0.00    +0.000 C 
BRANCH  10  12
ATOM     11  C   UNL     1       9.653  10.684  19.347  0.00  0.00    +0.000 C 
ATOM     12  C   UNL     1       8.797  10.043  18.264  0.00  0.00    +0.000 C 
ENDBRANCH  10  12
ENDBRANCH   9  10
ENDBRANCH   1   9
BRANCH   7  13
ATOM     13  O   UNL     1       5.488   4.884  18.589  0.00  0.00    +0.000 OA
BRANCH  13  14
ATOM     14  C   UNL     1       4.992   3.660  19.160  0.00  0.00    +0.000 C 
BRANCH  14  15
ATOM     15  C   UNL     1       3.588   3.849  19.680  0.00  0.00    +0.000 A 
ATOM     16  C   UNL     1       3.094   5.139  19.929  0.00  0.00    +0.000 A 
ATOM     17  C   UNL     1       1.781   5.326  20.364  0.00  0.00    +0.000 A 
ATOM     18  C   UNL     1       0.945   4.226  20.549  0.00  0.00    +0.000 A 
ATOM     19  C   UNL     1       1.418   2.941  20.289  0.00  0.00    +0.000 A 
ATOM     20  C   UNL     1       2.731   2.752  19.852  0.00  0.00    +0.000 A 
ENDBRANCH  14  15
ENDBRANCH  13  14
ENDBRANCH   7  13
TORSDOF 6
ENDMDL
MODEL 5
REMARK VINA RESULT:      -7.2      2.305      4.454
REMARK  Name = 
REMARK  7 active torsions:
REMARK  status: ('A' for Active; 'I' for Inactive)
REMARK    1  A    between atoms: C_1  and  C_2
REMARK    2  A    between atoms: C_2  and  C_3
REMARK    3  A    between atoms: C_3  and  C_4
REMARK    4  A    between atoms: C_4  and  N_5
REMARK    5  A    between atoms: N_11  and  O_12
REMARK    6  A    between atoms: O_12  and  C_13
REMARK    7  A    between atoms: C_13  and  C_14
REMARK                            x       y       z     vdW  Elec       q    Type
REMARK                         _______ _______ _______ _____ _____    ______ ____
ROOT
ATOM      1  N   UNL     1       7.001   6.872  17.793  0.00  0.00    +0.000 N 
ATOM      2  C   UNL     1       6.678   5.914  16.871  0.00  0.00    +0.000 C 
ATOM      3  N   UNL     1       7.372   5.805  15.780  0.00  0.00    +0.000 NA
ATOM      4  C   UNL     1       6.990   4.802  14.789  0.00  0.00    +0.000 C 
ATOM      5  C   UNL     1       6.148   3.686  15.367  0.00  0.00    +0.000 C 
ATOM      6  C   UNL     1       5.019   4.302  16.165  0.00  0.00    +0.000 C 
ATOM      7  N   UNL     1       5.597   5.117  17.231  0.00  0.00    +0.000 N 
ATOM      8  H   UNL     1       6.240   7.024  18.445  0.00  0.00    +0.000 HD
ENDROOT
BRANCH   1   9
ATOM      9  C   UNL     1       7.700   8.085  17.377  0.00  0.00    +0.000 C 
BRANCH   9  10
ATOM     10  C   UNL     1       8.522   8.678  18.517  0.00  0.00    +0.000 C 
BRANCH  10  12
ATOM     11  C   UNL     1       9.710  10.712  19.418  0.00  0.00    +0.000 C 
ATOM     12  C   UNL     1       8.806  10.169  18.321  0.00  0.00    +0.000 C 
ENDBRANCH  10  12
ENDBRANCH   9  10
ENDBRANCH   1   9
BRANCH   7  13
ATOM     13  O   UNL     1       4.620   5.805  18.011  0.00  0.00    +0.000 OA
BRANCH  13  14
ATOM     14  C   UNL     1       4.523   5.173  19.300  0.00  0.00    +0.000 C 
BRANCH  14  15
ATOM     15  C   UNL     1       3.171   4.524  19.472  0.00  0.00    +0.000 A 
ATOM     16  C   UNL     1       2.424   4.140  18.347  0.00  0.00    +0.000 A 
ATOM     17  C   UNL     1       1.195   3.495  18.497  0.00  0.00    +0.000 A 
ATOM     18  C   UNL     1       0.702   3.223  19.771  0.00  0.00    +0.000 A 
ATOM     19  C   UNL     1       1.442   3.583  20.896  0.00  0.00    +0.000 A 
ATOM     20  C   UNL     1       2.673   4.226  20.748  0.00  0.00    +0.000 A 
ENDBRANCH  14  15
ENDBRANCH  13  14
ENDBRANCH   7  13
TORSDOF 6
ENDMDL
MODEL 6
REMARK VINA RESULT:      -7.2      2.380      4.619
REMARK  Name = 
REMARK  7 active torsions:
REMARK  status: ('A' for Active; 'I' for Inactive)
REMARK    1  A    between atoms: C_1  and  C_2
REMARK    2  A    between atoms: C_2  and  C_3
REMARK    3  A    between atoms: C_3  and  C_4
REMARK    4  A    between atoms: C_4  and  N_5
REMARK    5  A    between atoms: N_11  and  O_12
REMARK    6  A    between atoms: O_12  and  C_13
REMARK    7  A    between atoms: C_13  and  C_14
REMARK                            x       y       z     vdW  Elec       q    Type
REMARK                         _______ _______ _______ _____ _____    ______ ____
ROOT
ATOM      1  N   UNL     1       7.398   6.492  17.822  0.00  0.00    +0.000 N 
ATOM      2  C   UNL     1       6.936   5.660  16.839  0.00  0.00    +0.000 C 
ATOM      3  N   UNL     1       7.214   5.910  15.597  0.00  0.00    +0.000 NA
ATOM      4  C   UNL     1       6.681   5.034  14.556  0.00  0.00    +0.000 C 
ATOM      5  C   UNL     1       6.289   3.666  15.074  0.00  0.00    +0.000 C 
ATOM      6  C   UNL     1       5.424   3.850  16.302  0.00  0.00    +0.000 C 
ATOM      7  N   UNL     1       6.194   4.580  17.307  0.00  0.00    +0.000 N 
ATOM      8  H   UNL     1       6.897   6.344  18.692  0.00  0.00    +0.000 HD
ENDROOT
BRANCH   1   9
ATOM      9  C   UNL     1       7.698   7.889  17.522  0.00  0.00    +0.000 C 
BRANCH   9  10
ATOM     10  C   UNL     1       8.612   8.506  18.575  0.00  0.00    +0.000 C 
BRANCH  10  12
ATOM     11  C   UNL     1       9.426  10.661  19.602  0.00  0.00    +0.000 C 
ATOM     12  C   UNL     1       8.807  10.010  18.373  0.00  0.00    +0.000 C 
ENDBRANCH  10  12
ENDBRANCH   9  10
ENDBRANCH   1   9
BRANCH   7  13
ATOM     13  O   UNL     1       5.452   4.871  18.489  0.00  0.00    +0.000 OA
BRANCH  13  14
ATOM     14  C   UNL     1       4.950   3.640  19.040  0.00  0.00    +0.000 C 
BRANCH  14  15
ATOM     15  C   UNL     1       3.551   3.829  19.572  0.00  0.00    +0.000 A 
ATOM     16  C   UNL     1       2.781   2.717  19.946  0.00  0.00    +0.000 A 
ATOM     17  C   UNL     1       1.504   2.885  20.485  0.00  0.00    +0.000 A 
ATOM     18  C   UNL     1       0.985   4.167  20.661  0.00  0.00    +0.000 A 
ATOM     19  C   UNL     1       1.747   5.280  20.310  0.00  0.00    +0.000 A 
ATOM     20  C   UNL     1       3.026   5.113  19.773  0.00  0.00    +0.000 A 
ENDBRANCH  14  15
ENDBRANCH  13  14
ENDBRANCH   7  13
TORSDOF 6
ENDMDL
MODEL 7
REMARK VINA RESULT:      -7.1      1.229      1.552
REMARK  Name = 
REMARK  7 active torsions:
REMARK  status: ('A' for Active; 'I' for Inactive)
REMARK    1  A    between atoms: C_1  and  C_2
REMARK    2  A    between atoms: C_2  and  C_3
REMARK    3  A    between atoms: C_3  and  C_4
REMARK    4  A    between atoms: C_4  and  N_5
REMARK    5  A    between atoms: N_11  and  O_12
REMARK    6  A    between atoms: O_12  and  C_13
REMARK    7  A    between atoms: C_13  and  C_14
REMARK                            x       y       z     vdW  Elec       q    Type
REMARK                         _______ _______ _______ _____ _____    ______ ____
ROOT
ATOM      1  N   UNL     1       5.659   4.810  15.403  0.00  0.00    +0.000 N 
ATOM      2  C   UNL     1       6.169   4.938  16.666  0.00  0.00    +0.000 C 
ATOM      3  N   UNL     1       7.431   4.729  16.879  0.00  0.00    +0.000 NA
ATOM      4  C   UNL     1       7.952   4.833  18.240  0.00  0.00    +0.000 C 
ATOM      5  C   UNL     1       7.068   5.655  19.154  0.00  0.00    +0.000 C 
ATOM      6  C   UNL     1       5.646   5.156  19.018  0.00  0.00    +0.000 C 
ATOM      7  N   UNL     1       5.232   5.311  17.625  0.00  0.00    +0.000 N 
ATOM      8  H   UNL     1       4.647   4.734  15.423  0.00  0.00    +0.000 HD
ENDROOT
BRANCH   1   9
ATOM      9  C   UNL     1       6.317   3.943  14.430  0.00  0.00    +0.000 C 
BRANCH   9  10
ATOM     10  C   UNL     1       5.456   3.737  13.188  0.00  0.00    +0.000 C 
BRANCH  10  12
ATOM     11  C   UNL     1       5.769   1.902  11.487  0.00  0.00    +0.000 C 
ATOM     12  C   UNL     1       6.269   3.250  11.986  0.00  0.00    +0.000 C 
ENDBRANCH  10  12
ENDBRANCH   9  10
ENDBRANCH   1   9
BRANCH   7  13
ATOM     13  O   UNL     1       3.922   4.808  17.364  0.00  0.00    +0.000 OA
BRANCH  13  14
ATOM     14  C   UNL     1       3.852   3.440  17.805  0.00  0.00    +0.000 C 
BRANCH  14  15
ATOM     15  C   UNL     1       2.930   3.314  18.993  0.00  0.00    +0.000 A 
ATOM     16  C   UNL     1       3.363   2.658  20.156  0.00  0.00    +0.000 A 
ATOM     17  C   UNL     1       2.535   2.580  21.278  0.00  0.00    +0.000 A 
ATOM     18  C   UNL     1       1.268   3.160  21.251  0.00  0.00    +0.000 A 
ATOM     19  C   UNL     1       0.834   3.829  20.108  0.00  0.00    +0.000 A 
ATOM     20  C   UNL     1       1.661   3.910  18.986  0.00  0.00    +0.000 A 
ENDBRANCH  14  15
ENDBRANCH  13  14
ENDBRANCH   7  13
TORSDOF 6
ENDMDL
MODEL 8
REMARK VINA RESULT:      -7.1      1.105      1.152
REMARK  Name = 
REMARK  7 active torsions:
REMARK  status: ('A' for Active; 'I' for Inactive)
REMARK    1  A    between atoms: C_1  and  C_2
REMARK    2  A    between atoms: C_2  and  C_3
REMARK    3  A    between atoms: C_3  and  C_4
REMARK    4  A    between atoms: C_4  and  N_5
REMARK    5  A    between atoms: N_11  and  O_12
REMARK    6  A    between atoms: O_12  and  C_13
REMARK    7  A    between atoms: C_13  and  C_14
REMARK                            x       y       z     vdW  Elec       q    Type
REMARK                         _______ _______ _______ _____ _____    ______ ____
ROOT
ATOM      1  N   UNL     1       5.365   4.701  14.856  0.00  0.00    +0.000 N 
ATOM      2  C   UNL     1       5.889   5.521  15.818  0.00  0.00    +0.000 C 
ATOM      3  N   UNL     1       7.168   5.733  15.862  0.00  0.00    +0.000 NA
ATOM      4  C   UNL     1       7.715   6.580  16.920  0.00  0.00    +0.000 C 
ATOM      5  C   UNL     1       6.685   7.506  17.532  0.00  0.00    +0.000 C 
ATOM      6  C   UNL     1       5.463   6.689  17.894  0.00  0.00    +0.000 C 
ATOM      7  N   UNL     1       4.942   6.072  16.675  0.00  0.00    +0.000 N 
ATOM      8  H   UNL     1       4.422   4.413  15.094  0.00  0.00    +0.000 HD
ENDROOT
BRANCH   1   9
ATOM      9  C   UNL     1       6.189   3.658  14.252  0.00  0.00    +0.000 C 
BRANCH   9  10
ATOM     10  C   UNL     1       6.374   3.884  12.755  0.00  0.00    +0.000 C 
BRANCH  10  12
ATOM     11  C   UNL     1       4.287   3.280  11.473  0.00  0.00    +0.000 C 
ATOM     12  C   UNL     1       5.670   2.819  11.911  0.00  0.00    +0.000 C 
ENDBRANCH  10  12
ENDBRANCH   9  10
ENDBRANCH   1   9
BRANCH   7  13
ATOM     13  O   UNL     1       3.822   5.220  16.907  0.00  0.00    +0.000 OA
BRANCH  13  14
ATOM     14  C   UNL     1       2.950   5.845  17.866  0.00  0.00    +0.000 C 
BRANCH  14  15
ATOM     15  C   UNL     1       2.164   4.804  18.625  0.00  0.00    +0.000 A 
ATOM     16  C   UNL     1       1.716   3.644  17.975  0.00  0.00    +0.000 A 
ATOM     17  C   UNL     1       1.031   2.653  18.680  0.00  0.00    +0.000 A 
ATOM     18  C   UNL     1       0.791   2.808  20.044  0.00  0.00    +0.000 A 
ATOM     19  C   UNL     1       1.245   3.948  20.705  0.00  0.00    +0.000 A 
ATOM     20  C   UNL     1       1.933   4.939  20.001  0.00  0.00    +0.000 A 
ENDBRANCH  14  15
ENDBRANCH  13  14
ENDBRANCH   7  13
TORSDOF 6
ENDMDL
MODEL 9
REMARK VINA RESULT:      -7.0      1.477      3.893
REMARK  Name = 
REMARK  7 active torsions:
REMARK  status: ('A' for Active; 'I' for Inactive)
REMARK    1  A    between atoms: C_1  and  C_2
REMARK    2  A    between atoms: C_2  and  C_3
REMARK    3  A    between atoms: C_3  and  C_4
REMARK    4  A    between atoms: C_4  and  N_5
REMARK    5  A    between atoms: N_11  and  O_12
REMARK    6  A    between atoms: O_12  and  C_13
REMARK    7  A    between atoms: C_13  and  C_14
REMARK                            x       y       z     vdW  Elec       q    Type
REMARK                         _______ _______ _______ _____ _____    ______ ____
ROOT
ATOM      1  N   UNL     1       7.018   4.443  18.095  0.00  0.00    +0.000 N 
ATOM      2  C   UNL     1       6.701   4.437  16.764  0.00  0.00    +0.000 C 
ATOM      3  N   UNL     1       7.632   4.608  15.877  0.00  0.00    +0.000 NA
ATOM      4  C   UNL     1       7.272   4.638  14.461  0.00  0.00    +0.000 C 
ATOM      5  C   UNL     1       5.945   3.970  14.172  0.00  0.00    +0.000 C 
ATOM      6  C   UNL     1       4.914   4.518  15.136  0.00  0.00    +0.000 C 
ATOM      7  N   UNL     1       5.352   4.223  16.499  0.00  0.00    +0.000 N 
ATOM      8  H   UNL     1       6.189   4.570  18.667  0.00  0.00    +0.000 HD
ENDROOT
BRANCH   1   9
ATOM      9  C   UNL     1       8.200   5.159  18.566  0.00  0.00    +0.000 C 
BRANCH   9  10
ATOM     10  C   UNL     1       7.875   6.605  18.926  0.00  0.00    +0.000 C 
BRANCH  10  12
ATOM     11  C   UNL     1       8.193   8.936  18.018  0.00  0.00    +0.000 C 
ATOM     12  C   UNL     1       7.777   7.508  17.695  0.00  0.00    +0.000 C 
ENDBRANCH  10  12
ENDBRANCH   9  10
ENDBRANCH   1   9
BRANCH   7  13
ATOM     13  O   UNL     1       4.486   4.755  17.499  0.00  0.00    +0.000 OA
BRANCH  13  14
ATOM     14  C   UNL     1       3.124   4.462  17.140  0.00  0.00    +0.000 C 
BRANCH  14  15
ATOM     15  C   UNL     1       2.331   4.055  18.358  0.00  0.00    +0.000 A 
ATOM     16  C   UNL     1       1.856   2.740  18.484  0.00  0.00    +0.000 A 
ATOM     17  C   UNL     1       1.164   2.341  19.629  0.00  0.00    +0.000 A 
ATOM     18  C   UNL     1       0.944   3.250  20.663  0.00  0.00    +0.000 A 
ATOM     19  C   UNL     1       1.426   4.553  20.557  0.00  0.00    +0.000 A 
ATOM     20  C   UNL     1       2.120   4.954  19.413  0.00  0.00    +0.000 A 
ENDBRANCH  14  15
ENDBRANCH  13  14
ENDBRANCH   7  13
TORSDOF 6
ENDMDL
